MODEL 1
REMARK VINA RESULT:    -8.187      0.000      0.000
REMARK INTER + INTRA:         -12.935
REMARK INTER:                 -11.538
REMARK INTRA:                  -1.397
REMARK UNBOUND:                -1.397
REMARK  Name = 
REMARK  7 active torsions:
REMARK  status: ('A' for Active; 'I' for Inactive)
REMARK    1  A    between atoms: C_2  and  C_4
REMARK    2  A    between atoms: C_4  and  N_5
REMARK    3  A    between atoms: C_4  and  C_28
REMARK    4  A    between atoms: C_6  and  C_8
REMARK    5  A    between atoms: C_11  and  C_12
REMARK    6  A    between atoms: C_12  and  N_13
REMARK    7  A    between atoms: C_14  and  C_16
REMARK                            x       y       z     vdW  Elec       q    Type
REMARK                         _______ _______ _______ _____ _____    ______ ____
ROOT
ATOM      1  C   UNL     1      45.831   7.089  12.090  0.00  0.00    +0.000 A 
ATOM      2  C   UNL     1      45.471   8.313  12.670  0.00  0.00    +0.000 A 
ATOM      3  C   UNL     1      46.432   9.099  13.317  0.00  0.00    +0.000 A 
ATOM      4  C   UNL     1      47.767   8.679  13.392  0.00  0.00    +0.000 A 
ATOM      5  C   UNL     1      48.116   7.439  12.833  0.00  0.00    +0.000 A 
ATOM      6  C   UNL     1      47.155   6.650  12.187  0.00  0.00    +0.000 A 
ENDROOT
BRANCH   1   8
ATOM      7  N   UNL     1      45.291   5.003  10.968  0.00  0.00    +0.000 N 
ATOM      8  C   UNL     1      44.824   6.218  11.411  0.00  0.00    +0.000 C 
ATOM      9  O   UNL     1      43.661   6.580  11.279  0.00  0.00    +0.000 OA
ATOM     10  H   UNL     1      46.123   4.635  11.405  0.00  0.00    +0.000 HD
BRANCH   7  11
ATOM     11  C   UNL     1      44.413   4.015  10.350  0.00  0.00    +0.000 C 
BRANCH  11  12
ATOM     12  C   UNL     1      45.144   3.363   9.185  0.00  0.00    +0.000 A 
ATOM     13  C   UNL     1      45.698   4.151   8.163  0.00  0.00    +0.000 A 
ATOM     14  C   UNL     1      46.436   3.563   7.133  0.00  0.00    +0.000 A 
ATOM     15  C   UNL     1      46.634   2.184   7.112  0.00  0.00    +0.000 A 
ATOM     16  C   UNL     1      46.075   1.386   8.106  0.00  0.00    +0.000 A 
ATOM     17  C   UNL     1      45.328   1.969   9.130  0.00  0.00    +0.000 A 
ENDBRANCH  11  12
BRANCH  11  19
ATOM     18  N   UNL     1      44.856   2.755  12.435  0.00  0.00    +0.000 N 
ATOM     19  C   UNL     1      43.982   2.964  11.404  0.00  0.00    +0.000 C 
ATOM     20  O   UNL     1      42.900   2.379  11.381  0.00  0.00    +0.000 OA
ATOM     21  H   UNL     1      44.616   2.034  13.104  0.00  0.00    +0.000 HD
ATOM     22  H   UNL     1      45.818   3.063  12.399  0.00  0.00    +0.000 HD
ENDBRANCH  11  19
ENDBRANCH   7  11
ENDBRANCH   1   8
BRANCH   4  23
ATOM     23  C   UNL     1      48.793   9.500  14.133  0.00  0.00    +0.000 C 
BRANCH  23  24
ATOM     24  N   UNL     1      49.296   8.773  15.271  0.00  0.00    +0.000 N 
ATOM     25  C   UNL     1      48.715   8.869  16.509  0.00  0.00    +0.000 C 
ATOM     26  O   UNL     1      47.706   9.540  16.705  0.00  0.00    +0.000 OA
ATOM     27  H   UNL     1      50.242   8.413  15.194  0.00  0.00    +0.000 HD
BRANCH  25  28
ATOM     28  C   UNL     1      49.328   8.068  17.577  0.00  0.00    +0.000 A 
ATOM     29  C   UNL     1      49.900   8.700  18.673  0.00  0.00    +0.000 A 
ATOM     30  S   UNL     1      50.494   7.620  19.854  0.00  0.00    +0.000 S 
ATOM     31  C   UNL     1      50.058   6.269  18.917  0.00  0.00    +0.000 A 
ATOM     32  N   UNL     1      50.306   5.004  19.352  0.00  0.00    +0.000 NA
ATOM     33  C   UNL     1      49.953   4.076  18.527  0.00  0.00    +0.000 A 
ATOM     34  N   UNL     1      49.370   4.297  17.306  0.00  0.00    +0.000 N 
ATOM     35  C   UNL     1      49.081   5.555  16.835  0.00  0.00    +0.000 A 
ATOM     36  O   UNL     1      48.533   5.717  15.750  0.00  0.00    +0.000 OA
ATOM     37  C   UNL     1      49.460   6.636  17.724  0.00  0.00    +0.000 A 
ATOM     38  H   UNL     1      49.116   3.527  16.706  0.00  0.00    +0.000 HD
ENDBRANCH  25  28
ENDBRANCH  23  24
ENDBRANCH   4  23
TORSDOF 7
ENDMDL
MODEL 2
REMARK VINA RESULT:    -7.955      3.085      4.356
REMARK INTER + INTRA:         -12.608
REMARK INTER:                 -11.811
REMARK INTRA:                  -0.797
REMARK UNBOUND:                -1.397
REMARK  Name = 
REMARK  7 active torsions:
REMARK  status: ('A' for Active; 'I' for Inactive)
REMARK    1  A    between atoms: C_2  and  C_4
REMARK    2  A    between atoms: C_4  and  N_5
REMARK    3  A    between atoms: C_4  and  C_28
REMARK    4  A    between atoms: C_6  and  C_8
REMARK    5  A    between atoms: C_11  and  C_12
REMARK    6  A    between atoms: C_12  and  N_13
REMARK    7  A    between atoms: C_14  and  C_16
REMARK                            x       y       z     vdW  Elec       q    Type
REMARK                         _______ _______ _______ _____ _____    ______ ____
ROOT
ATOM      1  C   UNL     1      47.186   5.754  13.834  0.00  0.00    +0.000 A 
ATOM      2  C   UNL     1      48.133   6.592  14.441  0.00  0.00    +0.000 A 
ATOM      3  C   UNL     1      48.665   6.266  15.694  0.00  0.00    +0.000 A 
ATOM      4  C   UNL     1      48.265   5.099  16.359  0.00  0.00    +0.000 A 
ATOM      5  C   UNL     1      47.296   4.279  15.759  0.00  0.00    +0.000 A 
ATOM      6  C   UNL     1      46.761   4.604  14.506  0.00  0.00    +0.000 A 
ENDROOT
BRANCH   1   8
ATOM      7  N   UNL     1      45.494   5.331  12.142  0.00  0.00    +0.000 N 
ATOM      8  C   UNL     1      46.584   6.086  12.507  0.00  0.00    +0.000 C 
ATOM      9  O   UNL     1      47.043   6.984  11.811  0.00  0.00    +0.000 OA
ATOM     10  H   UNL     1      44.974   4.877  12.879  0.00  0.00    +0.000 HD
BRANCH   7  11
ATOM     11  C   UNL     1      44.755   5.583  10.910  0.00  0.00    +0.000 C 
BRANCH  11  12
ATOM     12  C   UNL     1      45.025   4.448   9.931  0.00  0.00    +0.000 A 
ATOM     13  C   UNL     1      44.651   3.133  10.249  0.00  0.00    +0.000 A 
ATOM     14  C   UNL     1      44.826   2.101   9.323  0.00  0.00    +0.000 A 
ATOM     15  C   UNL     1      45.372   2.370   8.069  0.00  0.00    +0.000 A 
ATOM     16  C   UNL     1      45.767   3.665   7.746  0.00  0.00    +0.000 A 
ATOM     17  C   UNL     1      45.604   4.696   8.673  0.00  0.00    +0.000 A 
ENDBRANCH  11  12
BRANCH  11  19
ATOM     18  N   UNL     1      42.710   6.964  11.114  0.00  0.00    +0.000 N 
ATOM     19  C   UNL     1      43.243   5.709  11.223  0.00  0.00    +0.000 C 
ATOM     20  O   UNL     1      42.520   4.751  11.495  0.00  0.00    +0.000 OA
ATOM     21  H   UNL     1      41.736   7.075  11.367  0.00  0.00    +0.000 HD
ATOM     22  H   UNL     1      43.286   7.794  11.080  0.00  0.00    +0.000 HD
ENDBRANCH  11  19
ENDBRANCH   7  11
ENDBRANCH   1   8
BRANCH   4  23
ATOM     23  C   UNL     1      48.799   4.771  17.732  0.00  0.00    +0.000 C 
BRANCH  23  24
ATOM     24  N   UNL     1      50.142   4.254  17.641  0.00  0.00    +0.000 N 
ATOM     25  C   UNL     1      51.014   4.310  18.696  0.00  0.00    +0.000 C 
ATOM     26  O   UNL     1      50.686   4.758  19.791  0.00  0.00    +0.000 OA
ATOM     27  H   UNL     1      50.505   4.105  16.705  0.00  0.00    +0.000 HD
BRANCH  25  28
ATOM     28  C   UNL     1      52.349   3.740  18.466  0.00  0.00    +0.000 A 
ATOM     29  C   UNL     1      53.480   4.486  18.764  0.00  0.00    +0.000 A 
ATOM     30  S   UNL     1      54.944   3.645  18.510  0.00  0.00    +0.000 S 
ATOM     31  C   UNL     1      54.118   2.271  17.938  0.00  0.00    +0.000 A 
ATOM     32  N   UNL     1      54.797   1.166  17.529  0.00  0.00    +0.000 NA
ATOM     33  C   UNL     1      54.047   0.211  17.089  0.00  0.00    +0.000 A 
ATOM     34  N   UNL     1      52.679   0.260  17.024  0.00  0.00    +0.000 N 
ATOM     35  C   UNL     1      51.950   1.346  17.447  0.00  0.00    +0.000 A 
ATOM     36  O   UNL     1      50.725   1.346  17.402  0.00  0.00    +0.000 OA
ATOM     37  C   UNL     1      52.746   2.449  17.949  0.00  0.00    +0.000 A 
ATOM     38  H   UNL     1      52.148  -0.522  16.671  0.00  0.00    +0.000 HD
ENDBRANCH  25  28
ENDBRANCH  23  24
ENDBRANCH   4  23
TORSDOF 7
ENDMDL
MODEL 3
REMARK VINA RESULT:    -7.914      1.963      2.363
REMARK INTER + INTRA:         -12.550
REMARK INTER:                 -11.745
REMARK INTRA:                  -0.805
REMARK UNBOUND:                -1.397
REMARK  Name = 
REMARK  7 active torsions:
REMARK  status: ('A' for Active; 'I' for Inactive)
REMARK    1  A    between atoms: C_2  and  C_4
REMARK    2  A    between atoms: C_4  and  N_5
REMARK    3  A    between atoms: C_4  and  C_28
REMARK    4  A    between atoms: C_6  and  C_8
REMARK    5  A    between atoms: C_11  and  C_12
REMARK    6  A    between atoms: C_12  and  N_13
REMARK    7  A    between atoms: C_14  and  C_16
REMARK                            x       y       z     vdW  Elec       q    Type
REMARK                         _______ _______ _______ _____ _____    ______ ____
ROOT
ATOM      1  C   UNL     1      46.489   6.709  12.882  0.00  0.00    +0.000 A 
ATOM      2  C   UNL     1      46.801   8.072  12.988  0.00  0.00    +0.000 A 
ATOM      3  C   UNL     1      47.796   8.503  13.873  0.00  0.00    +0.000 A 
ATOM      4  C   UNL     1      48.498   7.582  14.662  0.00  0.00    +0.000 A 
ATOM      5  C   UNL     1      48.163   6.222  14.572  0.00  0.00    +0.000 A 
ATOM      6  C   UNL     1      47.166   5.789  13.688  0.00  0.00    +0.000 A 
ENDROOT
BRANCH   1   8
ATOM      7  N   UNL     1      45.369   4.858  11.774  0.00  0.00    +0.000 N 
ATOM      8  C   UNL     1      45.417   6.219  11.962  0.00  0.00    +0.000 C 
ATOM      9  O   UNL     1      44.636   6.999  11.430  0.00  0.00    +0.000 OA
ATOM     10  H   UNL     1      45.786   4.275  12.484  0.00  0.00    +0.000 HD
BRANCH   7  11
ATOM     11  C   UNL     1      44.337   4.225  10.962  0.00  0.00    +0.000 C 
BRANCH  11  12
ATOM     12  C   UNL     1      44.981   3.629   9.718  0.00  0.00    +0.000 A 
ATOM     13  C   UNL     1      45.509   4.466   8.722  0.00  0.00    +0.000 A 
ATOM     14  C   UNL     1      46.170   3.925   7.616  0.00  0.00    +0.000 A 
ATOM     15  C   UNL     1      46.315   2.545   7.493  0.00  0.00    +0.000 A 
ATOM     16  C   UNL     1      45.780   1.701   8.461  0.00  0.00    +0.000 A 
ATOM     17  C   UNL     1      45.110   2.237   9.561  0.00  0.00    +0.000 A 
ENDBRANCH  11  12
BRANCH  11  19
ATOM     18  N   UNL     1      43.802   3.188  13.147  0.00  0.00    +0.000 N 
ATOM     19  C   UNL     1      43.609   3.139  11.794  0.00  0.00    +0.000 C 
ATOM     20  O   UNL     1      42.846   2.305  11.308  0.00  0.00    +0.000 OA
ATOM     21  H   UNL     1      43.378   2.455  13.701  0.00  0.00    +0.000 HD
ATOM     22  H   UNL     1      44.552   3.723  13.566  0.00  0.00    +0.000 HD
ENDBRANCH  11  19
ENDBRANCH   7  11
ENDBRANCH   1   8
BRANCH   4  23
ATOM     23  C   UNL     1      49.536   8.049  15.653  0.00  0.00    +0.000 C 
BRANCH  23  24
ATOM     24  N   UNL     1      50.411   6.964  16.017  0.00  0.00    +0.000 N 
ATOM     25  C   UNL     1      50.445   6.453  17.289  0.00  0.00    +0.000 C 
ATOM     26  O   UNL     1      49.698   6.859  18.174  0.00  0.00    +0.000 OA
ATOM     27  H   UNL     1      51.186   6.779  15.388  0.00  0.00    +0.000 HD
BRANCH  25  28
ATOM     28  C   UNL     1      51.380   5.344  17.518  0.00  0.00    +0.000 A 
ATOM     29  C   UNL     1      52.697   5.611  17.868  0.00  0.00    +0.000 A 
ATOM     30  S   UNL     1      53.623   4.210  18.173  0.00  0.00    +0.000 S 
ATOM     31  C   UNL     1      52.311   3.194  17.794  0.00  0.00    +0.000 A 
ATOM     32  N   UNL     1      52.436   1.840  17.843  0.00  0.00    +0.000 NA
ATOM     33  C   UNL     1      51.373   1.193  17.499  0.00  0.00    +0.000 A 
ATOM     34  N   UNL     1      50.194   1.777  17.116  0.00  0.00    +0.000 N 
ATOM     35  C   UNL     1      50.014   3.138  17.074  0.00  0.00    +0.000 A 
ATOM     36  O   UNL     1      48.936   3.628  16.754  0.00  0.00    +0.000 OA
ATOM     37  C   UNL     1      51.181   3.914  17.449  0.00  0.00    +0.000 A 
ATOM     38  H   UNL     1      49.396   1.214  16.860  0.00  0.00    +0.000 HD
ENDBRANCH  25  28
ENDBRANCH  23  24
ENDBRANCH   4  23
TORSDOF 7
ENDMDL
MODEL 4
REMARK VINA RESULT:    -7.885      4.072      5.105
REMARK INTER + INTRA:         -12.509
REMARK INTER:                 -11.291
REMARK INTRA:                  -1.218
REMARK UNBOUND:                -1.397
REMARK  Name = 
REMARK  7 active torsions:
REMARK  status: ('A' for Active; 'I' for Inactive)
REMARK    1  A    between atoms: C_2  and  C_4
REMARK    2  A    between atoms: C_4  and  N_5
REMARK    3  A    between atoms: C_4  and  C_28
REMARK    4  A    between atoms: C_6  and  C_8
REMARK    5  A    between atoms: C_11  and  C_12
REMARK    6  A    between atoms: C_12  and  N_13
REMARK    7  A    between atoms: C_14  and  C_16
REMARK                            x       y       z     vdW  Elec       q    Type
REMARK                         _______ _______ _______ _____ _____    ______ ____
ROOT
ATOM      1  C   UNL     1      45.427   7.216  11.803  0.00  0.00    +0.000 A 
ATOM      2  C   UNL     1      46.659   6.880  12.382  0.00  0.00    +0.000 A 
ATOM      3  C   UNL     1      47.516   7.882  12.852  0.00  0.00    +0.000 A 
ATOM      4  C   UNL     1      47.157   9.233  12.755  0.00  0.00    +0.000 A 
ATOM      5  C   UNL     1      45.934   9.565  12.149  0.00  0.00    +0.000 A 
ATOM      6  C   UNL     1      45.076   8.564  11.677  0.00  0.00    +0.000 A 
ENDROOT
BRANCH   1   8
ATOM      7  N   UNL     1      45.102   5.092  10.669  0.00  0.00    +0.000 N 
ATOM      8  C   UNL     1      44.500   6.170  11.273  0.00  0.00    +0.000 C 
ATOM      9  O   UNL     1      43.286   6.284  11.390  0.00  0.00    +0.000 OA
ATOM     10  H   UNL     1      46.061   4.897  10.913  0.00  0.00    +0.000 HD
BRANCH   7  11
ATOM     11  C   UNL     1      44.334   3.958  10.166  0.00  0.00    +0.000 C 
BRANCH  11  12
ATOM     12  C   UNL     1      45.135   3.263   9.074  0.00  0.00    +0.000 A 
ATOM     13  C   UNL     1      45.796   4.016   8.090  0.00  0.00    +0.000 A 
ATOM     14  C   UNL     1      46.595   3.387   7.132  0.00  0.00    +0.000 A 
ATOM     15  C   UNL     1      46.748   2.002   7.146  0.00  0.00    +0.000 A 
ATOM     16  C   UNL     1      46.083   1.240   8.102  0.00  0.00    +0.000 A 
ATOM     17  C   UNL     1      45.275   1.864   9.054  0.00  0.00    +0.000 A 
ENDBRANCH  11  12
BRANCH  11  19
ATOM     18  N   UNL     1      44.990   2.826  12.268  0.00  0.00    +0.000 N 
ATOM     19  C   UNL     1      44.009   2.989  11.330  0.00  0.00    +0.000 C 
ATOM     20  O   UNL     1      42.921   2.429  11.467  0.00  0.00    +0.000 OA
ATOM     21  H   UNL     1      44.816   2.155  13.006  0.00  0.00    +0.000 HD
ATOM     22  H   UNL     1      45.947   3.108  12.104  0.00  0.00    +0.000 HD
ENDBRANCH  11  19
ENDBRANCH   7  11
ENDBRANCH   1   8
BRANCH   4  23
ATOM     23  C   UNL     1      48.101  10.317  13.215  0.00  0.00    +0.000 C 
BRANCH  23  24
ATOM     24  N   UNL     1      49.389  10.165  12.586  0.00  0.00    +0.000 N 
ATOM     25  C   UNL     1      49.640  10.631  11.322  0.00  0.00    +0.000 C 
ATOM     26  O   UNL     1      48.798  11.246  10.675  0.00  0.00    +0.000 OA
ATOM     27  H   UNL     1      50.008   9.470  12.990  0.00  0.00    +0.000 HD
BRANCH  25  28
ATOM     28  C   UNL     1      50.999  10.412  10.808  0.00  0.00    +0.000 A 
ATOM     29  C   UNL     1      51.761  11.493  10.386  0.00  0.00    +0.000 A 
ATOM     30  S   UNL     1      53.339  11.069   9.894  0.00  0.00    +0.000 S 
ATOM     31  C   UNL     1      53.042   9.417  10.174  0.00  0.00    +0.000 A 
ATOM     32  N   UNL     1      54.000   8.482   9.934  0.00  0.00    +0.000 NA
ATOM     33  C   UNL     1      53.627   7.266  10.159  0.00  0.00    +0.000 A 
ATOM     34  N   UNL     1      52.385   6.900  10.606  0.00  0.00    +0.000 N 
ATOM     35  C   UNL     1      51.394   7.811  10.883  0.00  0.00    +0.000 A 
ATOM     36  O   UNL     1      50.301   7.452  11.309  0.00  0.00    +0.000 OA
ATOM     37  C   UNL     1      51.760   9.194  10.644  0.00  0.00    +0.000 A 
ATOM     38  H   UNL     1      52.155   5.930  10.764  0.00  0.00    +0.000 HD
ENDBRANCH  25  28
ENDBRANCH  23  24
ENDBRANCH   4  23
TORSDOF 7
ENDMDL
MODEL 5
REMARK VINA RESULT:    -7.440      2.590      3.896
REMARK INTER + INTRA:         -11.881
REMARK INTER:                 -10.961
REMARK INTRA:                  -0.921
REMARK UNBOUND:                -1.397
REMARK  Name = 
REMARK  7 active torsions:
REMARK  status: ('A' for Active; 'I' for Inactive)
REMARK    1  A    between atoms: C_2  and  C_4
REMARK    2  A    between atoms: C_4  and  N_5
REMARK    3  A    between atoms: C_4  and  C_28
REMARK    4  A    between atoms: C_6  and  C_8
REMARK    5  A    between atoms: C_11  and  C_12
REMARK    6  A    between atoms: C_12  and  N_13
REMARK    7  A    between atoms: C_14  and  C_16
REMARK                            x       y       z     vdW  Elec       q    Type
REMARK                         _______ _______ _______ _____ _____    ______ ____
ROOT
ATOM      1  C   UNL     1      47.138   5.759  13.664  0.00  0.00    +0.000 A 
ATOM      2  C   UNL     1      46.754   4.625  14.396  0.00  0.00    +0.000 A 
ATOM      3  C   UNL     1      47.328   4.362  15.645  0.00  0.00    +0.000 A 
ATOM      4  C   UNL     1      48.290   5.227  16.186  0.00  0.00    +0.000 A 
ATOM      5  C   UNL     1      48.690   6.345  15.437  0.00  0.00    +0.000 A 
ATOM      6  C   UNL     1      48.118   6.609  14.186  0.00  0.00    +0.000 A 
ENDROOT
BRANCH   1   8
ATOM      7  N   UNL     1      45.468   5.299  11.960  0.00  0.00    +0.000 N 
ATOM      8  C   UNL     1      46.559   6.055  12.319  0.00  0.00    +0.000 C 
ATOM      9  O   UNL     1      47.037   6.927  11.603  0.00  0.00    +0.000 OA
ATOM     10  H   UNL     1      44.933   4.873  12.702  0.00  0.00    +0.000 HD
BRANCH   7  11
ATOM     11  C   UNL     1      44.750   5.519  10.709  0.00  0.00    +0.000 C 
BRANCH  11  12
ATOM     12  C   UNL     1      45.100   4.403   9.735  0.00  0.00    +0.000 A 
ATOM     13  C   UNL     1      45.756   4.694   8.528  0.00  0.00    +0.000 A 
ATOM     14  C   UNL     1      46.147   3.666   7.667  0.00  0.00    +0.000 A 
ATOM     15  C   UNL     1      45.894   2.337   8.000  0.00  0.00    +0.000 A 
ATOM     16  C   UNL     1      45.227   2.033   9.183  0.00  0.00    +0.000 A 
ATOM     17  C   UNL     1      44.824   3.058  10.041  0.00  0.00    +0.000 A 
ENDBRANCH  11  12
BRANCH  11  19
ATOM     18  N   UNL     1      42.682   6.819  11.118  0.00  0.00    +0.000 N 
ATOM     19  C   UNL     1      43.226   5.572  10.982  0.00  0.00    +0.000 C 
ATOM     20  O   UNL     1      42.505   4.575  11.020  0.00  0.00    +0.000 OA
ATOM     21  H   UNL     1      41.699   6.871  11.351  0.00  0.00    +0.000 HD
ATOM     22  H   UNL     1      43.249   7.640  11.281  0.00  0.00    +0.000 HD
ENDBRANCH  11  19
ENDBRANCH   7  11
ENDBRANCH   1   8
BRANCH   4  23
ATOM     23  C   UNL     1      48.947   4.919  17.509  0.00  0.00    +0.000 C 
BRANCH  23  24
ATOM     24  N   UNL     1      48.747   6.004  18.437  0.00  0.00    +0.000 N 
ATOM     25  C   UNL     1      47.547   6.211  19.065  0.00  0.00    +0.000 C 
ATOM     26  O   UNL     1      46.591   5.456  18.909  0.00  0.00    +0.000 OA
ATOM     27  H   UNL     1      49.423   6.759  18.398  0.00  0.00    +0.000 HD
BRANCH  25  28
ATOM     28  C   UNL     1      47.486   7.351  19.989  0.00  0.00    +0.000 A 
ATOM     29  C   UNL     1      47.312   7.131  21.348  0.00  0.00    +0.000 A 
ATOM     30  S   UNL     1      47.344   8.558  22.284  0.00  0.00    +0.000 S 
ATOM     31  C   UNL     1      47.535   9.528  20.898  0.00  0.00    +0.000 A 
ATOM     32  N   UNL     1      47.619  10.882  20.996  0.00  0.00    +0.000 NA
ATOM     33  C   UNL     1      47.730  11.493  19.864  0.00  0.00    +0.000 A 
ATOM     34  N   UNL     1      47.769  10.873  18.643  0.00  0.00    +0.000 N 
ATOM     35  C   UNL     1      47.711   9.508  18.497  0.00  0.00    +0.000 A 
ATOM     36  O   UNL     1      47.778   8.984  17.390  0.00  0.00    +0.000 OA
ATOM     37  C   UNL     1      47.583   8.772  19.740  0.00  0.00    +0.000 A 
ATOM     38  H   UNL     1      47.859  11.408  17.792  0.00  0.00    +0.000 HD
ENDBRANCH  25  28
ENDBRANCH  23  24
ENDBRANCH   4  23
TORSDOF 7
ENDMDL
MODEL 6
REMARK VINA RESULT:    -7.332      1.583      1.790
REMARK INTER + INTRA:         -11.729
REMARK INTER:                 -10.611
REMARK INTRA:                  -1.118
REMARK UNBOUND:                -1.397
REMARK  Name = 
REMARK  7 active torsions:
REMARK  status: ('A' for Active; 'I' for Inactive)
REMARK    1  A    between atoms: C_2  and  C_4
REMARK    2  A    between atoms: C_4  and  N_5
REMARK    3  A    between atoms: C_4  and  C_28
REMARK    4  A    between atoms: C_6  and  C_8
REMARK    5  A    between atoms: C_11  and  C_12
REMARK    6  A    between atoms: C_12  and  N_13
REMARK    7  A    between atoms: C_14  and  C_16
REMARK                            x       y       z     vdW  Elec       q    Type
REMARK                         _______ _______ _______ _____ _____    ______ ____
ROOT
ATOM      1  C   UNL     1      46.831   6.618  12.445  0.00  0.00    +0.000 A 
ATOM      2  C   UNL     1      47.247   5.997  13.631  0.00  0.00    +0.000 A 
ATOM      3  C   UNL     1      48.353   6.486  14.336  0.00  0.00    +0.000 A 
ATOM      4  C   UNL     1      49.060   7.603  13.870  0.00  0.00    +0.000 A 
ATOM      5  C   UNL     1      48.656   8.204  12.667  0.00  0.00    +0.000 A 
ATOM      6  C   UNL     1      47.550   7.715  11.960  0.00  0.00    +0.000 A 
ENDROOT
BRANCH   1   8
ATOM      7  N   UNL     1      45.810   4.842  11.137  0.00  0.00    +0.000 N 
ATOM      8  C   UNL     1      45.667   6.106  11.659  0.00  0.00    +0.000 C 
ATOM      9  O   UNL     1      44.657   6.784  11.512  0.00  0.00    +0.000 OA
ATOM     10  H   UNL     1      46.484   4.231  11.575  0.00  0.00    +0.000 HD
BRANCH   7  11
ATOM     11  C   UNL     1      44.735   4.179  10.408  0.00  0.00    +0.000 C 
BRANCH  11  12
ATOM     12  C   UNL     1      45.322   3.478   9.191  0.00  0.00    +0.000 A 
ATOM     13  C   UNL     1      45.809   4.225   8.107  0.00  0.00    +0.000 A 
ATOM     14  C   UNL     1      46.418   3.589   7.022  0.00  0.00    +0.000 A 
ATOM     15  C   UNL     1      46.552   2.202   7.007  0.00  0.00    +0.000 A 
ATOM     16  C   UNL     1      46.055   1.445   8.064  0.00  0.00    +0.000 A 
ATOM     17  C   UNL     1      45.437   2.076   9.145  0.00  0.00    +0.000 A 
ENDBRANCH  11  12
BRANCH  11  19
ATOM     18  N   UNL     1      44.733   2.716  12.406  0.00  0.00    +0.000 N 
ATOM     19  C   UNL     1      44.010   3.177  11.341  0.00  0.00    +0.000 C 
ATOM     20  O   UNL     1      42.834   2.841  11.198  0.00  0.00    +0.000 OA
ATOM     21  H   UNL     1      44.294   2.020  12.995  0.00  0.00    +0.000 HD
ATOM     22  H   UNL     1      45.738   2.812  12.458  0.00  0.00    +0.000 HD
ENDBRANCH  11  19
ENDBRANCH   7  11
ENDBRANCH   1   8
BRANCH   4  23
ATOM     23  C   UNL     1      50.282   8.102  14.601  0.00  0.00    +0.000 C 
BRANCH  23  24
ATOM     24  N   UNL     1      50.205   7.769  16.001  0.00  0.00    +0.000 N 
ATOM     25  C   UNL     1      51.278   7.262  16.687  0.00  0.00    +0.000 C 
ATOM     26  O   UNL     1      52.376   7.110  16.160  0.00  0.00    +0.000 OA
ATOM     27  H   UNL     1      49.273   7.659  16.387  0.00  0.00    +0.000 HD
BRANCH  25  28
ATOM     28  C   UNL     1      51.060   6.972  18.111  0.00  0.00    +0.000 A 
ATOM     29  C   UNL     1      51.636   7.784  19.078  0.00  0.00    +0.000 A 
ATOM     30  S   UNL     1      51.215   7.353  20.675  0.00  0.00    +0.000 S 
ATOM     31  C   UNL     1      50.293   6.029  20.133  0.00  0.00    +0.000 A 
ATOM     32  N   UNL     1      49.657   5.211  21.013  0.00  0.00    +0.000 NA
ATOM     33  C   UNL     1      49.022   4.228  20.466  0.00  0.00    +0.000 A 
ATOM     34  N   UNL     1      48.961   3.993  19.118  0.00  0.00    +0.000 N 
ATOM     35  C   UNL     1      49.568   4.805  18.190  0.00  0.00    +0.000 A 
ATOM     36  O   UNL     1      49.469   4.582  16.989  0.00  0.00    +0.000 OA
ATOM     37  C   UNL     1      50.299   5.924  18.753  0.00  0.00    +0.000 A 
ATOM     38  H   UNL     1      48.445   3.207  18.751  0.00  0.00    +0.000 HD
ENDBRANCH  25  28
ENDBRANCH  23  24
ENDBRANCH   4  23
TORSDOF 7
ENDMDL
MODEL 7
REMARK VINA RESULT:    -6.983      3.755      5.742
REMARK INTER + INTRA:         -11.239
REMARK INTER:                 -10.319
REMARK INTRA:                  -0.920
REMARK UNBOUND:                -1.397
REMARK  Name = 
REMARK  7 active torsions:
REMARK  status: ('A' for Active; 'I' for Inactive)
REMARK    1  A    between atoms: C_2  and  C_4
REMARK    2  A    between atoms: C_4  and  N_5
REMARK    3  A    between atoms: C_4  and  C_28
REMARK    4  A    between atoms: C_6  and  C_8
REMARK    5  A    between atoms: C_11  and  C_12
REMARK    6  A    between atoms: C_12  and  N_13
REMARK    7  A    between atoms: C_14  and  C_16
REMARK                            x       y       z     vdW  Elec       q    Type
REMARK                         _______ _______ _______ _____ _____    ______ ____
ROOT
ATOM      1  C   UNL     1      45.406   8.194  12.406  0.00  0.00    +0.000 A 
ATOM      2  C   UNL     1      46.683   7.967  12.941  0.00  0.00    +0.000 A 
ATOM      3  C   UNL     1      47.033   6.700  13.422  0.00  0.00    +0.000 A 
ATOM      4  C   UNL     1      46.119   5.639  13.374  0.00  0.00    +0.000 A 
ATOM      5  C   UNL     1      44.833   5.879  12.862  0.00  0.00    +0.000 A 
ATOM      6  C   UNL     1      44.480   7.146  12.382  0.00  0.00    +0.000 A 
ENDROOT
BRANCH   1   8
ATOM      7  N   UNL     1      43.774   9.594  11.277  0.00  0.00    +0.000 N 
ATOM      8  C   UNL     1      44.996   9.540  11.904  0.00  0.00    +0.000 C 
ATOM      9  O   UNL     1      45.714  10.520  12.063  0.00  0.00    +0.000 OA
ATOM     10  H   UNL     1      43.109   8.865  11.488  0.00  0.00    +0.000 HD
BRANCH   7  11
ATOM     11  C   UNL     1      43.205  10.848  10.796  0.00  0.00    +0.000 C 
BRANCH  11  12
ATOM     12  C   UNL     1      43.888  11.235   9.493  0.00  0.00    +0.000 A 
ATOM     13  C   UNL     1      43.595  10.545   8.305  0.00  0.00    +0.000 A 
ATOM     14  C   UNL     1      44.162  10.946   7.093  0.00  0.00    +0.000 A 
ATOM     15  C   UNL     1      45.023  12.040   7.049  0.00  0.00    +0.000 A 
ATOM     16  C   UNL     1      45.340  12.723   8.220  0.00  0.00    +0.000 A 
ATOM     17  C   UNL     1      44.784  12.318   9.435  0.00  0.00    +0.000 A 
ENDBRANCH  11  12
BRANCH  11  19
ATOM     18  N   UNL     1      41.107   9.589  11.184  0.00  0.00    +0.000 N 
ATOM     19  C   UNL     1      41.675  10.690  10.605  0.00  0.00    +0.000 C 
ATOM     20  O   UNL     1      40.971  11.517  10.025  0.00  0.00    +0.000 OA
ATOM     21  H   UNL     1      40.119   9.441  11.023  0.00  0.00    +0.000 HD
ATOM     22  H   UNL     1      41.658   8.801  11.500  0.00  0.00    +0.000 HD
ENDBRANCH  11  19
ENDBRANCH   7  11
ENDBRANCH   1   8
BRANCH   4  23
ATOM     23  C   UNL     1      46.476   4.286  13.937  0.00  0.00    +0.000 C 
BRANCH  23  24
ATOM     24  N   UNL     1      47.593   4.395  14.842  0.00  0.00    +0.000 N 
ATOM     25  C   UNL     1      47.460   4.185  16.190  0.00  0.00    +0.000 C 
ATOM     26  O   UNL     1      46.394   3.845  16.694  0.00  0.00    +0.000 OA
ATOM     27  H   UNL     1      48.406   4.895  14.496  0.00  0.00    +0.000 HD
BRANCH  25  28
ATOM     28  C   UNL     1      48.683   4.324  16.992  0.00  0.00    +0.000 A 
ATOM     29  C   UNL     1      48.915   5.494  17.702  0.00  0.00    +0.000 A 
ATOM     30  S   UNL     1      50.339   5.456  18.641  0.00  0.00    +0.000 S 
ATOM     31  C   UNL     1      50.727   3.894  18.088  0.00  0.00    +0.000 A 
ATOM     32  N   UNL     1      51.858   3.264  18.504  0.00  0.00    +0.000 NA
ATOM     33  C   UNL     1      52.044   2.098  17.981  0.00  0.00    +0.000 A 
ATOM     34  N   UNL     1      51.198   1.503  17.082  0.00  0.00    +0.000 N 
ATOM     35  C   UNL     1      50.034   2.091  16.650  0.00  0.00    +0.000 A 
ATOM     36  O   UNL     1      49.284   1.518  15.867  0.00  0.00    +0.000 OA
ATOM     37  C   UNL     1      49.778   3.406  17.207  0.00  0.00    +0.000 A 
ATOM     38  H   UNL     1      51.399   0.587  16.709  0.00  0.00    +0.000 HD
ENDBRANCH  25  28
ENDBRANCH  23  24
ENDBRANCH   4  23
TORSDOF 7
ENDMDL
MODEL 8
REMARK VINA RESULT:    -6.744      2.716      4.137
REMARK INTER + INTRA:         -10.901
REMARK INTER:                  -9.917
REMARK INTRA:                  -0.984
REMARK UNBOUND:                -1.397
REMARK  Name = 
REMARK  7 active torsions:
REMARK  status: ('A' for Active; 'I' for Inactive)
REMARK    1  A    between atoms: C_2  and  C_4
REMARK    2  A    between atoms: C_4  and  N_5
REMARK    3  A    between atoms: C_4  and  C_28
REMARK    4  A    between atoms: C_6  and  C_8
REMARK    5  A    between atoms: C_11  and  C_12
REMARK    6  A    between atoms: C_12  and  N_13
REMARK    7  A    between atoms: C_14  and  C_16
REMARK                            x       y       z     vdW  Elec       q    Type
REMARK                         _______ _______ _______ _____ _____    ______ ____
ROOT
ATOM      1  C   UNL     1      47.225   5.684  14.007  0.00  0.00    +0.000 A 
ATOM      2  C   UNL     1      46.863   4.494  14.655  0.00  0.00    +0.000 A 
ATOM      3  C   UNL     1      47.428   4.163  15.892  0.00  0.00    +0.000 A 
ATOM      4  C   UNL     1      48.360   5.013  16.503  0.00  0.00    +0.000 A 
ATOM      5  C   UNL     1      48.739   6.189  15.836  0.00  0.00    +0.000 A 
ATOM      6  C   UNL     1      48.176   6.522  14.598  0.00  0.00    +0.000 A 
ENDROOT
BRANCH   1   8
ATOM      7  N   UNL     1      45.513   5.384  12.309  0.00  0.00    +0.000 N 
ATOM      8  C   UNL     1      46.655   6.055  12.676  0.00  0.00    +0.000 C 
ATOM      9  O   UNL     1      47.184   6.914  11.979  0.00  0.00    +0.000 OA
ATOM     10  H   UNL     1      44.958   4.973  13.045  0.00  0.00    +0.000 HD
BRANCH   7  11
ATOM     11  C   UNL     1      44.801   5.685  11.072  0.00  0.00    +0.000 C 
BRANCH  11  12
ATOM     12  C   UNL     1      44.980   4.526  10.102  0.00  0.00    +0.000 A 
ATOM     13  C   UNL     1      44.624   3.222  10.482  0.00  0.00    +0.000 A 
ATOM     14  C   UNL     1      44.714   2.167   9.570  0.00  0.00    +0.000 A 
ATOM     15  C   UNL     1      45.155   2.401   8.269  0.00  0.00    +0.000 A 
ATOM     16  C   UNL     1      45.531   3.684   7.883  0.00  0.00    +0.000 A 
ATOM     17  C   UNL     1      45.453   4.738   8.795  0.00  0.00    +0.000 A 
ENDBRANCH  11  12
BRANCH  11  19
ATOM     18  N   UNL     1      42.825   7.178  11.059  0.00  0.00    +0.000 N 
ATOM     19  C   UNL     1      43.303   5.938  11.379  0.00  0.00    +0.000 C 
ATOM     20  O   UNL     1      42.545   5.078  11.826  0.00  0.00    +0.000 OA
ATOM     21  H   UNL     1      41.863   7.378  11.302  0.00  0.00    +0.000 HD
ATOM     22  H   UNL     1      43.437   7.961  10.872  0.00  0.00    +0.000 HD
ENDBRANCH  11  19
ENDBRANCH   7  11
ENDBRANCH   1   8
BRANCH   4  23
ATOM     23  C   UNL     1      49.008   4.634  17.812  0.00  0.00    +0.000 C 
BRANCH  23  24
ATOM     24  N   UNL     1      49.256   5.807  18.612  0.00  0.00    +0.000 N 
ATOM     25  C   UNL     1      50.052   5.771  19.727  0.00  0.00    +0.000 C 
ATOM     26  O   UNL     1      50.636   4.750  20.078  0.00  0.00    +0.000 OA
ATOM     27  H   UNL     1      48.612   6.581  18.487  0.00  0.00    +0.000 HD
BRANCH  25  28
ATOM     28  C   UNL     1      50.222   7.042  20.444  0.00  0.00    +0.000 A 
ATOM     29  C   UNL     1      51.493   7.568  20.628  0.00  0.00    +0.000 A 
ATOM     30  S   UNL     1      51.501   9.085  21.410  0.00  0.00    +0.000 S 
ATOM     31  C   UNL     1      49.808   9.067  21.582  0.00  0.00    +0.000 A 
ATOM     32  N   UNL     1      49.155  10.090  22.195  0.00  0.00    +0.000 NA
ATOM     33  C   UNL     1      47.877   9.930  22.285  0.00  0.00    +0.000 A 
ATOM     34  N   UNL     1      47.191   8.841  21.813  0.00  0.00    +0.000 N 
ATOM     35  C   UNL     1      47.805   7.795  21.168  0.00  0.00    +0.000 A 
ATOM     36  O   UNL     1      47.159   6.849  20.733  0.00  0.00    +0.000 OA
ATOM     37  C   UNL     1      49.245   7.924  21.042  0.00  0.00    +0.000 A 
ATOM     38  H   UNL     1      46.189   8.776  21.913  0.00  0.00    +0.000 HD
ENDBRANCH  25  28
ENDBRANCH  23  24
ENDBRANCH   4  23
TORSDOF 7
ENDMDL
MODEL 9
REMARK VINA RESULT:    -6.678      2.597      3.998
REMARK INTER + INTRA:         -10.808
REMARK INTER:                  -9.717
REMARK INTRA:                  -1.091
REMARK UNBOUND:                -1.397
REMARK  Name = 
REMARK  7 active torsions:
REMARK  status: ('A' for Active; 'I' for Inactive)
REMARK    1  A    between atoms: C_2  and  C_4
REMARK    2  A    between atoms: C_4  and  N_5
REMARK    3  A    between atoms: C_4  and  C_28
REMARK    4  A    between atoms: C_6  and  C_8
REMARK    5  A    between atoms: C_11  and  C_12
REMARK    6  A    between atoms: C_12  and  N_13
REMARK    7  A    between atoms: C_14  and  C_16
REMARK                            x       y       z     vdW  Elec       q    Type
REMARK                         _______ _______ _______ _____ _____    ______ ____
ROOT
ATOM      1  C   UNL     1      47.213   5.508  14.027  0.00  0.00    +0.000 A 
ATOM      2  C   UNL     1      48.100   6.315  14.754  0.00  0.00    +0.000 A 
ATOM      3  C   UNL     1      48.578   5.895  16.001  0.00  0.00    +0.000 A 
ATOM      4  C   UNL     1      48.183   4.664  16.541  0.00  0.00    +0.000 A 
ATOM      5  C   UNL     1      47.273   3.873  15.821  0.00  0.00    +0.000 A 
ATOM      6  C   UNL     1      46.792   4.291  14.574  0.00  0.00    +0.000 A 
ENDROOT
BRANCH   1   8
ATOM      7  N   UNL     1      45.497   5.331  12.316  0.00  0.00    +0.000 N 
ATOM      8  C   UNL     1      46.668   5.938  12.704  0.00  0.00    +0.000 C 
ATOM      9  O   UNL     1      47.241   6.786  12.030  0.00  0.00    +0.000 OA
ATOM     10  H   UNL     1      44.919   4.931  13.039  0.00  0.00    +0.000 HD
BRANCH   7  11
ATOM     11  C   UNL     1      44.807   5.696  11.084  0.00  0.00    +0.000 C 
BRANCH  11  12
ATOM     12  C   UNL     1      45.037   4.607  10.046  0.00  0.00    +0.000 A 
ATOM     13  C   UNL     1      45.715   4.897   8.851  0.00  0.00    +0.000 A 
ATOM     14  C   UNL     1      45.997   3.885   7.930  0.00  0.00    +0.000 A 
ATOM     15  C   UNL     1      45.609   2.572   8.191  0.00  0.00    +0.000 A 
ATOM     16  C   UNL     1      44.918   2.271   9.361  0.00  0.00    +0.000 A 
ATOM     17  C   UNL     1      44.625   3.282  10.278  0.00  0.00    +0.000 A 
ENDBRANCH  11  12
BRANCH  11  19
ATOM     18  N   UNL     1      42.771   7.106  11.017  0.00  0.00    +0.000 N 
ATOM     19  C   UNL     1      43.296   5.893  11.369  0.00  0.00    +0.000 C 
ATOM     20  O   UNL     1      42.568   5.012  11.827  0.00  0.00    +0.000 OA
ATOM     21  H   UNL     1      41.799   7.271  11.246  0.00  0.00    +0.000 HD
ATOM     22  H   UNL     1      43.353   7.909  10.819  0.00  0.00    +0.000 HD
ENDBRANCH  11  19
ENDBRANCH   7  11
ENDBRANCH   1   8
BRANCH   4  23
ATOM     23  C   UNL     1      48.657   4.232  17.906  0.00  0.00    +0.000 C 
BRANCH  23  24
ATOM     24  N   UNL     1      49.942   4.814  18.202  0.00  0.00    +0.000 N 
ATOM     25  C   UNL     1      50.340   5.081  19.486  0.00  0.00    +0.000 C 
ATOM     26  O   UNL     1      49.646   4.794  20.457  0.00  0.00    +0.000 OA
ATOM     27  H   UNL     1      50.419   5.270  17.431  0.00  0.00    +0.000 HD
BRANCH  25  28
ATOM     28  C   UNL     1      51.677   5.670  19.642  0.00  0.00    +0.000 A 
ATOM     29  C   UNL     1      52.673   4.960  20.298  0.00  0.00    +0.000 A 
ATOM     30  S   UNL     1      54.182   5.758  20.319  0.00  0.00    +0.000 S 
ATOM     31  C   UNL     1      53.543   7.106  19.502  0.00  0.00    +0.000 A 
ATOM     32  N   UNL     1      54.322   8.182  19.209  0.00  0.00    +0.000 NA
ATOM     33  C   UNL     1      53.701   9.146  18.616  0.00  0.00    +0.000 A 
ATOM     34  N   UNL     1      52.371   9.130  18.285  0.00  0.00    +0.000 N 
ATOM     35  C   UNL     1      51.551   8.058  18.541  0.00  0.00    +0.000 A 
ATOM     36  O   UNL     1      50.372   8.065  18.205  0.00  0.00    +0.000 OA
ATOM     37  C   UNL     1      52.201   6.946  19.209  0.00  0.00    +0.000 A 
ATOM     38  H   UNL     1      51.943   9.917  17.820  0.00  0.00    +0.000 HD
ENDBRANCH  25  28
ENDBRANCH  23  24
ENDBRANCH   4  23
TORSDOF 7
ENDMDL
