MODEL 1
REMARK VINA RESULT:    -8.346      0.000      0.000
REMARK INTER + INTRA:         -12.869
REMARK INTER:                 -11.762
REMARK INTRA:                  -1.107
REMARK UNBOUND:                -1.107
REMARK  Name = 
REMARK  8 active torsions:
REMARK  status: ('A' for Active; 'I' for Inactive)
REMARK    1  A    between atoms: C_1  and  C_2
REMARK    2  A    between atoms: C_2  and  C_3
REMARK    3  A    between atoms: C_2  and  C_14
REMARK    4  A    between atoms: C_3  and  O_4
REMARK    5  A    between atoms: O_4  and  C_5
REMARK    6  A    between atoms: C_8  and  C_9
REMARK    7  A    between atoms: C_18  and  O_19
REMARK    8  A    between atoms: O_19  and  C_20
REMARK                            x       y       z     vdW  Elec       q    Type
REMARK                         _______ _______ _______ _____ _____    ______ ____
ROOT
ATOM      1  C   UNL     1      42.834   5.494  12.087  0.00  0.00    +0.000 C 
ATOM      2  C   UNL     1      43.821   4.460  12.632  0.00  0.00    +0.000 C 
ENDROOT
BRANCH   2   3
ATOM      3  C   UNL     1      45.226   5.035  12.758  0.00  0.00    +0.000 A 
ATOM      4  C   UNL     1      45.730   5.904  11.784  0.00  0.00    +0.000 A 
ATOM      5  C   UNL     1      46.984   6.498  11.948  0.00  0.00    +0.000 A 
ATOM      6  C   UNL     1      47.752   6.234  13.085  0.00  0.00    +0.000 A 
ATOM      7  C   UNL     1      47.271   5.355  14.051  0.00  0.00    +0.000 A 
ATOM      8  C   UNL     1      46.020   4.759  13.884  0.00  0.00    +0.000 A 
BRANCH   7   9
ATOM      9  O   UNL     1      47.909   5.038  15.223  0.00  0.00    +0.000 OA
BRANCH   9  10
ATOM     10  C   UNL     1      47.280   4.106  16.128  0.00  0.00    +0.000 C 
ATOM     11  C   UNL     1      47.260   4.457  17.622  0.00  0.00    +0.000 C 
ATOM     12  O   UNL     1      47.958   3.240  17.974  0.00  0.00    +0.000 OA
ATOM     13  C   UNL     1      48.166   2.934  16.576  0.00  0.00    +0.000 C 
ENDBRANCH   9  10
ENDBRANCH   7   9
ENDBRANCH   2   3
BRANCH   2  14
ATOM     14  C   UNL     1      43.874   3.174  11.781  0.00  0.00    +0.000 C 
BRANCH  14  15
ATOM     15  O   UNL     1      43.423   3.409  10.442  0.00  0.00    +0.000 OA
BRANCH  15  16
ATOM     16  C   UNL     1      44.380   3.228   9.479  0.00  0.00    +0.000 A 
ATOM     17  C   UNL     1      44.896   4.231   8.654  0.00  0.00    +0.000 A 
ATOM     18  C   UNL     1      45.889   3.924   7.728  0.00  0.00    +0.000 A 
ATOM     19  C   UNL     1      46.350   2.618   7.663  0.00  0.00    +0.000 A 
ATOM     20  N   UNL     1      45.885   1.610   8.452  0.00  0.00    +0.000 NA
ATOM     21  C   UNL     1      44.915   1.950   9.342  0.00  0.00    +0.000 A 
BRANCH  19  22
ATOM     22  C   UNL     1      47.435   2.278   6.688  0.00  0.00    +0.000 C 
ATOM     23  N   UNL     1      47.555   3.119   5.617  0.00  0.00    +0.000 N 
ATOM     24  O   UNL     1      48.171   1.307   6.829  0.00  0.00    +0.000 OA
ATOM     25  H   UNL     1      46.918   3.899   5.526  0.00  0.00    +0.000 HD
ATOM     26  H   UNL     1      48.252   2.937   4.910  0.00  0.00    +0.000 HD
ENDBRANCH  19  22
ENDBRANCH  15  16
ENDBRANCH  14  15
ENDBRANCH   2  14
TORSDOF 7
ENDMDL
MODEL 2
REMARK VINA RESULT:    -7.213      3.146      7.601
REMARK INTER + INTRA:         -11.272
REMARK INTER:                 -10.412
REMARK INTRA:                  -0.859
REMARK UNBOUND:                -1.107
REMARK  Name = 
REMARK  8 active torsions:
REMARK  status: ('A' for Active; 'I' for Inactive)
REMARK    1  A    between atoms: C_1  and  C_2
REMARK    2  A    between atoms: C_2  and  C_3
REMARK    3  A    between atoms: C_2  and  C_14
REMARK    4  A    between atoms: C_3  and  O_4
REMARK    5  A    between atoms: O_4  and  C_5
REMARK    6  A    between atoms: C_8  and  C_9
REMARK    7  A    between atoms: C_18  and  O_19
REMARK    8  A    between atoms: O_19  and  C_20
REMARK                            x       y       z     vdW  Elec       q    Type
REMARK                         _______ _______ _______ _____ _____    ______ ____
ROOT
ATOM      1  C   UNL     1      44.281   6.747  11.771  0.00  0.00    +0.000 C 
ATOM      2  C   UNL     1      45.384   6.341  10.791  0.00  0.00    +0.000 C 
ENDROOT
BRANCH   2   3
ATOM      3  C   UNL     1      45.135   4.959  10.203  0.00  0.00    +0.000 A 
ATOM      4  C   UNL     1      44.389   4.008  10.910  0.00  0.00    +0.000 A 
ATOM      5  C   UNL     1      44.088   2.773  10.329  0.00  0.00    +0.000 A 
ATOM      6  C   UNL     1      44.525   2.469   9.037  0.00  0.00    +0.000 A 
ATOM      7  C   UNL     1      45.285   3.398   8.332  0.00  0.00    +0.000 A 
ATOM      8  C   UNL     1      45.588   4.630   8.915  0.00  0.00    +0.000 A 
BRANCH   7   9
ATOM      9  O   UNL     1      45.746   3.237   7.051  0.00  0.00    +0.000 OA
BRANCH   9  10
ATOM     10  C   UNL     1      47.157   3.019   6.839  0.00  0.00    +0.000 C 
ATOM     11  C   UNL     1      47.632   2.721   5.411  0.00  0.00    +0.000 C 
ATOM     12  O   UNL     1      48.216   1.460   5.810  0.00  0.00    +0.000 OA
ATOM     13  C   UNL     1      47.648   1.595   7.133  0.00  0.00    +0.000 C 
ENDBRANCH   9  10
ENDBRANCH   7   9
ENDBRANCH   2   3
BRANCH   2  14
ATOM     14  C   UNL     1      46.791   6.377  11.423  0.00  0.00    +0.000 C 
BRANCH  14  15
ATOM     15  O   UNL     1      46.736   6.722  12.812  0.00  0.00    +0.000 OA
BRANCH  15  16
ATOM     16  C   UNL     1      47.024   5.691  13.666  0.00  0.00    +0.000 A 
ATOM     17  C   UNL     1      46.664   4.355  13.470  0.00  0.00    +0.000 A 
ATOM     18  C   UNL     1      47.039   3.392  14.401  0.00  0.00    +0.000 A 
ATOM     19  C   UNL     1      47.781   3.792  15.503  0.00  0.00    +0.000 A 
ATOM     20  N   UNL     1      48.162   5.079  15.732  0.00  0.00    +0.000 NA
ATOM     21  C   UNL     1      47.775   5.990  14.800  0.00  0.00    +0.000 A 
BRANCH  19  22
ATOM     22  C   UNL     1      48.213   2.763  16.502  0.00  0.00    +0.000 C 
ATOM     23  N   UNL     1      47.578   2.808  17.712  0.00  0.00    +0.000 N 
ATOM     24  O   UNL     1      49.081   1.932  16.263  0.00  0.00    +0.000 OA
ATOM     25  H   UNL     1      46.879   3.520  17.878  0.00  0.00    +0.000 HD
ATOM     26  H   UNL     1      47.834   2.158  18.439  0.00  0.00    +0.000 HD
ENDBRANCH  19  22
ENDBRANCH  15  16
ENDBRANCH  14  15
ENDBRANCH   2  14
TORSDOF 7
ENDMDL
MODEL 3
REMARK VINA RESULT:    -7.098      1.792      2.415
REMARK INTER + INTRA:         -11.111
REMARK INTER:                 -10.458
REMARK INTRA:                  -0.653
REMARK UNBOUND:                -1.107
REMARK  Name = 
REMARK  8 active torsions:
REMARK  status: ('A' for Active; 'I' for Inactive)
REMARK    1  A    between atoms: C_1  and  C_2
REMARK    2  A    between atoms: C_2  and  C_3
REMARK    3  A    between atoms: C_2  and  C_14
REMARK    4  A    between atoms: C_3  and  O_4
REMARK    5  A    between atoms: O_4  and  C_5
REMARK    6  A    between atoms: C_8  and  C_9
REMARK    7  A    between atoms: C_18  and  O_19
REMARK    8  A    between atoms: O_19  and  C_20
REMARK                            x       y       z     vdW  Elec       q    Type
REMARK                         _______ _______ _______ _____ _____    ______ ____
ROOT
ATOM      1  C   UNL     1      45.089   4.192  12.887  0.00  0.00    +0.000 C 
ATOM      2  C   UNL     1      45.098   5.091  11.649  0.00  0.00    +0.000 C 
ENDROOT
BRANCH   2   3
ATOM      3  C   UNL     1      45.510   6.517  11.992  0.00  0.00    +0.000 A 
ATOM      4  C   UNL     1      44.789   7.606  11.489  0.00  0.00    +0.000 A 
ATOM      5  C   UNL     1      45.116   8.909  11.877  0.00  0.00    +0.000 A 
ATOM      6  C   UNL     1      46.164   9.143  12.771  0.00  0.00    +0.000 A 
ATOM      7  C   UNL     1      46.902   8.069  13.261  0.00  0.00    +0.000 A 
ATOM      8  C   UNL     1      46.577   6.769  12.870  0.00  0.00    +0.000 A 
BRANCH   7   9
ATOM      9  O   UNL     1      47.929   8.160  14.165  0.00  0.00    +0.000 OA
BRANCH   9  10
ATOM     10  C   UNL     1      48.800   7.023  14.347  0.00  0.00    +0.000 C 
ATOM     11  C   UNL     1      48.714   6.257  15.673  0.00  0.00    +0.000 C 
ATOM     12  O   UNL     1      50.113   6.482  15.958  0.00  0.00    +0.000 OA
ATOM     13  C   UNL     1      50.223   7.360  14.814  0.00  0.00    +0.000 C 
ENDBRANCH   9  10
ENDBRANCH   7   9
ENDBRANCH   2   3
BRANCH   2  14
ATOM     14  C   UNL     1      43.741   5.118  10.917  0.00  0.00    +0.000 C 
BRANCH  14  15
ATOM     15  O   UNL     1      43.450   3.857  10.302  0.00  0.00    +0.000 OA
BRANCH  15  16
ATOM     16  C   UNL     1      44.394   3.430   9.406  0.00  0.00    +0.000 A 
ATOM     17  C   UNL     1      45.017   4.231   8.445  0.00  0.00    +0.000 A 
ATOM     18  C   UNL     1      45.982   3.683   7.607  0.00  0.00    +0.000 A 
ATOM     19  C   UNL     1      46.310   2.344   7.763  0.00  0.00    +0.000 A 
ATOM     20  N   UNL     1      45.737   1.528   8.690  0.00  0.00    +0.000 NA
ATOM     21  C   UNL     1      44.798   2.100   9.488  0.00  0.00    +0.000 A 
BRANCH  19  22
ATOM     22  C   UNL     1      47.365   1.746   6.884  0.00  0.00    +0.000 C 
ATOM     23  N   UNL     1      48.406   2.572   6.561  0.00  0.00    +0.000 N 
ATOM     24  O   UNL     1      47.307   0.594   6.470  0.00  0.00    +0.000 OA
ATOM     25  H   UNL     1      48.410   3.522   6.906  0.00  0.00    +0.000 HD
ATOM     26  H   UNL     1      49.141   2.240   5.955  0.00  0.00    +0.000 HD
ENDBRANCH  19  22
ENDBRANCH  15  16
ENDBRANCH  14  15
ENDBRANCH   2  14
TORSDOF 7
ENDMDL
MODEL 4
REMARK VINA RESULT:    -6.985      3.061      4.635
REMARK INTER + INTRA:         -10.951
REMARK INTER:                 -10.331
REMARK INTRA:                  -0.620
REMARK UNBOUND:                -1.107
REMARK  Name = 
REMARK  8 active torsions:
REMARK  status: ('A' for Active; 'I' for Inactive)
REMARK    1  A    between atoms: C_1  and  C_2
REMARK    2  A    between atoms: C_2  and  C_3
REMARK    3  A    between atoms: C_2  and  C_14
REMARK    4  A    between atoms: C_3  and  O_4
REMARK    5  A    between atoms: O_4  and  C_5
REMARK    6  A    between atoms: C_8  and  C_9
REMARK    7  A    between atoms: C_18  and  O_19
REMARK    8  A    between atoms: O_19  and  C_20
REMARK                            x       y       z     vdW  Elec       q    Type
REMARK                         _______ _______ _______ _____ _____    ______ ____
ROOT
ATOM      1  C   UNL     1      45.056   3.696  12.823  0.00  0.00    +0.000 C 
ATOM      2  C   UNL     1      45.229   4.799  11.777  0.00  0.00    +0.000 C 
ENDROOT
BRANCH   2   3
ATOM      3  C   UNL     1      45.817   6.065  12.386  0.00  0.00    +0.000 A 
ATOM      4  C   UNL     1      47.090   6.051  12.967  0.00  0.00    +0.000 A 
ATOM      5  C   UNL     1      47.661   7.234  13.445  0.00  0.00    +0.000 A 
ATOM      6  C   UNL     1      46.973   8.445  13.348  0.00  0.00    +0.000 A 
ATOM      7  C   UNL     1      45.698   8.469  12.791  0.00  0.00    +0.000 A 
ATOM      8  C   UNL     1      45.126   7.286  12.318  0.00  0.00    +0.000 A 
BRANCH   7   9
ATOM      9  O   UNL     1      44.932   9.593  12.608  0.00  0.00    +0.000 OA
BRANCH   9  10
ATOM     10  C   UNL     1      45.186  10.430  11.460  0.00  0.00    +0.000 C 
ATOM     11  C   UNL     1      45.557  11.898  11.710  0.00  0.00    +0.000 C 
ATOM     12  O   UNL     1      44.440  12.372  10.924  0.00  0.00    +0.000 OA
ATOM     13  C   UNL     1      43.936  11.022  10.796  0.00  0.00    +0.000 C 
ENDBRANCH   9  10
ENDBRANCH   7   9
ENDBRANCH   2   3
BRANCH   2  14
ATOM     14  C   UNL     1      43.914   5.149  11.050  0.00  0.00    +0.000 C 
BRANCH  14  15
ATOM     15  O   UNL     1      43.478   4.078  10.205  0.00  0.00    +0.000 OA
BRANCH  15  16
ATOM     16  C   UNL     1      44.436   3.603   9.349  0.00  0.00    +0.000 A 
ATOM     17  C   UNL     1      45.193   4.383   8.471  0.00  0.00    +0.000 A 
ATOM     18  C   UNL     1      46.158   3.783   7.667  0.00  0.00    +0.000 A 
ATOM     19  C   UNL     1      46.348   2.413   7.774  0.00  0.00    +0.000 A 
ATOM     20  N   UNL     1      45.640   1.614   8.620  0.00  0.00    +0.000 NA
ATOM     21  C   UNL     1      44.707   2.238   9.387  0.00  0.00    +0.000 A 
BRANCH  19  22
ATOM     22  C   UNL     1      47.399   1.757   6.932  0.00  0.00    +0.000 C 
ATOM     23  N   UNL     1      48.429   2.563   6.535  0.00  0.00    +0.000 N 
ATOM     24  O   UNL     1      47.346   0.576   6.610  0.00  0.00    +0.000 OA
ATOM     25  H   UNL     1      48.429   3.537   6.807  0.00  0.00    +0.000 HD
ATOM     26  H   UNL     1      49.161   2.191   5.949  0.00  0.00    +0.000 HD
ENDBRANCH  19  22
ENDBRANCH  15  16
ENDBRANCH  14  15
ENDBRANCH   2  14
TORSDOF 7
ENDMDL
MODEL 5
REMARK VINA RESULT:    -6.932      2.173      3.359
REMARK INTER + INTRA:         -10.877
REMARK INTER:                 -10.528
REMARK INTRA:                  -0.349
REMARK UNBOUND:                -1.107
REMARK  Name = 
REMARK  8 active torsions:
REMARK  status: ('A' for Active; 'I' for Inactive)
REMARK    1  A    between atoms: C_1  and  C_2
REMARK    2  A    between atoms: C_2  and  C_3
REMARK    3  A    between atoms: C_2  and  C_14
REMARK    4  A    between atoms: C_3  and  O_4
REMARK    5  A    between atoms: O_4  and  C_5
REMARK    6  A    between atoms: C_8  and  C_9
REMARK    7  A    between atoms: C_18  and  O_19
REMARK    8  A    between atoms: O_19  and  C_20
REMARK                            x       y       z     vdW  Elec       q    Type
REMARK                         _______ _______ _______ _____ _____    ______ ____
ROOT
ATOM      1  C   UNL     1      42.447   5.642  12.127  0.00  0.00    +0.000 C 
ATOM      2  C   UNL     1      43.318   4.436  12.482  0.00  0.00    +0.000 C 
ENDROOT
BRANCH   2   3
ATOM      3  C   UNL     1      44.717   4.857  12.911  0.00  0.00    +0.000 A 
ATOM      4  C   UNL     1      45.644   3.905  13.349  0.00  0.00    +0.000 A 
ATOM      5  C   UNL     1      46.954   4.284  13.658  0.00  0.00    +0.000 A 
ATOM      6  C   UNL     1      47.356   5.617  13.532  0.00  0.00    +0.000 A 
ATOM      7  C   UNL     1      46.438   6.576  13.118  0.00  0.00    +0.000 A 
ATOM      8  C   UNL     1      45.129   6.197  12.814  0.00  0.00    +0.000 A 
BRANCH   7   9
ATOM      9  O   UNL     1      46.712   7.906  12.924  0.00  0.00    +0.000 OA
BRANCH   9  10
ATOM     10  C   UNL     1      48.091   8.329  12.854  0.00  0.00    +0.000 C 
ATOM     11  C   UNL     1      48.450   9.445  11.863  0.00  0.00    +0.000 C 
ATOM     12  O   UNL     1      49.409   8.606  11.180  0.00  0.00    +0.000 OA
ATOM     13  C   UNL     1      48.994   7.464  11.964  0.00  0.00    +0.000 C 
ENDBRANCH   9  10
ENDBRANCH   7   9
ENDBRANCH   2   3
BRANCH   2  14
ATOM     14  C   UNL     1      43.427   3.415  11.331  0.00  0.00    +0.000 C 
BRANCH  14  15
ATOM     15  O   UNL     1      43.594   4.064  10.065  0.00  0.00    +0.000 OA
BRANCH  15  16
ATOM     16  C   UNL     1      44.582   3.532   9.279  0.00  0.00    +0.000 A 
ATOM     17  C   UNL     1      45.019   2.206   9.319  0.00  0.00    +0.000 A 
ATOM     18  C   UNL     1      46.017   1.778   8.448  0.00  0.00    +0.000 A 
ATOM     19  C   UNL     1      46.543   2.692   7.546  0.00  0.00    +0.000 A 
ATOM     20  N   UNL     1      46.142   3.991   7.465  0.00  0.00    +0.000 NA
ATOM     21  C   UNL     1      45.167   4.370   8.333  0.00  0.00    +0.000 A 
BRANCH  19  22
ATOM     22  C   UNL     1      47.599   2.240   6.587  0.00  0.00    +0.000 C 
ATOM     23  N   UNL     1      47.754   3.012   5.469  0.00  0.00    +0.000 N 
ATOM     24  O   UNL     1      48.285   1.243   6.778  0.00  0.00    +0.000 OA
ATOM     25  H   UNL     1      47.158   3.818   5.337  0.00  0.00    +0.000 HD
ATOM     26  H   UNL     1      48.434   2.754   4.769  0.00  0.00    +0.000 HD
ENDBRANCH  19  22
ENDBRANCH  15  16
ENDBRANCH  14  15
ENDBRANCH   2  14
TORSDOF 7
ENDMDL
MODEL 6
REMARK VINA RESULT:    -6.222      3.248      7.924
REMARK INTER + INTRA:          -9.875
REMARK INTER:                  -9.163
REMARK INTRA:                  -0.713
REMARK UNBOUND:                -1.107
REMARK  Name = 
REMARK  8 active torsions:
REMARK  status: ('A' for Active; 'I' for Inactive)
REMARK    1  A    between atoms: C_1  and  C_2
REMARK    2  A    between atoms: C_2  and  C_3
REMARK    3  A    between atoms: C_2  and  C_14
REMARK    4  A    between atoms: C_3  and  O_4
REMARK    5  A    between atoms: O_4  and  C_5
REMARK    6  A    between atoms: C_8  and  C_9
REMARK    7  A    between atoms: C_18  and  O_19
REMARK    8  A    between atoms: O_19  and  C_20
REMARK                            x       y       z     vdW  Elec       q    Type
REMARK                         _______ _______ _______ _____ _____    ______ ____
ROOT
ATOM      1  C   UNL     1      45.408   7.991  12.850  0.00  0.00    +0.000 C 
ATOM      2  C   UNL     1      46.300   7.338  11.794  0.00  0.00    +0.000 C 
ENDROOT
BRANCH   2   3
ATOM      3  C   UNL     1      45.561   6.248  11.029  0.00  0.00    +0.000 A 
ATOM      4  C   UNL     1      44.329   5.767  11.487  0.00  0.00    +0.000 A 
ATOM      5  C   UNL     1      43.613   4.830  10.735  0.00  0.00    +0.000 A 
ATOM      6  C   UNL     1      44.114   4.363   9.517  0.00  0.00    +0.000 A 
ATOM      7  C   UNL     1      45.348   4.818   9.061  0.00  0.00    +0.000 A 
ATOM      8  C   UNL     1      46.064   5.750   9.815  0.00  0.00    +0.000 A 
BRANCH   7   9
ATOM      9  O   UNL     1      45.934   4.465   7.873  0.00  0.00    +0.000 OA
BRANCH   9  10
ATOM     10  C   UNL     1      45.715   3.134   7.356  0.00  0.00    +0.000 C 
ATOM     11  C   UNL     1      46.225   1.949   8.186  0.00  0.00    +0.000 C 
ATOM     12  O   UNL     1      47.050   1.472   7.099  0.00  0.00    +0.000 OA
ATOM     13  C   UNL     1      46.748   2.657   6.327  0.00  0.00    +0.000 C 
ENDBRANCH   9  10
ENDBRANCH   7   9
ENDBRANCH   2   3
BRANCH   2  14
ATOM     14  C   UNL     1      47.598   6.751  12.384  0.00  0.00    +0.000 C 
BRANCH  14  15
ATOM     15  O   UNL     1      47.397   5.424  12.884  0.00  0.00    +0.000 OA
BRANCH  15  16
ATOM     16  C   UNL     1      47.582   5.291  14.235  0.00  0.00    +0.000 A 
ATOM     17  C   UNL     1      48.296   6.179  15.044  0.00  0.00    +0.000 A 
ATOM     18  C   UNL     1      48.391   5.947  16.412  0.00  0.00    +0.000 A 
ATOM     19  C   UNL     1      47.753   4.834  16.940  0.00  0.00    +0.000 A 
ATOM     20  N   UNL     1      47.039   3.946  16.193  0.00  0.00    +0.000 NA
ATOM     21  C   UNL     1      46.972   4.207  14.861  0.00  0.00    +0.000 A 
BRANCH  19  22
ATOM     22  C   UNL     1      47.827   4.584  18.414  0.00  0.00    +0.000 C 
ATOM     23  N   UNL     1      47.080   5.421  19.195  0.00  0.00    +0.000 N 
ATOM     24  O   UNL     1      48.512   3.692  18.901  0.00  0.00    +0.000 OA
ATOM     25  H   UNL     1      46.540   6.156  18.759  0.00  0.00    +0.000 HD
ATOM     26  H   UNL     1      47.098   5.322  20.199  0.00  0.00    +0.000 HD
ENDBRANCH  19  22
ENDBRANCH  15  16
ENDBRANCH  14  15
ENDBRANCH   2  14
TORSDOF 7
ENDMDL
MODEL 7
REMARK VINA RESULT:    -6.037      3.423      5.801
REMARK INTER + INTRA:          -9.614
REMARK INTER:                  -9.061
REMARK INTRA:                  -0.553
REMARK UNBOUND:                -1.107
REMARK  Name = 
REMARK  8 active torsions:
REMARK  status: ('A' for Active; 'I' for Inactive)
REMARK    1  A    between atoms: C_1  and  C_2
REMARK    2  A    between atoms: C_2  and  C_3
REMARK    3  A    between atoms: C_2  and  C_14
REMARK    4  A    between atoms: C_3  and  O_4
REMARK    5  A    between atoms: O_4  and  C_5
REMARK    6  A    between atoms: C_8  and  C_9
REMARK    7  A    between atoms: C_18  and  O_19
REMARK    8  A    between atoms: O_19  and  C_20
REMARK                            x       y       z     vdW  Elec       q    Type
REMARK                         _______ _______ _______ _____ _____    ______ ____
ROOT
ATOM      1  C   UNL     1      50.662   8.077  13.852  0.00  0.00    +0.000 C 
ATOM      2  C   UNL     1      49.766   7.715  15.037  0.00  0.00    +0.000 C 
ENDROOT
BRANCH   2   3
ATOM      3  C   UNL     1      50.440   6.716  15.968  0.00  0.00    +0.000 A 
ATOM      4  C   UNL     1      51.829   6.728  16.140  0.00  0.00    +0.000 A 
ATOM      5  C   UNL     1      52.434   5.868  17.061  0.00  0.00    +0.000 A 
ATOM      6  C   UNL     1      51.663   4.988  17.825  0.00  0.00    +0.000 A 
ATOM      7  C   UNL     1      50.283   4.952  17.649  0.00  0.00    +0.000 A 
ATOM      8  C   UNL     1      49.680   5.808  16.725  0.00  0.00    +0.000 A 
BRANCH   7   9
ATOM      9  O   UNL     1      49.414   4.161  18.355  0.00  0.00    +0.000 OA
BRANCH   9  10
ATOM     10  C   UNL     1      49.211   2.796  17.930  0.00  0.00    +0.000 C 
ATOM     11  C   UNL     1      50.309   2.136  17.086  0.00  0.00    +0.000 C 
ATOM     12  O   UNL     1      49.392   1.867  16.001  0.00  0.00    +0.000 OA
ATOM     13  C   UNL     1      48.357   2.628  16.665  0.00  0.00    +0.000 C 
ENDBRANCH   9  10
ENDBRANCH   7   9
ENDBRANCH   2   3
BRANCH   2  14
ATOM     14  C   UNL     1      48.394   7.159  14.605  0.00  0.00    +0.000 C 
BRANCH  14  15
ATOM     15  O   UNL     1      48.521   6.218  13.533  0.00  0.00    +0.000 OA
BRANCH  15  16
ATOM     16  C   UNL     1      47.337   5.672  13.112  0.00  0.00    +0.000 A 
ATOM     17  C   UNL     1      46.564   6.142  12.048  0.00  0.00    +0.000 A 
ATOM     18  C   UNL     1      45.389   5.483  11.700  0.00  0.00    +0.000 A 
ATOM     19  C   UNL     1      45.025   4.356  12.422  0.00  0.00    +0.000 A 
ATOM     20  N   UNL     1      45.750   3.856  13.461  0.00  0.00    +0.000 NA
ATOM     21  C   UNL     1      46.890   4.529  13.771  0.00  0.00    +0.000 A 
BRANCH  19  22
ATOM     22  C   UNL     1      43.776   3.622  12.045  0.00  0.00    +0.000 C 
ATOM     23  N   UNL     1      43.722   2.309  12.423  0.00  0.00    +0.000 N 
ATOM     24  O   UNL     1      42.856   4.152  11.431  0.00  0.00    +0.000 OA
ATOM     25  H   UNL     1      44.507   1.902  12.913  0.00  0.00    +0.000 HD
ATOM     26  H   UNL     1      42.917   1.749  12.183  0.00  0.00    +0.000 HD
ENDBRANCH  19  22
ENDBRANCH  15  16
ENDBRANCH  14  15
ENDBRANCH   2  14
TORSDOF 7
ENDMDL
MODEL 8
REMARK VINA RESULT:    -5.744      3.055      4.996
REMARK INTER + INTRA:          -9.202
REMARK INTER:                  -8.094
REMARK INTRA:                  -1.107
REMARK UNBOUND:                -1.107
REMARK  Name = 
REMARK  8 active torsions:
REMARK  status: ('A' for Active; 'I' for Inactive)
REMARK    1  A    between atoms: C_1  and  C_2
REMARK    2  A    between atoms: C_2  and  C_3
REMARK    3  A    between atoms: C_2  and  C_14
REMARK    4  A    between atoms: C_3  and  O_4
REMARK    5  A    between atoms: O_4  and  C_5
REMARK    6  A    between atoms: C_8  and  C_9
REMARK    7  A    between atoms: C_18  and  O_19
REMARK    8  A    between atoms: O_19  and  C_20
REMARK                            x       y       z     vdW  Elec       q    Type
REMARK                         _______ _______ _______ _____ _____    ______ ____
ROOT
ATOM      1  C   UNL     1      50.889   8.300  11.841  0.00  0.00    +0.000 C 
ATOM      2  C   UNL     1      49.428   8.517  12.238  0.00  0.00    +0.000 C 
ENDROOT
BRANCH   2   3
ATOM      3  C   UNL     1      49.213   8.311  13.731  0.00  0.00    +0.000 A 
ATOM      4  C   UNL     1      48.915   9.395  14.564  0.00  0.00    +0.000 A 
ATOM      5  C   UNL     1      48.632   9.189  15.918  0.00  0.00    +0.000 A 
ATOM      6  C   UNL     1      48.640   7.900  16.458  0.00  0.00    +0.000 A 
ATOM      7  C   UNL     1      48.955   6.816  15.644  0.00  0.00    +0.000 A 
ATOM      8  C   UNL     1      49.242   7.024  14.294  0.00  0.00    +0.000 A 
BRANCH   7   9
ATOM      9  O   UNL     1      48.967   5.503  16.041  0.00  0.00    +0.000 OA
BRANCH   9  10
ATOM     10  C   UNL     1      47.712   4.796  16.144  0.00  0.00    +0.000 C 
ATOM     11  C   UNL     1      47.201   4.440  17.546  0.00  0.00    +0.000 C 
ATOM     12  O   UNL     1      47.163   3.029  17.235  0.00  0.00    +0.000 OA
ATOM     13  C   UNL     1      47.806   3.274  15.964  0.00  0.00    +0.000 C 
ENDBRANCH   9  10
ENDBRANCH   7   9
ENDBRANCH   2   3
BRANCH   2  14
ATOM     14  C   UNL     1      48.453   7.613  11.456  0.00  0.00    +0.000 C 
BRANCH  14  15
ATOM     15  O   UNL     1      47.101   7.794  11.892  0.00  0.00    +0.000 OA
BRANCH  15  16
ATOM     16  C   UNL     1      46.377   6.636  11.999  0.00  0.00    +0.000 A 
ATOM     17  C   UNL     1      45.951   6.057  13.197  0.00  0.00    +0.000 A 
ATOM     18  C   UNL     1      45.197   4.889  13.173  0.00  0.00    +0.000 A 
ATOM     19  C   UNL     1      44.876   4.335  11.942  0.00  0.00    +0.000 A 
ATOM     20  N   UNL     1      45.261   4.868  10.749  0.00  0.00    +0.000 NA
ATOM     21  C   UNL     1      45.997   6.008  10.816  0.00  0.00    +0.000 A 
BRANCH  19  22
ATOM     22  C   UNL     1      44.044   3.091  11.899  0.00  0.00    +0.000 C 
ATOM     23  N   UNL     1      43.951   2.482  10.678  0.00  0.00    +0.000 N 
ATOM     24  O   UNL     1      43.476   2.640  12.887  0.00  0.00    +0.000 OA
ATOM     25  H   UNL     1      44.419   2.893   9.882  0.00  0.00    +0.000 HD
ATOM     26  H   UNL     1      43.389   1.650  10.573  0.00  0.00    +0.000 HD
ENDBRANCH  19  22
ENDBRANCH  15  16
ENDBRANCH  14  15
ENDBRANCH   2  14
TORSDOF 7
ENDMDL
MODEL 9
REMARK VINA RESULT:    -5.427      2.521      3.985
REMARK INTER + INTRA:          -8.756
REMARK INTER:                  -8.309
REMARK INTRA:                  -0.447
REMARK UNBOUND:                -1.107
REMARK  Name = 
REMARK  8 active torsions:
REMARK  status: ('A' for Active; 'I' for Inactive)
REMARK    1  A    between atoms: C_1  and  C_2
REMARK    2  A    between atoms: C_2  and  C_3
REMARK    3  A    between atoms: C_2  and  C_14
REMARK    4  A    between atoms: C_3  and  O_4
REMARK    5  A    between atoms: O_4  and  C_5
REMARK    6  A    between atoms: C_8  and  C_9
REMARK    7  A    between atoms: C_18  and  O_19
REMARK    8  A    between atoms: O_19  and  C_20
REMARK                            x       y       z     vdW  Elec       q    Type
REMARK                         _______ _______ _______ _____ _____    ______ ____
ROOT
ATOM      1  C   UNL     1      46.159   3.597  13.211  0.00  0.00    +0.000 C 
ATOM      2  C   UNL     1      46.274   4.767  12.232  0.00  0.00    +0.000 C 
ENDROOT
BRANCH   2   3
ATOM      3  C   UNL     1      47.077   5.918  12.822  0.00  0.00    +0.000 A 
ATOM      4  C   UNL     1      47.519   5.872  14.149  0.00  0.00    +0.000 A 
ATOM      5  C   UNL     1      48.331   6.889  14.659  0.00  0.00    +0.000 A 
ATOM      6  C   UNL     1      48.713   7.965  13.853  0.00  0.00    +0.000 A 
ATOM      7  C   UNL     1      48.262   8.034  12.538  0.00  0.00    +0.000 A 
ATOM      8  C   UNL     1      47.449   7.019  12.031  0.00  0.00    +0.000 A 
BRANCH   7   9
ATOM      9  O   UNL     1      48.590   9.015  11.637  0.00  0.00    +0.000 OA
BRANCH   9  10
ATOM     10  C   UNL     1      49.939   9.069  11.126  0.00  0.00    +0.000 C 
ATOM     11  C   UNL     1      50.764   7.776  11.139  0.00  0.00    +0.000 C 
ATOM     12  O   UNL     1      51.800   8.379  11.948  0.00  0.00    +0.000 OA
ATOM     13  C   UNL     1      50.994   9.568  12.123  0.00  0.00    +0.000 C 
ENDBRANCH   9  10
ENDBRANCH   7   9
ENDBRANCH   2   3
BRANCH   2  14
ATOM     14  C   UNL     1      44.902   5.294  11.763  0.00  0.00    +0.000 C 
BRANCH  14  15
ATOM     15  O   UNL     1      44.209   4.324  10.969  0.00  0.00    +0.000 OA
BRANCH  15  16
ATOM     16  C   UNL     1      44.890   3.908   9.856  0.00  0.00    +0.000 A 
ATOM     17  C   UNL     1      45.452   4.748   8.891  0.00  0.00    +0.000 A 
ATOM     18  C   UNL     1      46.144   4.202   7.815  0.00  0.00    +0.000 A 
ATOM     19  C   UNL     1      46.269   2.823   7.741  0.00  0.00    +0.000 A 
ATOM     20  N   UNL     1      45.746   1.965   8.661  0.00  0.00    +0.000 NA
ATOM     21  C   UNL     1      45.076   2.537   9.696  0.00  0.00    +0.000 A 
BRANCH  19  22
ATOM     22  C   UNL     1      47.032   2.221   6.601  0.00  0.00    +0.000 C 
ATOM     23  N   UNL     1      47.267   3.052   5.541  0.00  0.00    +0.000 N 
ATOM     24  O   UNL     1      47.421   1.059   6.605  0.00  0.00    +0.000 OA
ATOM     25  H   UNL     1      46.915   4.000   5.567  0.00  0.00    +0.000 HD
ATOM     26  H   UNL     1      47.758   2.706   4.730  0.00  0.00    +0.000 HD
ENDBRANCH  19  22
ENDBRANCH  15  16
ENDBRANCH  14  15
ENDBRANCH   2  14
TORSDOF 7
ENDMDL
