MODEL 1
REMARK VINA RESULT:    -8.366      0.000      0.000
REMARK INTER + INTRA:         -12.963
REMARK INTER:                 -12.279
REMARK INTRA:                  -0.685
REMARK UNBOUND:                -0.685
REMARK  Name = 
REMARK  9 active torsions:
REMARK  status: ('A' for Active; 'I' for Inactive)
REMARK    1  A    between atoms: C_1  and  C_2
REMARK    2  A    between atoms: C_2  and  C_3
REMARK    3  A    between atoms: C_2  and  C_26
REMARK    4  A    between atoms: C_3  and  N_4
REMARK    5  A    between atoms: N_4  and  C_5
REMARK    6  A    between atoms: C_5  and  C_6
REMARK    7  A    between atoms: C_9  and  C_10
REMARK    8  A    between atoms: C_10  and  N_11
REMARK    9  A    between atoms: C_12  and  C_14
REMARK                            x       y       z     vdW  Elec       q    Type
REMARK                         _______ _______ _______ _____ _____    ______ ____
ROOT
ATOM      1  C   UNL     1      44.751   5.481  11.895  0.00  0.00    +0.000 A 
ATOM      2  C   UNL     1      45.330   4.666  12.884  0.00  0.00    +0.000 A 
ATOM      3  C   UNL     1      46.502   5.042  13.540  0.00  0.00    +0.000 A 
ATOM      4  C   UNL     1      47.140   6.240  13.213  0.00  0.00    +0.000 A 
ATOM      5  C   UNL     1      46.614   7.026  12.179  0.00  0.00    +0.000 A 
ATOM      6  C   UNL     1      45.431   6.652  11.530  0.00  0.00    +0.000 A 
ENDROOT
BRANCH   1   7
ATOM      7  C   UNL     1      43.454   5.109  11.194  0.00  0.00    +0.000 C 
BRANCH   7   8
ATOM      8  N   UNL     1      43.633   5.042   9.747  0.00  0.00    +0.000 NA
ATOM      9  H   UNL     1      42.881   4.462   9.376  0.00  0.00    +0.000 HD
BRANCH   8  10
ATOM     10  C   UNL     1      44.890   4.434   9.318  0.00  0.00    +0.000 C 
BRANCH  10  12
ATOM     11  C   UNL     1      44.309   1.990   9.773  0.00  0.00    +0.000 C 
ATOM     12  C   UNL     1      44.630   3.033   8.691  0.00  0.00    +0.000 C 
BRANCH  12  13
ATOM     13  C   UNL     1      45.766   2.613   7.768  0.00  0.00    +0.000 A 
ATOM     14  C   UNL     1      46.178   3.449   6.723  0.00  0.00    +0.000 A 
ATOM     15  C   UNL     1      47.255   3.084   5.920  0.00  0.00    +0.000 A 
ATOM     16  C   UNL     1      47.901   1.889   6.188  0.00  0.00    +0.000 A 
ATOM     17  N   UNL     1      47.546   1.057   7.187  0.00  0.00    +0.000 NA
ATOM     18  C   UNL     1      46.490   1.432   7.946  0.00  0.00    +0.000 A 
ENDBRANCH  12  13
ENDBRANCH  10  12
ENDBRANCH   8  10
ENDBRANCH   7   8
ENDBRANCH   1   7
BRANCH   4  19
ATOM     19  C   UNL     1      48.394   6.645  13.935  0.00  0.00    +0.000 C 
BRANCH  19  20
ATOM     20  N   UNL     1      48.137   6.852  15.336  0.00  0.00    +0.000 N 
ATOM     21  C   UNL     1      49.080   6.537  16.278  0.00  0.00    +0.000 C 
ATOM     22  O   UNL     1      50.189   6.109  15.969  0.00  0.00    +0.000 OA
ATOM     23  H   UNL     1      47.174   7.011  15.613  0.00  0.00    +0.000 HD
BRANCH  21  24
ATOM     24  C   UNL     1      48.720   6.789  17.677  0.00  0.00    +0.000 A 
ATOM     25  C   UNL     1      48.425   8.082  18.083  0.00  0.00    +0.000 A 
ATOM     26  S   UNL     1      47.995   8.202  19.728  0.00  0.00    +0.000 S 
ATOM     27  C   UNL     1      48.229   6.535  19.966  0.00  0.00    +0.000 A 
ATOM     28  N   UNL     1      48.053   5.973  21.194  0.00  0.00    +0.000 NA
ATOM     29  C   UNL     1      48.291   4.707  21.239  0.00  0.00    +0.000 A 
ATOM     30  N   UNL     1      48.686   3.948  20.168  0.00  0.00    +0.000 N 
ATOM     31  C   UNL     1      48.856   4.464  18.906  0.00  0.00    +0.000 A 
ATOM     32  O   UNL     1      49.174   3.746  17.964  0.00  0.00    +0.000 OA
ATOM     33  C   UNL     1      48.614   5.891  18.803  0.00  0.00    +0.000 A 
ATOM     34  H   UNL     1      48.850   2.958  20.269  0.00  0.00    +0.000 HD
ENDBRANCH  21  24
ENDBRANCH  19  20
ENDBRANCH   4  19
TORSDOF 8
ENDMDL
MODEL 2
REMARK VINA RESULT:    -8.142      3.022      3.731
REMARK INTER + INTRA:         -12.634
REMARK INTER:                 -11.569
REMARK INTRA:                  -1.065
REMARK UNBOUND:                -0.685
REMARK  Name = 
REMARK  9 active torsions:
REMARK  status: ('A' for Active; 'I' for Inactive)
REMARK    1  A    between atoms: C_1  and  C_2
REMARK    2  A    between atoms: C_2  and  C_3
REMARK    3  A    between atoms: C_2  and  C_26
REMARK    4  A    between atoms: C_3  and  N_4
REMARK    5  A    between atoms: N_4  and  C_5
REMARK    6  A    between atoms: C_5  and  C_6
REMARK    7  A    between atoms: C_9  and  C_10
REMARK    8  A    between atoms: C_10  and  N_11
REMARK    9  A    between atoms: C_12  and  C_14
REMARK                            x       y       z     vdW  Elec       q    Type
REMARK                         _______ _______ _______ _____ _____    ______ ____
ROOT
ATOM      1  C   UNL     1      46.821   5.836  12.743  0.00  0.00    +0.000 A 
ATOM      2  C   UNL     1      46.279   4.598  13.130  0.00  0.00    +0.000 A 
ATOM      3  C   UNL     1      46.537   4.055  14.388  0.00  0.00    +0.000 A 
ATOM      4  C   UNL     1      47.360   4.729  15.292  0.00  0.00    +0.000 A 
ATOM      5  C   UNL     1      47.965   5.928  14.891  0.00  0.00    +0.000 A 
ATOM      6  C   UNL     1      47.696   6.477  13.632  0.00  0.00    +0.000 A 
ENDROOT
BRANCH   1   7
ATOM      7  C   UNL     1      46.523   6.464  11.390  0.00  0.00    +0.000 C 
BRANCH   7   8
ATOM      8  N   UNL     1      45.454   5.751  10.698  0.00  0.00    +0.000 NA
ATOM      9  H   UNL     1      45.273   4.896  11.222  0.00  0.00    +0.000 HD
BRANCH   8  10
ATOM     10  C   UNL     1      45.776   5.353   9.330  0.00  0.00    +0.000 C 
BRANCH  10  12
ATOM     11  C   UNL     1      44.023   3.642  10.049  0.00  0.00    +0.000 C 
ATOM     12  C   UNL     1      44.865   4.174   8.879  0.00  0.00    +0.000 C 
BRANCH  12  13
ATOM     13  C   UNL     1      45.664   3.088   8.170  0.00  0.00    +0.000 A 
ATOM     14  C   UNL     1      46.448   3.400   7.052  0.00  0.00    +0.000 A 
ATOM     15  C   UNL     1      47.221   2.413   6.445  0.00  0.00    +0.000 A 
ATOM     16  C   UNL     1      47.195   1.136   6.978  0.00  0.00    +0.000 A 
ATOM     17  N   UNL     1      46.464   0.792   8.056  0.00  0.00    +0.000 NA
ATOM     18  C   UNL     1      45.715   1.768   8.621  0.00  0.00    +0.000 A 
ENDBRANCH  12  13
ENDBRANCH  10  12
ENDBRANCH   8  10
ENDBRANCH   7   8
ENDBRANCH   1   7
BRANCH   4  19
ATOM     19  C   UNL     1      47.621   4.144  16.652  0.00  0.00    +0.000 C 
BRANCH  19  20
ATOM     20  N   UNL     1      49.018   3.847  16.826  0.00  0.00    +0.000 N 
ATOM     21  C   UNL     1      49.755   4.475  17.793  0.00  0.00    +0.000 C 
ATOM     22  O   UNL     1      49.252   5.279  18.574  0.00  0.00    +0.000 OA
ATOM     23  H   UNL     1      49.483   3.347  16.075  0.00  0.00    +0.000 HD
BRANCH  21  24
ATOM     24  C   UNL     1      51.169   4.099  17.890  0.00  0.00    +0.000 A 
ATOM     25  C   UNL     1      52.115   5.069  18.189  0.00  0.00    +0.000 A 
ATOM     26  S   UNL     1      53.705   4.465  18.298  0.00  0.00    +0.000 S 
ATOM     27  C   UNL     1      53.192   2.892  17.907  0.00  0.00    +0.000 A 
ATOM     28  N   UNL     1      54.087   1.871  17.802  0.00  0.00    +0.000 NA
ATOM     29  C   UNL     1      53.566   0.739  17.473  0.00  0.00    +0.000 A 
ATOM     30  N   UNL     1      52.231   0.531  17.242  0.00  0.00    +0.000 N 
ATOM     31  C   UNL     1      51.287   1.523  17.357  0.00  0.00    +0.000 A 
ATOM     32  O   UNL     1      50.096   1.290  17.180  0.00  0.00    +0.000 OA
ATOM     33  C   UNL     1      51.823   2.824  17.713  0.00  0.00    +0.000 A 
ATOM     34  H   UNL     1      51.886  -0.384  16.993  0.00  0.00    +0.000 HD
ENDBRANCH  21  24
ENDBRANCH  19  20
ENDBRANCH   4  19
TORSDOF 8
ENDMDL
MODEL 3
REMARK VINA RESULT:    -7.904      1.329      1.842
REMARK INTER + INTRA:         -12.285
REMARK INTER:                 -11.662
REMARK INTRA:                  -0.623
REMARK UNBOUND:                -0.685
REMARK  Name = 
REMARK  9 active torsions:
REMARK  status: ('A' for Active; 'I' for Inactive)
REMARK    1  A    between atoms: C_1  and  C_2
REMARK    2  A    between atoms: C_2  and  C_3
REMARK    3  A    between atoms: C_2  and  C_26
REMARK    4  A    between atoms: C_3  and  N_4
REMARK    5  A    between atoms: N_4  and  C_5
REMARK    6  A    between atoms: C_5  and  C_6
REMARK    7  A    between atoms: C_9  and  C_10
REMARK    8  A    between atoms: C_10  and  N_11
REMARK    9  A    between atoms: C_12  and  C_14
REMARK                            x       y       z     vdW  Elec       q    Type
REMARK                         _______ _______ _______ _____ _____    ______ ____
ROOT
ATOM      1  C   UNL     1      44.673   5.393  11.773  0.00  0.00    +0.000 A 
ATOM      2  C   UNL     1      45.155   4.631  12.852  0.00  0.00    +0.000 A 
ATOM      3  C   UNL     1      46.277   5.031  13.578  0.00  0.00    +0.000 A 
ATOM      4  C   UNL     1      46.961   6.197  13.235  0.00  0.00    +0.000 A 
ATOM      5  C   UNL     1      46.534   6.927  12.117  0.00  0.00    +0.000 A 
ATOM      6  C   UNL     1      45.401   6.531  11.397  0.00  0.00    +0.000 A 
ENDROOT
BRANCH   1   7
ATOM      7  C   UNL     1      43.430   4.996  10.991  0.00  0.00    +0.000 C 
BRANCH   7   8
ATOM      8  N   UNL     1      43.699   4.947   9.557  0.00  0.00    +0.000 NA
ATOM      9  H   UNL     1      42.966   4.379   9.133  0.00  0.00    +0.000 HD
BRANCH   8  10
ATOM     10  C   UNL     1      44.974   4.332   9.199  0.00  0.00    +0.000 C 
BRANCH  10  12
ATOM     11  C   UNL     1      44.439   1.870   9.610  0.00  0.00    +0.000 C 
ATOM     12  C   UNL     1      44.742   2.938   8.547  0.00  0.00    +0.000 C 
BRANCH  12  13
ATOM     13  C   UNL     1      45.889   2.555   7.620  0.00  0.00    +0.000 A 
ATOM     14  C   UNL     1      46.232   3.377   6.539  0.00  0.00    +0.000 A 
ATOM     15  C   UNL     1      47.318   3.050   5.731  0.00  0.00    +0.000 A 
ATOM     16  C   UNL     1      48.040   1.908   6.030  0.00  0.00    +0.000 A 
ATOM     17  N   UNL     1      47.753   1.092   7.064  0.00  0.00    +0.000 NA
ATOM     18  C   UNL     1      46.687   1.429   7.827  0.00  0.00    +0.000 A 
ENDBRANCH  12  13
ENDBRANCH  10  12
ENDBRANCH   8  10
ENDBRANCH   7   8
ENDBRANCH   1   7
BRANCH   4  19
ATOM     19  C   UNL     1      48.159   6.629  14.032  0.00  0.00    +0.000 C 
BRANCH  19  20
ATOM     20  N   UNL     1      48.079   6.144  15.385  0.00  0.00    +0.000 N 
ATOM     21  C   UNL     1      48.847   6.695  16.376  0.00  0.00    +0.000 C 
ATOM     22  O   UNL     1      49.597   7.645  16.165  0.00  0.00    +0.000 OA
ATOM     23  H   UNL     1      47.626   5.248  15.531  0.00  0.00    +0.000 HD
BRANCH  21  24
ATOM     24  C   UNL     1      48.689   6.130  17.720  0.00  0.00    +0.000 A 
ATOM     25  C   UNL     1      49.003   4.797  17.942  0.00  0.00    +0.000 A 
ATOM     26  S   UNL     1      48.798   4.305  19.560  0.00  0.00    +0.000 S 
ATOM     27  C   UNL     1      48.241   5.846  20.015  0.00  0.00    +0.000 A 
ATOM     28  N   UNL     1      47.857   6.101  21.296  0.00  0.00    +0.000 NA
ATOM     29  C   UNL     1      47.431   7.301  21.495  0.00  0.00    +0.000 A 
ATOM     30  N   UNL     1      47.355   8.273  20.532  0.00  0.00    +0.000 N 
ATOM     31  C   UNL     1      47.752   8.072  19.232  0.00  0.00    +0.000 A 
ATOM     32  O   UNL     1      47.706   8.978  18.406  0.00  0.00    +0.000 OA
ATOM     33  C   UNL     1      48.229   6.731  18.950  0.00  0.00    +0.000 A 
ATOM     34  H   UNL     1      47.017   9.197  20.756  0.00  0.00    +0.000 HD
ENDBRANCH  21  24
ENDBRANCH  19  20
ENDBRANCH   4  19
TORSDOF 8
ENDMDL
MODEL 4
REMARK VINA RESULT:    -7.802      3.242      4.205
REMARK INTER + INTRA:         -12.135
REMARK INTER:                 -11.090
REMARK INTRA:                  -1.045
REMARK UNBOUND:                -0.685
REMARK  Name = 
REMARK  9 active torsions:
REMARK  status: ('A' for Active; 'I' for Inactive)
REMARK    1  A    between atoms: C_1  and  C_2
REMARK    2  A    between atoms: C_2  and  C_3
REMARK    3  A    between atoms: C_2  and  C_26
REMARK    4  A    between atoms: C_3  and  N_4
REMARK    5  A    between atoms: N_4  and  C_5
REMARK    6  A    between atoms: C_5  and  C_6
REMARK    7  A    between atoms: C_9  and  C_10
REMARK    8  A    between atoms: C_10  and  N_11
REMARK    9  A    between atoms: C_12  and  C_14
REMARK                            x       y       z     vdW  Elec       q    Type
REMARK                         _______ _______ _______ _____ _____    ______ ____
ROOT
ATOM      1  C   UNL     1      46.953   4.757  14.133  0.00  0.00    +0.000 A 
ATOM      2  C   UNL     1      47.047   4.084  15.364  0.00  0.00    +0.000 A 
ATOM      3  C   UNL     1      47.787   4.610  16.423  0.00  0.00    +0.000 A 
ATOM      4  C   UNL     1      48.470   5.818  16.275  0.00  0.00    +0.000 A 
ATOM      5  C   UNL     1      48.443   6.462  15.031  0.00  0.00    +0.000 A 
ATOM      6  C   UNL     1      47.690   5.938  13.973  0.00  0.00    +0.000 A 
ENDROOT
BRANCH   1   7
ATOM      7  C   UNL     1      46.121   4.221  12.978  0.00  0.00    +0.000 C 
BRANCH   7   8
ATOM      8  N   UNL     1      44.815   4.871  12.917  0.00  0.00    +0.000 NA
ATOM      9  H   UNL     1      44.119   4.174  13.177  0.00  0.00    +0.000 HD
BRANCH   8  10
ATOM     10  C   UNL     1      44.446   5.369  11.595  0.00  0.00    +0.000 C 
BRANCH  10  12
ATOM     11  C   UNL     1      43.303   3.087  11.636  0.00  0.00    +0.000 C 
ATOM     12  C   UNL     1      43.809   4.232  10.744  0.00  0.00    +0.000 C 
BRANCH  12  13
ATOM     13  C   UNL     1      44.748   3.764   9.640  0.00  0.00    +0.000 A 
ATOM     14  C   UNL     1      44.977   2.398   9.436  0.00  0.00    +0.000 A 
ATOM     15  C   UNL     1      45.792   1.977   8.388  0.00  0.00    +0.000 A 
ATOM     16  C   UNL     1      46.353   2.936   7.563  0.00  0.00    +0.000 A 
ATOM     17  N   UNL     1      46.155   4.260   7.717  0.00  0.00    +0.000 NA
ATOM     18  C   UNL     1      45.366   4.642   8.748  0.00  0.00    +0.000 A 
ENDBRANCH  12  13
ENDBRANCH  10  12
ENDBRANCH   8  10
ENDBRANCH   7   8
ENDBRANCH   1   7
BRANCH   4  19
ATOM     19  C   UNL     1      49.252   6.385  17.426  0.00  0.00    +0.000 C 
BRANCH  19  20
ATOM     20  N   UNL     1      50.236   5.444  17.893  0.00  0.00    +0.000 N 
ATOM     21  C   UNL     1      51.490   5.408  17.344  0.00  0.00    +0.000 C 
ATOM     22  O   UNL     1      51.840   6.197  16.470  0.00  0.00    +0.000 OA
ATOM     23  H   UNL     1      49.907   4.670  18.461  0.00  0.00    +0.000 HD
BRANCH  21  24
ATOM     24  C   UNL     1      52.419   4.415  17.893  0.00  0.00    +0.000 A 
ATOM     25  C   UNL     1      53.566   4.841  18.547  0.00  0.00    +0.000 A 
ATOM     26  S   UNL     1      54.522   3.567  19.154  0.00  0.00    +0.000 S 
ATOM     27  C   UNL     1      53.458   2.398  18.528  0.00  0.00    +0.000 A 
ATOM     28  N   UNL     1      53.714   1.069  18.676  0.00  0.00    +0.000 NA
ATOM     29  C   UNL     1      52.841   0.295  18.129  0.00  0.00    +0.000 A 
ATOM     30  N   UNL     1      51.731   0.726  17.449  0.00  0.00    +0.000 N 
ATOM     31  C   UNL     1      51.418   2.054  17.292  0.00  0.00    +0.000 A 
ATOM     32  O   UNL     1      50.396   2.402  16.710  0.00  0.00    +0.000 OA
ATOM     33  C   UNL     1      52.378   2.972  17.879  0.00  0.00    +0.000 A 
ATOM     34  H   UNL     1      51.082   0.065  17.049  0.00  0.00    +0.000 HD
ENDBRANCH  21  24
ENDBRANCH  19  20
ENDBRANCH   4  19
TORSDOF 8
ENDMDL
MODEL 5
REMARK VINA RESULT:    -7.542      1.870      2.855
REMARK INTER + INTRA:         -11.754
REMARK INTER:                 -10.372
REMARK INTRA:                  -1.382
REMARK UNBOUND:                -0.685
REMARK  Name = 
REMARK  9 active torsions:
REMARK  status: ('A' for Active; 'I' for Inactive)
REMARK    1  A    between atoms: C_1  and  C_2
REMARK    2  A    between atoms: C_2  and  C_3
REMARK    3  A    between atoms: C_2  and  C_26
REMARK    4  A    between atoms: C_3  and  N_4
REMARK    5  A    between atoms: N_4  and  C_5
REMARK    6  A    between atoms: C_5  and  C_6
REMARK    7  A    between atoms: C_9  and  C_10
REMARK    8  A    between atoms: C_10  and  N_11
REMARK    9  A    between atoms: C_12  and  C_14
REMARK                            x       y       z     vdW  Elec       q    Type
REMARK                         _______ _______ _______ _____ _____    ______ ____
ROOT
ATOM      1  C   UNL     1      45.749   7.088  12.293  0.00  0.00    +0.000 A 
ATOM      2  C   UNL     1      46.698   6.053  12.216  0.00  0.00    +0.000 A 
ATOM      3  C   UNL     1      47.920   6.139  12.884  0.00  0.00    +0.000 A 
ATOM      4  C   UNL     1      48.235   7.272  13.635  0.00  0.00    +0.000 A 
ATOM      5  C   UNL     1      47.329   8.341  13.660  0.00  0.00    +0.000 A 
ATOM      6  C   UNL     1      46.098   8.248  12.999  0.00  0.00    +0.000 A 
ENDROOT
BRANCH   1   7
ATOM      7  C   UNL     1      44.396   7.000  11.604  0.00  0.00    +0.000 C 
BRANCH   7   8
ATOM      8  N   UNL     1      43.740   5.726  11.884  0.00  0.00    +0.000 NA
ATOM      9  H   UNL     1      44.423   5.131  12.351  0.00  0.00    +0.000 HD
BRANCH   8  10
ATOM     10  C   UNL     1      43.286   5.003  10.699  0.00  0.00    +0.000 C 
BRANCH  10  12
ATOM     11  C   UNL     1      44.479   3.187  12.039  0.00  0.00    +0.000 C 
ATOM     12  C   UNL     1      43.893   3.570  10.671  0.00  0.00    +0.000 C 
BRANCH  12  13
ATOM     13  C   UNL     1      44.882   3.402   9.525  0.00  0.00    +0.000 A 
ATOM     14  C   UNL     1      45.276   2.125   9.109  0.00  0.00    +0.000 A 
ATOM     15  C   UNL     1      46.136   1.978   8.024  0.00  0.00    +0.000 A 
ATOM     16  C   UNL     1      46.576   3.119   7.374  0.00  0.00    +0.000 A 
ATOM     17  N   UNL     1      46.217   4.367   7.733  0.00  0.00    +0.000 NA
ATOM     18  C   UNL     1      45.388   4.480   8.796  0.00  0.00    +0.000 A 
ENDBRANCH  12  13
ENDBRANCH  10  12
ENDBRANCH   8  10
ENDBRANCH   7   8
ENDBRANCH   1   7
BRANCH   4  19
ATOM     19  C   UNL     1      49.547   7.349  14.363  0.00  0.00    +0.000 C 
BRANCH  19  20
ATOM     20  N   UNL     1      49.342   7.495  15.780  0.00  0.00    +0.000 N 
ATOM     21  C   UNL     1      48.964   6.427  16.549  0.00  0.00    +0.000 C 
ATOM     22  O   UNL     1      48.827   5.301  16.076  0.00  0.00    +0.000 OA
ATOM     23  H   UNL     1      49.256   8.439  16.143  0.00  0.00    +0.000 HD
BRANCH  21  24
ATOM     24  C   UNL     1      48.784   6.680  17.982  0.00  0.00    +0.000 A 
ATOM     25  C   UNL     1      49.122   5.694  18.898  0.00  0.00    +0.000 A 
ATOM     26  S   UNL     1      48.886   6.156  20.521  0.00  0.00    +0.000 S 
ATOM     27  C   UNL     1      48.282   7.676  20.057  0.00  0.00    +0.000 A 
ATOM     28  N   UNL     1      47.859   8.574  20.989  0.00  0.00    +0.000 NA
ATOM     29  C   UNL     1      47.399   9.674  20.498  0.00  0.00    +0.000 A 
ATOM     30  N   UNL     1      47.327   9.962  19.160  0.00  0.00    +0.000 N 
ATOM     31  C   UNL     1      47.762   9.099  18.183  0.00  0.00    +0.000 A 
ATOM     32  O   UNL     1      47.716   9.407  16.997  0.00  0.00    +0.000 OA
ATOM     33  C   UNL     1      48.277   7.837  18.682  0.00  0.00    +0.000 A 
ATOM     34  H   UNL     1      46.961  10.847  18.841  0.00  0.00    +0.000 HD
ENDBRANCH  21  24
ENDBRANCH  19  20
ENDBRANCH   4  19
TORSDOF 8
ENDMDL
MODEL 6
REMARK VINA RESULT:    -7.465      2.137      3.381
REMARK INTER + INTRA:         -11.641
REMARK INTER:                 -10.432
REMARK INTRA:                  -1.209
REMARK UNBOUND:                -0.685
REMARK  Name = 
REMARK  9 active torsions:
REMARK  status: ('A' for Active; 'I' for Inactive)
REMARK    1  A    between atoms: C_1  and  C_2
REMARK    2  A    between atoms: C_2  and  C_3
REMARK    3  A    between atoms: C_2  and  C_26
REMARK    4  A    between atoms: C_3  and  N_4
REMARK    5  A    between atoms: N_4  and  C_5
REMARK    6  A    between atoms: C_5  and  C_6
REMARK    7  A    between atoms: C_9  and  C_10
REMARK    8  A    between atoms: C_10  and  N_11
REMARK    9  A    between atoms: C_12  and  C_14
REMARK                            x       y       z     vdW  Elec       q    Type
REMARK                         _______ _______ _______ _____ _____    ______ ____
ROOT
ATOM      1  C   UNL     1      46.950   6.091  12.780  0.00  0.00    +0.000 A 
ATOM      2  C   UNL     1      47.933   6.878  13.404  0.00  0.00    +0.000 A 
ATOM      3  C   UNL     1      48.437   6.546  14.662  0.00  0.00    +0.000 A 
ATOM      4  C   UNL     1      47.959   5.424  15.340  0.00  0.00    +0.000 A 
ATOM      5  C   UNL     1      46.928   4.673  14.761  0.00  0.00    +0.000 A 
ATOM      6  C   UNL     1      46.432   5.001  13.493  0.00  0.00    +0.000 A 
ENDROOT
BRANCH   1   7
ATOM      7  C   UNL     1      46.413   6.413  11.394  0.00  0.00    +0.000 C 
BRANCH   7   8
ATOM      8  N   UNL     1      45.482   5.387  10.934  0.00  0.00    +0.000 NA
ATOM      9  H   UNL     1      45.762   4.509  11.368  0.00  0.00    +0.000 HD
BRANCH   8  10
ATOM     10  C   UNL     1      45.485   5.167   9.490  0.00  0.00    +0.000 C 
BRANCH  10  12
ATOM     11  C   UNL     1      44.166   3.179  10.399  0.00  0.00    +0.000 C 
ATOM     12  C   UNL     1      44.751   3.840   9.140  0.00  0.00    +0.000 C 
BRANCH  12  13
ATOM     13  C   UNL     1      45.637   2.907   8.327  0.00  0.00    +0.000 A 
ATOM     14  C   UNL     1      46.475   3.416   7.327  0.00  0.00    +0.000 A 
ATOM     15  C   UNL     1      47.325   2.563   6.628  0.00  0.00    +0.000 A 
ATOM     16  C   UNL     1      47.320   1.217   6.952  0.00  0.00    +0.000 A 
ATOM     17  N   UNL     1      46.538   0.684   7.911  0.00  0.00    +0.000 NA
ATOM     18  C   UNL     1      45.716   1.534   8.569  0.00  0.00    +0.000 A 
ENDBRANCH  12  13
ENDBRANCH  10  12
ENDBRANCH   8  10
ENDBRANCH   7   8
ENDBRANCH   1   7
BRANCH   4  19
ATOM     19  C   UNL     1      48.519   5.065  16.688  0.00  0.00    +0.000 C 
BRANCH  19  20
ATOM     20  N   UNL     1      48.486   6.196  17.577  0.00  0.00    +0.000 N 
ATOM     21  C   UNL     1      47.491   6.331  18.508  0.00  0.00    +0.000 C 
ATOM     22  O   UNL     1      46.617   5.480  18.652  0.00  0.00    +0.000 OA
ATOM     23  H   UNL     1      49.072   6.990  17.340  0.00  0.00    +0.000 HD
BRANCH  21  24
ATOM     24  C   UNL     1      47.551   7.518  19.367  0.00  0.00    +0.000 A 
ATOM     25  C   UNL     1      47.515   7.365  20.746  0.00  0.00    +0.000 A 
ATOM     26  S   UNL     1      47.628   8.834  21.601  0.00  0.00    +0.000 S 
ATOM     27  C   UNL     1      47.685   9.732  20.158  0.00  0.00    +0.000 A 
ATOM     28  N   UNL     1      47.756  11.091  20.183  0.00  0.00    +0.000 NA
ATOM     29  C   UNL     1      47.765  11.645  19.019  0.00  0.00    +0.000 A 
ATOM     30  N   UNL     1      47.713  10.966  17.830  0.00  0.00    +0.000 N 
ATOM     31  C   UNL     1      47.663   9.595  17.752  0.00  0.00    +0.000 A 
ATOM     32  O   UNL     1      47.656   9.020  16.669  0.00  0.00    +0.000 OA
ATOM     33  C   UNL     1      47.637   8.921  19.037  0.00  0.00    +0.000 A 
ATOM     34  H   UNL     1      47.730  11.461  16.951  0.00  0.00    +0.000 HD
ENDBRANCH  21  24
ENDBRANCH  19  20
ENDBRANCH   4  19
TORSDOF 8
ENDMDL
MODEL 7
REMARK VINA RESULT:    -7.393      1.837      2.313
REMARK INTER + INTRA:         -11.535
REMARK INTER:                 -10.020
REMARK INTRA:                  -1.514
REMARK UNBOUND:                -0.685
REMARK  Name = 
REMARK  9 active torsions:
REMARK  status: ('A' for Active; 'I' for Inactive)
REMARK    1  A    between atoms: C_1  and  C_2
REMARK    2  A    between atoms: C_2  and  C_3
REMARK    3  A    between atoms: C_2  and  C_26
REMARK    4  A    between atoms: C_3  and  N_4
REMARK    5  A    between atoms: N_4  and  C_5
REMARK    6  A    between atoms: C_5  and  C_6
REMARK    7  A    between atoms: C_9  and  C_10
REMARK    8  A    between atoms: C_10  and  N_11
REMARK    9  A    between atoms: C_12  and  C_14
REMARK                            x       y       z     vdW  Elec       q    Type
REMARK                         _______ _______ _______ _____ _____    ______ ____
ROOT
ATOM      1  C   UNL     1      45.765   7.370  11.925  0.00  0.00    +0.000 A 
ATOM      2  C   UNL     1      46.978   6.723  11.630  0.00  0.00    +0.000 A 
ATOM      3  C   UNL     1      48.158   7.055  12.295  0.00  0.00    +0.000 A 
ATOM      4  C   UNL     1      48.162   8.058  13.265  0.00  0.00    +0.000 A 
ATOM      5  C   UNL     1      46.976   8.761  13.516  0.00  0.00    +0.000 A 
ATOM      6  C   UNL     1      45.790   8.418  12.856  0.00  0.00    +0.000 A 
ENDROOT
BRANCH   1   7
ATOM      7  C   UNL     1      44.460   6.998  11.239  0.00  0.00    +0.000 C 
BRANCH   7   8
ATOM      8  N   UNL     1      43.961   5.710  11.710  0.00  0.00    +0.000 NA
ATOM      9  H   UNL     1      44.750   5.213  12.120  0.00  0.00    +0.000 HD
BRANCH   8  10
ATOM     10  C   UNL     1      43.415   4.850  10.662  0.00  0.00    +0.000 C 
BRANCH  10  12
ATOM     11  C   UNL     1      44.856   3.234  12.016  0.00  0.00    +0.000 C 
ATOM     12  C   UNL     1      44.098   3.452  10.696  0.00  0.00    +0.000 C 
BRANCH  12  13
ATOM     13  C   UNL     1      44.960   3.219   9.462  0.00  0.00    +0.000 A 
ATOM     14  C   UNL     1      45.430   4.302   8.711  0.00  0.00    +0.000 A 
ATOM     15  C   UNL     1      46.265   4.083   7.618  0.00  0.00    +0.000 A 
ATOM     16  C   UNL     1      46.615   2.781   7.307  0.00  0.00    +0.000 A 
ATOM     17  N   UNL     1      46.194   1.708   8.006  0.00  0.00    +0.000 NA
ATOM     18  C   UNL     1      45.377   1.949   9.057  0.00  0.00    +0.000 A 
ENDBRANCH  12  13
ENDBRANCH  10  12
ENDBRANCH   8  10
ENDBRANCH   7   8
ENDBRANCH   1   7
BRANCH   4  19
ATOM     19  C   UNL     1      49.435   8.399  13.988  0.00  0.00    +0.000 C 
BRANCH  19  20
ATOM     20  N   UNL     1      49.485   7.756  15.274  0.00  0.00    +0.000 N 
ATOM     21  C   UNL     1      50.660   7.249  15.762  0.00  0.00    +0.000 C 
ATOM     22  O   UNL     1      51.719   7.359  15.150  0.00  0.00    +0.000 OA
ATOM     23  H   UNL     1      48.601   7.484  15.692  0.00  0.00    +0.000 HD
BRANCH  21  24
ATOM     24  C   UNL     1      50.604   6.616  17.083  0.00  0.00    +0.000 A 
ATOM     25  C   UNL     1      51.504   7.004  18.065  0.00  0.00    +0.000 A 
ATOM     26  S   UNL     1      51.286   6.199  19.551  0.00  0.00    +0.000 S 
ATOM     27  C   UNL     1      50.007   5.271  18.923  0.00  0.00    +0.000 A 
ATOM     28  N   UNL     1      49.379   4.338  19.689  0.00  0.00    +0.000 NA
ATOM     29  C   UNL     1      48.447   3.688  19.079  0.00  0.00    +0.000 A 
ATOM     30  N   UNL     1      48.083   3.887  17.773  0.00  0.00    +0.000 N 
ATOM     31  C   UNL     1      48.671   4.831  16.967  0.00  0.00    +0.000 A 
ATOM     32  O   UNL     1      48.292   5.007  15.814  0.00  0.00    +0.000 OA
ATOM     33  C   UNL     1      49.737   5.583  17.601  0.00  0.00    +0.000 A 
ATOM     34  H   UNL     1      47.339   3.348  17.357  0.00  0.00    +0.000 HD
ENDBRANCH  21  24
ENDBRANCH  19  20
ENDBRANCH   4  19
TORSDOF 8
ENDMDL
MODEL 8
REMARK VINA RESULT:    -7.086      2.805      3.379
REMARK INTER + INTRA:         -11.084
REMARK INTER:                  -9.981
REMARK INTRA:                  -1.104
REMARK UNBOUND:                -0.685
REMARK  Name = 
REMARK  9 active torsions:
REMARK  status: ('A' for Active; 'I' for Inactive)
REMARK    1  A    between atoms: C_1  and  C_2
REMARK    2  A    between atoms: C_2  and  C_3
REMARK    3  A    between atoms: C_2  and  C_26
REMARK    4  A    between atoms: C_3  and  N_4
REMARK    5  A    between atoms: N_4  and  C_5
REMARK    6  A    between atoms: C_5  and  C_6
REMARK    7  A    between atoms: C_9  and  C_10
REMARK    8  A    between atoms: C_10  and  N_11
REMARK    9  A    between atoms: C_12  and  C_14
REMARK                            x       y       z     vdW  Elec       q    Type
REMARK                         _______ _______ _______ _____ _____    ______ ____
ROOT
ATOM      1  C   UNL     1      47.053   5.944  12.999  0.00  0.00    +0.000 A 
ATOM      2  C   UNL     1      47.899   6.708  13.822  0.00  0.00    +0.000 A 
ATOM      3  C   UNL     1      48.270   6.264  15.092  0.00  0.00    +0.000 A 
ATOM      4  C   UNL     1      47.791   5.049  15.582  0.00  0.00    +0.000 A 
ATOM      5  C   UNL     1      46.890   4.313  14.801  0.00  0.00    +0.000 A 
ATOM      6  C   UNL     1      46.528   4.754  13.522  0.00  0.00    +0.000 A 
ENDROOT
BRANCH   1   7
ATOM      7  C   UNL     1      46.667   6.391  11.597  0.00  0.00    +0.000 C 
BRANCH   7   8
ATOM      8  N   UNL     1      45.627   5.534  11.035  0.00  0.00    +0.000 NA
ATOM      9  H   UNL     1      45.761   4.602  11.426  0.00  0.00    +0.000 HD
BRANCH   8  10
ATOM     10  C   UNL     1      45.674   5.396   9.582  0.00  0.00    +0.000 C 
BRANCH  10  12
ATOM     11  C   UNL     1      43.972   3.631  10.292  0.00  0.00    +0.000 C 
ATOM     12  C   UNL     1      44.780   4.210   9.119  0.00  0.00    +0.000 C 
BRANCH  12  13
ATOM     13  C   UNL     1      45.587   3.159   8.368  0.00  0.00    +0.000 A 
ATOM     14  C   UNL     1      46.464   3.536   7.344  0.00  0.00    +0.000 A 
ATOM     15  C   UNL     1      47.241   2.576   6.702  0.00  0.00    +0.000 A 
ATOM     16  C   UNL     1      47.126   1.257   7.106  0.00  0.00    +0.000 A 
ATOM     17  N   UNL     1      46.302   0.849   8.091  0.00  0.00    +0.000 NA
ATOM     18  C   UNL     1      45.552   1.801   8.692  0.00  0.00    +0.000 A 
ENDBRANCH  12  13
ENDBRANCH  10  12
ENDBRANCH   8  10
ENDBRANCH   7   8
ENDBRANCH   1   7
BRANCH   4  19
ATOM     19  C   UNL     1      48.207   4.571  16.944  0.00  0.00    +0.000 C 
BRANCH  19  20
ATOM     20  N   UNL     1      49.391   5.257  17.391  0.00  0.00    +0.000 N 
ATOM     21  C   UNL     1      50.604   4.622  17.418  0.00  0.00    +0.000 C 
ATOM     22  O   UNL     1      50.741   3.466  17.025  0.00  0.00    +0.000 OA
ATOM     23  H   UNL     1      49.261   6.127  17.897  0.00  0.00    +0.000 HD
BRANCH  21  24
ATOM     24  C   UNL     1      51.748   5.410  17.886  0.00  0.00    +0.000 A 
ATOM     25  C   UNL     1      52.935   5.386  17.167  0.00  0.00    +0.000 A 
ATOM     26  S   UNL     1      54.154   6.379  17.824  0.00  0.00    +0.000 S 
ATOM     27  C   UNL     1      53.153   6.845  19.117  0.00  0.00    +0.000 A 
ATOM     28  N   UNL     1      53.610   7.686  20.085  0.00  0.00    +0.000 NA
ATOM     29  C   UNL     1      52.758   7.933  21.020  0.00  0.00    +0.000 A 
ATOM     30  N   UNL     1      51.488   7.421  21.075  0.00  0.00    +0.000 N 
ATOM     31  C   UNL     1      50.974   6.587  20.111  0.00  0.00    +0.000 A 
ATOM     32  O   UNL     1      49.819   6.179  20.174  0.00  0.00    +0.000 OA
ATOM     33  C   UNL     1      51.899   6.265  19.040  0.00  0.00    +0.000 A 
ATOM     34  H   UNL     1      50.866   7.660  21.833  0.00  0.00    +0.000 HD
ENDBRANCH  21  24
ENDBRANCH  19  20
ENDBRANCH   4  19
TORSDOF 8
ENDMDL
MODEL 9
REMARK VINA RESULT:    -6.796      3.979      6.423
REMARK INTER + INTRA:         -10.659
REMARK INTER:                  -9.714
REMARK INTRA:                  -0.946
REMARK UNBOUND:                -0.685
REMARK  Name = 
REMARK  9 active torsions:
REMARK  status: ('A' for Active; 'I' for Inactive)
REMARK    1  A    between atoms: C_1  and  C_2
REMARK    2  A    between atoms: C_2  and  C_3
REMARK    3  A    between atoms: C_2  and  C_26
REMARK    4  A    between atoms: C_3  and  N_4
REMARK    5  A    between atoms: N_4  and  C_5
REMARK    6  A    between atoms: C_5  and  C_6
REMARK    7  A    between atoms: C_9  and  C_10
REMARK    8  A    between atoms: C_10  and  N_11
REMARK    9  A    between atoms: C_12  and  C_14
REMARK                            x       y       z     vdW  Elec       q    Type
REMARK                         _______ _______ _______ _____ _____    ______ ____
ROOT
ATOM      1  C   UNL     1      45.100   7.469  12.170  0.00  0.00    +0.000 A 
ATOM      2  C   UNL     1      44.455   6.227  12.296  0.00  0.00    +0.000 A 
ATOM      3  C   UNL     1      45.016   5.191  13.044  0.00  0.00    +0.000 A 
ATOM      4  C   UNL     1      46.249   5.364  13.674  0.00  0.00    +0.000 A 
ATOM      5  C   UNL     1      46.937   6.572  13.496  0.00  0.00    +0.000 A 
ATOM      6  C   UNL     1      46.366   7.614  12.754  0.00  0.00    +0.000 A 
ENDROOT
BRANCH   1   7
ATOM      7  C   UNL     1      44.490   8.624  11.390  0.00  0.00    +0.000 C 
BRANCH   7   8
ATOM      8  N   UNL     1      44.366   9.818  12.221  0.00  0.00    +0.000 NA
ATOM      9  H   UNL     1      43.437   9.800  12.639  0.00  0.00    +0.000 HD
BRANCH   8  10
ATOM     10  C   UNL     1      44.479  11.079  11.492  0.00  0.00    +0.000 C 
BRANCH  10  12
ATOM     11  C   UNL     1      43.670  12.316   9.411  0.00  0.00    +0.000 C 
ATOM     12  C   UNL     1      43.375  11.177  10.400  0.00  0.00    +0.000 C 
BRANCH  12  13
ATOM     13  C   UNL     1      41.984  11.260  11.016  0.00  0.00    +0.000 A 
ATOM     14  C   UNL     1      41.047  10.245  10.790  0.00  0.00    +0.000 A 
ATOM     15  C   UNL     1      39.798  10.300  11.403  0.00  0.00    +0.000 A 
ATOM     16  C   UNL     1      39.519  11.370  12.236  0.00  0.00    +0.000 A 
ATOM     17  N   UNL     1      40.392  12.365  12.488  0.00  0.00    +0.000 NA
ATOM     18  C   UNL     1      41.595  12.291  11.873  0.00  0.00    +0.000 A 
ENDBRANCH  12  13
ENDBRANCH  10  12
ENDBRANCH   8  10
ENDBRANCH   7   8
ENDBRANCH   1   7
BRANCH   4  19
ATOM     19  C   UNL     1      46.839   4.248  14.491  0.00  0.00    +0.000 C 
BRANCH  19  20
ATOM     20  N   UNL     1      47.463   4.758  15.683  0.00  0.00    +0.000 N 
ATOM     21  C   UNL     1      47.222   4.185  16.903  0.00  0.00    +0.000 C 
ATOM     22  O   UNL     1      46.504   3.195  17.026  0.00  0.00    +0.000 OA
ATOM     23  H   UNL     1      47.889   5.677  15.628  0.00  0.00    +0.000 HD
BRANCH  21  24
ATOM     24  C   UNL     1      47.909   4.777  18.055  0.00  0.00    +0.000 A 
ATOM     25  C   UNL     1      47.240   5.695  18.852  0.00  0.00    +0.000 A 
ATOM     26  S   UNL     1      48.164   6.263  20.166  0.00  0.00    +0.000 S 
ATOM     27  C   UNL     1      49.507   5.334  19.693  0.00  0.00    +0.000 A 
ATOM     28  N   UNL     1      50.673   5.384  20.395  0.00  0.00    +0.000 NA
ATOM     29  C   UNL     1      51.617   4.652  19.910  0.00  0.00    +0.000 A 
ATOM     30  N   UNL     1      51.504   3.871  18.790  0.00  0.00    +0.000 N 
ATOM     31  C   UNL     1      50.343   3.770  18.061  0.00  0.00    +0.000 A 
ATOM     32  O   UNL     1      50.267   3.031  17.086  0.00  0.00    +0.000 OA
ATOM     33  C   UNL     1      49.249   4.586  18.557  0.00  0.00    +0.000 A 
ATOM     34  H   UNL     1      52.281   3.316  18.466  0.00  0.00    +0.000 HD
ENDBRANCH  21  24
ENDBRANCH  19  20
ENDBRANCH   4  19
TORSDOF 8
ENDMDL
