MODEL 1
REMARK VINA RESULT:    -8.262      0.000      0.000
REMARK INTER + INTRA:         -11.781
REMARK INTER:                 -10.676
REMARK INTRA:                  -1.105
REMARK UNBOUND:                -1.105
REMARK  Name = 
REMARK  5 active torsions:
REMARK  status: ('A' for Active; 'I' for Inactive)
REMARK    1  A    between atoms: C_5  and  C_6
REMARK    2  A    between atoms: C_6  and  C_7
REMARK    3  A    between atoms: C_10  and  C_11
REMARK    4  A    between atoms: C_11  and  N_12
REMARK    5  A    between atoms: C_13  and  C_15
REMARK                            x       y       z     vdW  Elec       q    Type
REMARK                         _______ _______ _______ _____ _____    ______ ____
ROOT
ATOM      1  C   UNL     1      44.409   3.197  10.459  0.00  0.00    +0.000 A 
ATOM      2  C   UNL     1      43.577   4.306  10.260  0.00  0.00    +0.000 A 
ATOM      3  C   UNL     1      43.585   5.374  11.163  0.00  0.00    +0.000 A 
ATOM      4  C   UNL     1      44.435   5.359  12.276  0.00  0.00    +0.000 A 
ATOM      5  C   UNL     1      45.229   4.228  12.502  0.00  0.00    +0.000 A 
ATOM      6  C   UNL     1      45.222   3.161  11.600  0.00  0.00    +0.000 A 
ENDROOT
BRANCH   1   7
ATOM      7  C   UNL     1      44.455   2.076   9.448  0.00  0.00    +0.000 C 
BRANCH   7  12
ATOM      8  N   UNL     1      48.505   2.393   5.514  0.00  0.00    +0.000 N 
ATOM      9  C   UNL     1      47.534   2.370   6.514  0.00  0.00    +0.000 A 
ATOM     10  C   UNL     1      46.776   3.498   6.784  0.00  0.00    +0.000 A 
ATOM     11  C   UNL     1      45.775   3.425   7.753  0.00  0.00    +0.000 A 
ATOM     12  C   UNL     1      45.546   2.221   8.419  0.00  0.00    +0.000 A 
ATOM     13  C   UNL     1      46.371   1.152   8.083  0.00  0.00    +0.000 A 
ATOM     14  N   UNL     1      47.348   1.201   7.147  0.00  0.00    +0.000 NA
ATOM     15  H   UNL     1      49.160   3.154   5.645  0.00  0.00    +0.000 HD
ATOM     16  H   UNL     1      48.965   1.486   5.532  0.00  0.00    +0.000 HD
ENDBRANCH   7  12
ENDBRANCH   1   7
BRANCH   4  17
ATOM     17  C   UNL     1      44.511   6.540  13.208  0.00  0.00    +0.000 C 
BRANCH  17  18
ATOM     18  N   UNL     1      45.725   7.296  13.037  0.00  0.00    +0.000 N 
ATOM     19  C   UNL     1      45.750   8.374  12.187  0.00  0.00    +0.000 C 
ATOM     20  O   UNL     1      44.739   8.760  11.603  0.00  0.00    +0.000 OA
ATOM     21  H   UNL     1      46.595   6.863  13.332  0.00  0.00    +0.000 HD
BRANCH  19  22
ATOM     22  C   UNL     1      47.025   9.085  12.044  0.00  0.00    +0.000 A 
ATOM     23  C   UNL     1      47.018  10.453  11.808  0.00  0.00    +0.000 A 
ATOM     24  S   UNL     1      48.574  11.138  11.687  0.00  0.00    +0.000 S 
ATOM     25  C   UNL     1      49.314   9.621  11.898  0.00  0.00    +0.000 A 
ATOM     26  N   UNL     1      50.669   9.496  11.864  0.00  0.00    +0.000 NA
ATOM     27  C   UNL     1      51.095   8.286  12.010  0.00  0.00    +0.000 A 
ATOM     28  N   UNL     1      50.291   7.192  12.193  0.00  0.00    +0.000 N 
ATOM     29  C   UNL     1      48.920   7.273  12.267  0.00  0.00    +0.000 A 
ATOM     30  O   UNL     1      48.232   6.284  12.484  0.00  0.00    +0.000 OA
ATOM     31  C   UNL     1      48.388   8.612  12.088  0.00  0.00    +0.000 A 
ATOM     32  H   UNL     1      50.690   6.273  12.314  0.00  0.00    +0.000 HD
ENDBRANCH  19  22
ENDBRANCH  17  18
ENDBRANCH   4  17
TORSDOF 5
ENDMDL
MODEL 2
REMARK VINA RESULT:    -8.236      3.463      4.338
REMARK INTER + INTRA:         -11.748
REMARK INTER:                 -11.551
REMARK INTRA:                  -0.198
REMARK UNBOUND:                -1.105
REMARK  Name = 
REMARK  5 active torsions:
REMARK  status: ('A' for Active; 'I' for Inactive)
REMARK    1  A    between atoms: C_5  and  C_6
REMARK    2  A    between atoms: C_6  and  C_7
REMARK    3  A    between atoms: C_10  and  C_11
REMARK    4  A    between atoms: C_11  and  N_12
REMARK    5  A    between atoms: C_13  and  C_15
REMARK                            x       y       z     vdW  Elec       q    Type
REMARK                         _______ _______ _______ _____ _____    ______ ____
ROOT
ATOM      1  C   UNL     1      45.097   3.846  10.372  0.00  0.00    +0.000 A 
ATOM      2  C   UNL     1      45.445   5.074   9.794  0.00  0.00    +0.000 A 
ATOM      3  C   UNL     1      45.774   6.171  10.596  0.00  0.00    +0.000 A 
ATOM      4  C   UNL     1      45.774   6.058  11.992  0.00  0.00    +0.000 A 
ATOM      5  C   UNL     1      45.375   4.846  12.570  0.00  0.00    +0.000 A 
ATOM      6  C   UNL     1      45.048   3.749  11.769  0.00  0.00    +0.000 A 
ENDROOT
BRANCH   1   7
ATOM      7  C   UNL     1      44.811   2.640   9.508  0.00  0.00    +0.000 C 
BRANCH   7  12
ATOM      8  N   UNL     1      48.179   2.465   4.968  0.00  0.00    +0.000 N 
ATOM      9  C   UNL     1      47.323   2.448   6.068  0.00  0.00    +0.000 A 
ATOM     10  C   UNL     1      47.306   1.362   6.930  0.00  0.00    +0.000 A 
ATOM     11  C   UNL     1      46.477   1.400   8.051  0.00  0.00    +0.000 A 
ATOM     12  C   UNL     1      45.696   2.530   8.293  0.00  0.00    +0.000 A 
ATOM     13  C   UNL     1      45.778   3.560   7.362  0.00  0.00    +0.000 A 
ATOM     14  N   UNL     1      46.574   3.543   6.266  0.00  0.00    +0.000 NA
ATOM     15  H   UNL     1      48.063   1.643   4.390  0.00  0.00    +0.000 HD
ATOM     16  H   UNL     1      47.982   3.323   4.458  0.00  0.00    +0.000 HD
ENDBRANCH   7  12
ENDBRANCH   1   7
BRANCH   4  17
ATOM     17  C   UNL     1      46.206   7.209  12.861  0.00  0.00    +0.000 C 
BRANCH  17  18
ATOM     18  N   UNL     1      46.812   6.769  14.091  0.00  0.00    +0.000 N 
ATOM     19  C   UNL     1      48.178   6.657  14.183  0.00  0.00    +0.000 C 
ATOM     20  O   UNL     1      48.916   6.984  13.256  0.00  0.00    +0.000 OA
ATOM     21  H   UNL     1      46.219   6.297  14.767  0.00  0.00    +0.000 HD
BRANCH  19  22
ATOM     22  C   UNL     1      48.727   6.182  15.458  0.00  0.00    +0.000 A 
ATOM     23  C   UNL     1      49.785   6.868  16.040  0.00  0.00    +0.000 A 
ATOM     24  S   UNL     1      50.297   6.208  17.526  0.00  0.00    +0.000 S 
ATOM     25  C   UNL     1      49.154   4.953  17.421  0.00  0.00    +0.000 A 
ATOM     26  N   UNL     1      49.082   3.993  18.384  0.00  0.00    +0.000 NA
ATOM     27  C   UNL     1      48.190   3.086  18.165  0.00  0.00    +0.000 A 
ATOM     28  N   UNL     1      47.359   3.056  17.077  0.00  0.00    +0.000 N 
ATOM     29  C   UNL     1      47.371   4.020  16.096  0.00  0.00    +0.000 A 
ATOM     30  O   UNL     1      46.579   3.992  15.162  0.00  0.00    +0.000 OA
ATOM     31  C   UNL     1      48.373   5.053  16.284  0.00  0.00    +0.000 A 
ATOM     32  H   UNL     1      46.672   2.323  16.973  0.00  0.00    +0.000 HD
ENDBRANCH  19  22
ENDBRANCH  17  18
ENDBRANCH   4  17
TORSDOF 5
ENDMDL
MODEL 3
REMARK VINA RESULT:    -7.446      1.942      2.568
REMARK INTER + INTRA:         -10.727
REMARK INTER:                  -9.979
REMARK INTRA:                  -0.748
REMARK UNBOUND:                -1.105
REMARK  Name = 
REMARK  5 active torsions:
REMARK  status: ('A' for Active; 'I' for Inactive)
REMARK    1  A    between atoms: C_5  and  C_6
REMARK    2  A    between atoms: C_6  and  C_7
REMARK    3  A    between atoms: C_10  and  C_11
REMARK    4  A    between atoms: C_11  and  N_12
REMARK    5  A    between atoms: C_13  and  C_15
REMARK                            x       y       z     vdW  Elec       q    Type
REMARK                         _______ _______ _______ _____ _____    ______ ____
ROOT
ATOM      1  C   UNL     1      44.812   3.582  10.397  0.00  0.00    +0.000 A 
ATOM      2  C   UNL     1      44.744   3.245  11.755  0.00  0.00    +0.000 A 
ATOM      3  C   UNL     1      44.983   4.208  12.741  0.00  0.00    +0.000 A 
ATOM      4  C   UNL     1      45.280   5.530  12.387  0.00  0.00    +0.000 A 
ATOM      5  C   UNL     1      45.398   5.854  11.030  0.00  0.00    +0.000 A 
ATOM      6  C   UNL     1      45.159   4.893  10.045  0.00  0.00    +0.000 A 
ENDROOT
BRANCH   1   7
ATOM      7  C   UNL     1      44.484   2.562   9.332  0.00  0.00    +0.000 C 
BRANCH   7  12
ATOM      8  N   UNL     1      48.402   2.401   5.257  0.00  0.00    +0.000 N 
ATOM      9  C   UNL     1      47.417   2.377   6.243  0.00  0.00    +0.000 A 
ATOM     10  C   UNL     1      47.360   1.336   7.156  0.00  0.00    +0.000 A 
ATOM     11  C   UNL     1      46.395   1.372   8.163  0.00  0.00    +0.000 A 
ATOM     12  C   UNL     1      45.521   2.455   8.244  0.00  0.00    +0.000 A 
ATOM     13  C   UNL     1      45.654   3.441   7.271  0.00  0.00    +0.000 A 
ATOM     14  N   UNL     1      46.581   3.426   6.284  0.00  0.00    +0.000 NA
ATOM     15  H   UNL     1      48.412   1.545   4.717  0.00  0.00    +0.000 HD
ATOM     16  H   UNL     1      48.217   3.217   4.678  0.00  0.00    +0.000 HD
ENDBRANCH   7  12
ENDBRANCH   1   7
BRANCH   4  17
ATOM     17  C   UNL     1      45.457   6.591  13.440  0.00  0.00    +0.000 C 
BRANCH  17  18
ATOM     18  N   UNL     1      46.789   7.139  13.448  0.00  0.00    +0.000 N 
ATOM     19  C   UNL     1      47.797   6.488  14.116  0.00  0.00    +0.000 C 
ATOM     20  O   UNL     1      47.612   5.404  14.666  0.00  0.00    +0.000 OA
ATOM     21  H   UNL     1      46.899   8.117  13.194  0.00  0.00    +0.000 HD
BRANCH  19  22
ATOM     22  C   UNL     1      49.124   7.113  14.101  0.00  0.00    +0.000 A 
ATOM     23  C   UNL     1      49.850   7.197  15.282  0.00  0.00    +0.000 A 
ATOM     24  S   UNL     1      51.378   7.928  15.099  0.00  0.00    +0.000 S 
ATOM     25  C   UNL     1      51.106   8.203  13.443  0.00  0.00    +0.000 A 
ATOM     26  N   UNL     1      52.035   8.841  12.680  0.00  0.00    +0.000 NA
ATOM     27  C   UNL     1      51.688   9.008  11.448  0.00  0.00    +0.000 A 
ATOM     28  N   UNL     1      50.501   8.589  10.908  0.00  0.00    +0.000 N 
ATOM     29  C   UNL     1      49.546   7.912  11.630  0.00  0.00    +0.000 A 
ATOM     30  O   UNL     1      48.517   7.505  11.106  0.00  0.00    +0.000 OA
ATOM     31  C   UNL     1      49.879   7.717  13.029  0.00  0.00    +0.000 A 
ATOM     32  H   UNL     1      50.297   8.740   9.931  0.00  0.00    +0.000 HD
ENDBRANCH  19  22
ENDBRANCH  17  18
ENDBRANCH   4  17
TORSDOF 5
ENDMDL
MODEL 4
REMARK VINA RESULT:    -7.393      4.726      5.439
REMARK INTER + INTRA:         -10.658
REMARK INTER:                  -9.681
REMARK INTRA:                  -0.977
REMARK UNBOUND:                -1.105
REMARK  Name = 
REMARK  5 active torsions:
REMARK  status: ('A' for Active; 'I' for Inactive)
REMARK    1  A    between atoms: C_5  and  C_6
REMARK    2  A    between atoms: C_6  and  C_7
REMARK    3  A    between atoms: C_10  and  C_11
REMARK    4  A    between atoms: C_11  and  N_12
REMARK    5  A    between atoms: C_13  and  C_15
REMARK                            x       y       z     vdW  Elec       q    Type
REMARK                         _______ _______ _______ _____ _____    ______ ____
ROOT
ATOM      1  C   UNL     1      45.395   5.215  11.533  0.00  0.00    +0.000 A 
ATOM      2  C   UNL     1      45.834   6.526  11.304  0.00  0.00    +0.000 A 
ATOM      3  C   UNL     1      46.788   7.115  12.141  0.00  0.00    +0.000 A 
ATOM      4  C   UNL     1      47.331   6.399  13.215  0.00  0.00    +0.000 A 
ATOM      5  C   UNL     1      46.855   5.108  13.474  0.00  0.00    +0.000 A 
ATOM      6  C   UNL     1      45.903   4.519  12.637  0.00  0.00    +0.000 A 
ENDROOT
BRANCH   1   7
ATOM      7  C   UNL     1      44.419   4.553  10.589  0.00  0.00    +0.000 C 
BRANCH   7  12
ATOM      8  N   UNL     1      47.023   1.946   6.299  0.00  0.00    +0.000 N 
ATOM      9  C   UNL     1      46.329   2.546   7.348  0.00  0.00    +0.000 A 
ATOM     10  C   UNL     1      45.838   1.781   8.395  0.00  0.00    +0.000 A 
ATOM     11  C   UNL     1      45.194   2.420   9.455  0.00  0.00    +0.000 A 
ATOM     12  C   UNL     1      45.072   3.809   9.453  0.00  0.00    +0.000 A 
ATOM     13  C   UNL     1      45.588   4.482   8.350  0.00  0.00    +0.000 A 
ATOM     14  N   UNL     1      46.214   3.883   7.309  0.00  0.00    +0.000 NA
ATOM     15  H   UNL     1      46.492   1.194   5.879  0.00  0.00    +0.000 HD
ATOM     16  H   UNL     1      47.237   2.683   5.631  0.00  0.00    +0.000 HD
ENDBRANCH   7  12
ENDBRANCH   1   7
BRANCH   4  17
ATOM     17  C   UNL     1      48.418   6.994  14.070  0.00  0.00    +0.000 C 
BRANCH  17  18
ATOM     18  N   UNL     1      48.176   6.800  15.476  0.00  0.00    +0.000 N 
ATOM     19  C   UNL     1      48.846   7.562  16.401  0.00  0.00    +0.000 C 
ATOM     20  O   UNL     1      49.613   8.461  16.063  0.00  0.00    +0.000 OA
ATOM     21  H   UNL     1      47.727   5.935  15.763  0.00  0.00    +0.000 HD
BRANCH  19  22
ATOM     22  C   UNL     1      48.567   7.297  17.817  0.00  0.00    +0.000 A 
ATOM     23  C   UNL     1      48.122   8.332  18.628  0.00  0.00    +0.000 A 
ATOM     24  S   UNL     1      47.822   7.863  20.239  0.00  0.00    +0.000 S 
ATOM     25  C   UNL     1      48.323   6.269  19.922  0.00  0.00    +0.000 A 
ATOM     26  N   UNL     1      48.344   5.335  20.912  0.00  0.00    +0.000 NA
ATOM     27  C   UNL     1      48.772   4.174  20.540  0.00  0.00    +0.000 A 
ATOM     28  N   UNL     1      49.173   3.863  19.269  0.00  0.00    +0.000 N 
ATOM     29  C   UNL     1      49.139   4.762  18.229  0.00  0.00    +0.000 A 
ATOM     30  O   UNL     1      49.456   4.437  17.091  0.00  0.00    +0.000 OA
ATOM     31  C   UNL     1      48.685   6.090  18.599  0.00  0.00    +0.000 A 
ATOM     32  H   UNL     1      49.486   2.930  19.040  0.00  0.00    +0.000 HD
ENDBRANCH  19  22
ENDBRANCH  17  18
ENDBRANCH   4  17
TORSDOF 5
ENDMDL
MODEL 5
REMARK VINA RESULT:    -7.281      5.160      8.281
REMARK INTER + INTRA:         -10.514
REMARK INTER:                  -9.622
REMARK INTRA:                  -0.891
REMARK UNBOUND:                -1.105
REMARK  Name = 
REMARK  5 active torsions:
REMARK  status: ('A' for Active; 'I' for Inactive)
REMARK    1  A    between atoms: C_5  and  C_6
REMARK    2  A    between atoms: C_6  and  C_7
REMARK    3  A    between atoms: C_10  and  C_11
REMARK    4  A    between atoms: C_11  and  N_12
REMARK    5  A    between atoms: C_13  and  C_15
REMARK                            x       y       z     vdW  Elec       q    Type
REMARK                         _______ _______ _______ _____ _____    ______ ____
ROOT
ATOM      1  C   UNL     1      49.762   5.711  17.010  0.00  0.00    +0.000 A 
ATOM      2  C   UNL     1      48.519   5.334  16.484  0.00  0.00    +0.000 A 
ATOM      3  C   UNL     1      48.061   5.879  15.280  0.00  0.00    +0.000 A 
ATOM      4  C   UNL     1      48.841   6.803  14.574  0.00  0.00    +0.000 A 
ATOM      5  C   UNL     1      50.059   7.218  15.126  0.00  0.00    +0.000 A 
ATOM      6  C   UNL     1      50.518   6.673  16.328  0.00  0.00    +0.000 A 
ENDROOT
BRANCH   1   7
ATOM      7  C   UNL     1      50.291   5.071  18.272  0.00  0.00    +0.000 C 
BRANCH   7  12
ATOM      8  N   UNL     1      52.882   0.158  17.207  0.00  0.00    +0.000 N 
ATOM      9  C   UNL     1      52.265   1.364  17.534  0.00  0.00    +0.000 A 
ATOM     10  C   UNL     1      52.985   2.381  18.140  0.00  0.00    +0.000 A 
ATOM     11  C   UNL     1      52.350   3.595  18.405  0.00  0.00    +0.000 A 
ATOM     12  C   UNL     1      51.015   3.769  18.043  0.00  0.00    +0.000 A 
ATOM     13  C   UNL     1      50.379   2.682  17.451  0.00  0.00    +0.000 A 
ATOM     14  N   UNL     1      50.975   1.494  17.187  0.00  0.00    +0.000 NA
ATOM     15  H   UNL     1      53.344  -0.256  18.007  0.00  0.00    +0.000 HD
ATOM     16  H   UNL     1      52.158  -0.448  16.829  0.00  0.00    +0.000 HD
ENDBRANCH   7  12
ENDBRANCH   1   7
BRANCH   4  17
ATOM     17  C   UNL     1      48.393   7.333  13.238  0.00  0.00    +0.000 C 
BRANCH  17  18
ATOM     18  N   UNL     1      47.659   6.353  12.479  0.00  0.00    +0.000 N 
ATOM     19  C   UNL     1      46.546   6.727  11.767  0.00  0.00    +0.000 C 
ATOM     20  O   UNL     1      46.182   7.900  11.706  0.00  0.00    +0.000 OA
ATOM     21  H   UNL     1      47.815   5.373  12.697  0.00  0.00    +0.000 HD
BRANCH  19  22
ATOM     22  C   UNL     1      45.833   5.675  11.034  0.00  0.00    +0.000 A 
ATOM     23  C   UNL     1      45.871   5.668   9.646  0.00  0.00    +0.000 A 
ATOM     24  S   UNL     1      45.015   4.373   8.942  0.00  0.00    +0.000 S 
ATOM     25  C   UNL     1      44.523   3.801  10.467  0.00  0.00    +0.000 A 
ATOM     26  N   UNL     1      43.717   2.710  10.575  0.00  0.00    +0.000 NA
ATOM     27  C   UNL     1      43.397   2.403  11.788  0.00  0.00    +0.000 A 
ATOM     28  N   UNL     1      43.816   3.083  12.901  0.00  0.00    +0.000 N 
ATOM     29  C   UNL     1      44.657   4.170  12.844  0.00  0.00    +0.000 A 
ATOM     30  O   UNL     1      45.054   4.725  13.861  0.00  0.00    +0.000 OA
ATOM     31  C   UNL     1      45.029   4.570  11.499  0.00  0.00    +0.000 A 
ATOM     32  H   UNL     1      43.540   2.781  13.824  0.00  0.00    +0.000 HD
ENDBRANCH  19  22
ENDBRANCH  17  18
ENDBRANCH   4  17
TORSDOF 5
ENDMDL
MODEL 6
REMARK VINA RESULT:    -7.000      4.343      5.073
REMARK INTER + INTRA:         -10.151
REMARK INTER:                  -9.295
REMARK INTRA:                  -0.856
REMARK UNBOUND:                -1.105
REMARK  Name = 
REMARK  5 active torsions:
REMARK  status: ('A' for Active; 'I' for Inactive)
REMARK    1  A    between atoms: C_5  and  C_6
REMARK    2  A    between atoms: C_6  and  C_7
REMARK    3  A    between atoms: C_10  and  C_11
REMARK    4  A    between atoms: C_11  and  N_12
REMARK    5  A    between atoms: C_13  and  C_15
REMARK                            x       y       z     vdW  Elec       q    Type
REMARK                         _______ _______ _______ _____ _____    ______ ____
ROOT
ATOM      1  C   UNL     1      45.036   5.240  11.252  0.00  0.00    +0.000 A 
ATOM      2  C   UNL     1      45.207   6.627  11.147  0.00  0.00    +0.000 A 
ATOM      3  C   UNL     1      46.031   7.313  12.045  0.00  0.00    +0.000 A 
ATOM      4  C   UNL     1      46.710   6.624  13.058  0.00  0.00    +0.000 A 
ATOM      5  C   UNL     1      46.498   5.246  13.194  0.00  0.00    +0.000 A 
ATOM      6  C   UNL     1      45.675   4.560  12.297  0.00  0.00    +0.000 A 
ENDROOT
BRANCH   1   7
ATOM      7  C   UNL     1      44.204   4.486  10.241  0.00  0.00    +0.000 C 
BRANCH   7  12
ATOM      8  N   UNL     1      47.408   1.614   6.571  0.00  0.00    +0.000 N 
ATOM      9  C   UNL     1      46.566   2.282   7.458  0.00  0.00    +0.000 A 
ATOM     10  C   UNL     1      45.850   1.577   8.413  0.00  0.00    +0.000 A 
ATOM     11  C   UNL     1      45.058   2.282   9.321  0.00  0.00    +0.000 A 
ATOM     12  C   UNL     1      45.014   3.674   9.263  0.00  0.00    +0.000 A 
ATOM     13  C   UNL     1      45.760   4.284   8.259  0.00  0.00    +0.000 A 
ATOM     14  N   UNL     1      46.533   3.620   7.366  0.00  0.00    +0.000 NA
ATOM     15  H   UNL     1      46.923   0.875   6.078  0.00  0.00    +0.000 HD
ATOM     16  H   UNL     1      47.780   2.317   5.936  0.00  0.00    +0.000 HD
ENDBRANCH   7  12
ENDBRANCH   1   7
BRANCH   4  17
ATOM     17  C   UNL     1      47.662   7.341  13.977  0.00  0.00    +0.000 C 
BRANCH  17  18
ATOM     18  N   UNL     1      48.154   6.489  15.029  0.00  0.00    +0.000 N 
ATOM     19  C   UNL     1      48.843   7.030  16.086  0.00  0.00    +0.000 C 
ATOM     20  O   UNL     1      49.005   8.243  16.199  0.00  0.00    +0.000 OA
ATOM     21  H   UNL     1      48.220   5.493  14.838  0.00  0.00    +0.000 HD
BRANCH  19  22
ATOM     22  C   UNL     1      49.335   6.102  17.111  0.00  0.00    +0.000 A 
ATOM     23  C   UNL     1      48.432   5.518  17.989  0.00  0.00    +0.000 A 
ATOM     24  S   UNL     1      49.152   4.450  19.105  0.00  0.00    +0.000 S 
ATOM     25  C   UNL     1      50.704   4.766  18.485  0.00  0.00    +0.000 A 
ATOM     26  N   UNL     1      51.805   4.181  19.032  0.00  0.00    +0.000 NA
ATOM     27  C   UNL     1      52.920   4.531  18.483  0.00  0.00    +0.000 A 
ATOM     28  N   UNL     1      53.033   5.405  17.435  0.00  0.00    +0.000 N 
ATOM     29  C   UNL     1      51.949   5.995  16.829  0.00  0.00    +0.000 A 
ATOM     30  O   UNL     1      52.080   6.732  15.860  0.00  0.00    +0.000 OA
ATOM     31  C   UNL     1      50.670   5.651  17.423  0.00  0.00    +0.000 A 
ATOM     32  H   UNL     1      53.937   5.626  17.043  0.00  0.00    +0.000 HD
ENDBRANCH  19  22
ENDBRANCH  17  18
ENDBRANCH   4  17
TORSDOF 5
ENDMDL
MODEL 7
REMARK VINA RESULT:    -6.884      4.651      5.475
REMARK INTER + INTRA:         -10.002
REMARK INTER:                  -9.070
REMARK INTRA:                  -0.932
REMARK UNBOUND:                -1.105
REMARK  Name = 
REMARK  5 active torsions:
REMARK  status: ('A' for Active; 'I' for Inactive)
REMARK    1  A    between atoms: C_5  and  C_6
REMARK    2  A    between atoms: C_6  and  C_7
REMARK    3  A    between atoms: C_10  and  C_11
REMARK    4  A    between atoms: C_11  and  N_12
REMARK    5  A    between atoms: C_13  and  C_15
REMARK                            x       y       z     vdW  Elec       q    Type
REMARK                         _______ _______ _______ _____ _____    ______ ____
ROOT
ATOM      1  C   UNL     1      45.349   5.868  12.065  0.00  0.00    +0.000 A 
ATOM      2  C   UNL     1      46.589   5.490  12.596  0.00  0.00    +0.000 A 
ATOM      3  C   UNL     1      47.417   6.432  13.213  0.00  0.00    +0.000 A 
ATOM      4  C   UNL     1      47.016   7.770  13.322  0.00  0.00    +0.000 A 
ATOM      5  C   UNL     1      45.800   8.158  12.746  0.00  0.00    +0.000 A 
ATOM      6  C   UNL     1      44.971   7.216  12.130  0.00  0.00    +0.000 A 
ENDROOT
BRANCH   1   7
ATOM      7  C   UNL     1      44.421   4.839  11.463  0.00  0.00    +0.000 C 
BRANCH   7  12
ATOM      8  N   UNL     1      46.490   2.732   6.640  0.00  0.00    +0.000 N 
ATOM      9  C   UNL     1      45.921   3.220   7.815  0.00  0.00    +0.000 A 
ATOM     10  C   UNL     1      45.337   2.354   8.726  0.00  0.00    +0.000 A 
ATOM     11  C   UNL     1      44.825   2.869   9.917  0.00  0.00    +0.000 A 
ATOM     12  C   UNL     1      44.924   4.236  10.177  0.00  0.00    +0.000 A 
ATOM     13  C   UNL     1      45.517   5.019   9.193  0.00  0.00    +0.000 A 
ATOM     14  N   UNL     1      46.018   4.541   8.029  0.00  0.00    +0.000 NA
ATOM     15  H   UNL     1      45.838   2.163   6.116  0.00  0.00    +0.000 HD
ATOM     16  H   UNL     1      46.804   3.542   6.109  0.00  0.00    +0.000 HD
ENDBRANCH   7  12
ENDBRANCH   1   7
BRANCH   4  17
ATOM     17  C   UNL     1      47.864   8.774  14.056  0.00  0.00    +0.000 C 
BRANCH  17  18
ATOM     18  N   UNL     1      47.538   8.846  15.457  0.00  0.00    +0.000 N 
ATOM     19  C   UNL     1      48.303   9.611  16.303  0.00  0.00    +0.000 C 
ATOM     20  O   UNL     1      49.235  10.297  15.888  0.00  0.00    +0.000 OA
ATOM     21  H   UNL     1      46.926   8.129  15.837  0.00  0.00    +0.000 HD
BRANCH  19  22
ATOM     22  C   UNL     1      47.927   9.621  17.721  0.00  0.00    +0.000 A 
ATOM     23  C   UNL     1      47.593  10.825  18.328  0.00  0.00    +0.000 A 
ATOM     24  S   UNL     1      47.160  10.670  19.969  0.00  0.00    +0.000 S 
ATOM     25  C   UNL     1      47.451   8.995  19.941  0.00  0.00    +0.000 A 
ATOM     26  N   UNL     1      47.299   8.243  21.066  0.00  0.00    +0.000 NA
ATOM     27  C   UNL     1      47.580   6.992  20.911  0.00  0.00    +0.000 A 
ATOM     28  N   UNL     1      47.991   6.425  19.733  0.00  0.00    +0.000 N 
ATOM     29  C   UNL     1      48.127   7.137  18.565  0.00  0.00    +0.000 A 
ATOM     30  O   UNL     1      48.447   6.591  17.517  0.00  0.00    +0.000 OA
ATOM     31  C   UNL     1      47.844   8.555  18.691  0.00  0.00    +0.000 A 
ATOM     32  H   UNL     1      48.182   5.435  19.677  0.00  0.00    +0.000 HD
ENDBRANCH  19  22
ENDBRANCH  17  18
ENDBRANCH   4  17
TORSDOF 5
ENDMDL
MODEL 8
REMARK VINA RESULT:    -6.854      3.139      7.231
REMARK INTER + INTRA:          -9.962
REMARK INTER:                  -9.132
REMARK INTRA:                  -0.831
REMARK UNBOUND:                -1.105
REMARK  Name = 
REMARK  5 active torsions:
REMARK  status: ('A' for Active; 'I' for Inactive)
REMARK    1  A    between atoms: C_5  and  C_6
REMARK    2  A    between atoms: C_6  and  C_7
REMARK    3  A    between atoms: C_10  and  C_11
REMARK    4  A    between atoms: C_11  and  N_12
REMARK    5  A    between atoms: C_13  and  C_15
REMARK                            x       y       z     vdW  Elec       q    Type
REMARK                         _______ _______ _______ _____ _____    ______ ____
ROOT
ATOM      1  C   UNL     1      50.541   8.938  11.285  0.00  0.00    +0.000 A 
ATOM      2  C   UNL     1      49.600   9.963  11.446  0.00  0.00    +0.000 A 
ATOM      3  C   UNL     1      48.327   9.688  11.955  0.00  0.00    +0.000 A 
ATOM      4  C   UNL     1      47.974   8.383  12.324  0.00  0.00    +0.000 A 
ATOM      5  C   UNL     1      48.897   7.351  12.114  0.00  0.00    +0.000 A 
ATOM      6  C   UNL     1      50.170   7.626  11.607  0.00  0.00    +0.000 A 
ENDROOT
BRANCH   1   7
ATOM      7  C   UNL     1      51.940   9.244  10.804  0.00  0.00    +0.000 C 
BRANCH   7  12
ATOM      8  N   UNL     1      54.887   4.619   9.423  0.00  0.00    +0.000 N 
ATOM      9  C   UNL     1      54.175   5.784   9.702  0.00  0.00    +0.000 A 
ATOM     10  C   UNL     1      53.182   6.224   8.842  0.00  0.00    +0.000 A 
ATOM     11  C   UNL     1      52.452   7.365   9.178  0.00  0.00    +0.000 A 
ATOM     12  C   UNL     1      52.722   8.029  10.374  0.00  0.00    +0.000 A 
ATOM     13  C   UNL     1      53.747   7.513  11.160  0.00  0.00    +0.000 A 
ATOM     14  N   UNL     1      54.469   6.409  10.853  0.00  0.00    +0.000 NA
ATOM     15  H   UNL     1      55.298   4.643   8.499  0.00  0.00    +0.000 HD
ATOM     16  H   UNL     1      55.590   4.524  10.153  0.00  0.00    +0.000 HD
ENDBRANCH   7  12
ENDBRANCH   1   7
BRANCH   4  17
ATOM     17  C   UNL     1      46.636   8.091  12.949  0.00  0.00    +0.000 C 
BRANCH  17  18
ATOM     18  N   UNL     1      46.159   6.770  12.630  0.00  0.00    +0.000 N 
ATOM     19  C   UNL     1      45.146   6.606  11.718  0.00  0.00    +0.000 C 
ATOM     20  O   UNL     1      44.663   7.559  11.110  0.00  0.00    +0.000 OA
ATOM     21  H   UNL     1      46.389   6.018  13.272  0.00  0.00    +0.000 HD
BRANCH  19  22
ATOM     22  C   UNL     1      44.694   5.234  11.457  0.00  0.00    +0.000 A 
ATOM     23  C   UNL     1      43.955   4.566  12.424  0.00  0.00    +0.000 A 
ATOM     24  S   UNL     1      43.487   2.993  11.965  0.00  0.00    +0.000 S 
ATOM     25  C   UNL     1      44.297   3.130  10.476  0.00  0.00    +0.000 A 
ATOM     26  N   UNL     1      44.318   2.092   9.596  0.00  0.00    +0.000 NA
ATOM     27  C   UNL     1      44.992   2.322   8.519  0.00  0.00    +0.000 A 
ATOM     28  N   UNL     1      45.639   3.496   8.239  0.00  0.00    +0.000 N 
ATOM     29  C   UNL     1      45.618   4.583   9.081  0.00  0.00    +0.000 A 
ATOM     30  O   UNL     1      46.163   5.637   8.778  0.00  0.00    +0.000 OA
ATOM     31  C   UNL     1      44.891   4.369  10.319  0.00  0.00    +0.000 A 
ATOM     32  H   UNL     1      46.138   3.616   7.370  0.00  0.00    +0.000 HD
ENDBRANCH  19  22
ENDBRANCH  17  18
ENDBRANCH   4  17
TORSDOF 5
ENDMDL
MODEL 9
REMARK VINA RESULT:    -6.816      2.255      2.645
REMARK INTER + INTRA:          -9.914
REMARK INTER:                  -9.622
REMARK INTRA:                  -0.291
REMARK UNBOUND:                -1.105
REMARK  Name = 
REMARK  5 active torsions:
REMARK  status: ('A' for Active; 'I' for Inactive)
REMARK    1  A    between atoms: C_5  and  C_6
REMARK    2  A    between atoms: C_6  and  C_7
REMARK    3  A    between atoms: C_10  and  C_11
REMARK    4  A    between atoms: C_11  and  N_12
REMARK    5  A    between atoms: C_13  and  C_15
REMARK                            x       y       z     vdW  Elec       q    Type
REMARK                         _______ _______ _______ _____ _____    ______ ____
ROOT
ATOM      1  C   UNL     1      44.585   4.492  10.265  0.00  0.00    +0.000 A 
ATOM      2  C   UNL     1      45.757   5.240  10.092  0.00  0.00    +0.000 A 
ATOM      3  C   UNL     1      46.025   6.343  10.909  0.00  0.00    +0.000 A 
ATOM      4  C   UNL     1      45.133   6.712  11.923  0.00  0.00    +0.000 A 
ATOM      5  C   UNL     1      43.937   5.996  12.061  0.00  0.00    +0.000 A 
ATOM      6  C   UNL     1      43.669   4.893  11.246  0.00  0.00    +0.000 A 
ENDROOT
BRANCH   1   7
ATOM      7  C   UNL     1      44.327   3.258   9.433  0.00  0.00    +0.000 C 
BRANCH   7  12
ATOM      8  N   UNL     1      48.341   1.861   5.702  0.00  0.00    +0.000 N 
ATOM      9  C   UNL     1      47.388   2.261   6.637  0.00  0.00    +0.000 A 
ATOM     10  C   UNL     1      46.833   3.530   6.577  0.00  0.00    +0.000 A 
ATOM     11  C   UNL     1      45.843   3.879   7.495  0.00  0.00    +0.000 A 
ATOM     12  C   UNL     1      45.418   2.946   8.441  0.00  0.00    +0.000 A 
ATOM     13  C   UNL     1      46.048   1.706   8.424  0.00  0.00    +0.000 A 
ATOM     14  N   UNL     1      47.012   1.346   7.544  0.00  0.00    +0.000 NA
ATOM     15  H   UNL     1      49.116   2.510   5.655  0.00  0.00    +0.000 HD
ATOM     16  H   UNL     1      48.641   0.927   5.971  0.00  0.00    +0.000 HD
ENDBRANCH   7  12
ENDBRANCH   1   7
BRANCH   4  17
ATOM     17  C   UNL     1      45.452   7.847  12.859  0.00  0.00    +0.000 C 
BRANCH  17  18
ATOM     18  N   UNL     1      46.644   7.602  13.630  0.00  0.00    +0.000 N 
ATOM     19  C   UNL     1      47.681   8.501  13.598  0.00  0.00    +0.000 C 
ATOM     20  O   UNL     1      47.602   9.555  12.971  0.00  0.00    +0.000 OA
ATOM     21  H   UNL     1      46.804   6.655  13.962  0.00  0.00    +0.000 HD
BRANCH  19  22
ATOM     22  C   UNL     1      48.873   8.178  14.389  0.00  0.00    +0.000 A 
ATOM     23  C   UNL     1      48.732   7.863  15.734  0.00  0.00    +0.000 A 
ATOM     24  S   UNL     1      50.202   7.491  16.511  0.00  0.00    +0.000 S 
ATOM     25  C   UNL     1      51.088   7.784  15.089  0.00  0.00    +0.000 A 
ATOM     26  N   UNL     1      52.444   7.675  15.078  0.00  0.00    +0.000 NA
ATOM     27  C   UNL     1      52.991   7.953  13.941  0.00  0.00    +0.000 A 
ATOM     28  N   UNL     1      52.304   8.322  12.815  0.00  0.00    +0.000 N 
ATOM     29  C   UNL     1      50.932   8.414  12.769  0.00  0.00    +0.000 A 
ATOM     30  O   UNL     1      50.345   8.697  11.732  0.00  0.00    +0.000 OA
ATOM     31  C   UNL     1      50.270   8.132  14.029  0.00  0.00    +0.000 A 
ATOM     32  H   UNL     1      52.792   8.514  11.952  0.00  0.00    +0.000 HD
ENDBRANCH  19  22
ENDBRANCH  17  18
ENDBRANCH   4  17
TORSDOF 5
ENDMDL
