MODEL 1
REMARK VINA RESULT:    -8.259      0.000      0.000
REMARK INTER + INTRA:         -13.567
REMARK INTER:                 -13.086
REMARK INTRA:                  -0.480
REMARK UNBOUND:                -0.480
REMARK  Name = 
REMARK  11 active torsions:
REMARK  status: ('A' for Active; 'I' for Inactive)
REMARK    1  A    between atoms: C_1  and  O_2
REMARK    2  A    between atoms: O_2  and  C_3
REMARK    3  A    between atoms: C_3  and  C_5
REMARK    4  A    between atoms: C_8  and  C_9
REMARK    5  A    between atoms: C_9  and  O_10
REMARK    6  A    between atoms: O_10  and  C_11
REMARK    7  A    between atoms: C_11  and  C_12
REMARK    8  A    between atoms: C_15  and  C_16
REMARK    9  A    between atoms: C_16  and  N_17
REMARK   10  A    between atoms: N_17  and  C_18
REMARK   11  A    between atoms: C_18  and  C_19
REMARK                            x       y       z     vdW  Elec       q    Type
REMARK                         _______ _______ _______ _____ _____    ______ ____
ROOT
ATOM      1  O   UNL     1      47.101   3.527  15.665  0.00  0.00    +0.000 OA
ENDROOT
BRANCH   1   2
ATOM      2  C   UNL     1      47.415   3.724  17.049  0.00  0.00    +0.000 C 
BRANCH   2   6
ATOM      3  C   UNL     1      51.559   2.609  17.738  0.00  0.00    +0.000 A 
ATOM      4  C   UNL     1      50.687   1.769  17.035  0.00  0.00    +0.000 A 
ATOM      5  C   UNL     1      49.365   2.150  16.817  0.00  0.00    +0.000 A 
ATOM      6  C   UNL     1      48.876   3.383  17.282  0.00  0.00    +0.000 A 
ATOM      7  C   UNL     1      49.790   4.255  17.918  0.00  0.00    +0.000 A 
ATOM      8  C   UNL     1      49.420   5.633  18.334  0.00  0.00    +0.000 A 
ATOM      9  O   UNL     1      48.414   6.205  17.929  0.00  0.00    +0.000 OA
ATOM     10  N   UNL     1      50.305   6.276  19.158  0.00  0.00    +0.000 N 
ATOM     11  C   UNL     1      51.580   5.840  19.327  0.00  0.00    +0.000 A 
ATOM     12  N   UNL     1      52.022   4.729  18.857  0.00  0.00    +0.000 NA
ATOM     13  C   UNL     1      51.127   3.872  18.181  0.00  0.00    +0.000 A 
ATOM     14  H   UNL     1      50.050   7.210  19.447  0.00  0.00    +0.000 HD
BRANCH   3  15
ATOM     15  C   UNL     1      52.942   2.110  17.928  0.00  0.00    +0.000 C 
ATOM     16  O   UNL     1      53.921   2.691  17.482  0.00  0.00    +0.000 OA
BRANCH  15  18
ATOM     17  C   UNL     1      53.977   0.023  18.099  0.00  0.00    +0.000 C 
ATOM     18  O   UNL     1      52.949   0.906  18.547  0.00  0.00    +0.000 OA
ENDBRANCH  15  18
ENDBRANCH   3  15
ENDBRANCH   2   6
ENDBRANCH   1   2
BRANCH   1  19
ATOM     19  C   UNL     1      47.341   4.689  14.874  0.00  0.00    +0.000 C 
BRANCH  19  20
ATOM     20  C   UNL     1      46.354   4.714  13.728  0.00  0.00    +0.000 A 
ATOM     21  C   UNL     1      45.936   5.933  13.178  0.00  0.00    +0.000 A 
ATOM     22  C   UNL     1      45.032   5.964  12.112  0.00  0.00    +0.000 A 
ATOM     23  C   UNL     1      44.529   4.777  11.561  0.00  0.00    +0.000 A 
ATOM     24  C   UNL     1      44.950   3.558  12.105  0.00  0.00    +0.000 A 
ATOM     25  C   UNL     1      45.856   3.526  13.178  0.00  0.00    +0.000 A 
BRANCH  23  26
ATOM     26  C   UNL     1      43.537   4.822  10.417  0.00  0.00    +0.000 C 
BRANCH  26  27
ATOM     27  N   UNL     1      44.145   4.334   9.181  0.00  0.00    +0.000 NA
ATOM     28  H   UNL     1      45.049   4.790   9.059  0.00  0.00    +0.000 HD
BRANCH  27  29
ATOM     29  C   UNL     1      44.368   2.883   9.223  0.00  0.00    +0.000 C 
BRANCH  29  30
ATOM     30  C   UNL     1      45.552   2.475   8.363  0.00  0.00    +0.000 A 
ATOM     31  C   UNL     1      46.241   3.435   7.621  0.00  0.00    +0.000 A 
ATOM     32  C   UNL     1      47.343   3.043   6.865  0.00  0.00    +0.000 A 
ATOM     33  C   UNL     1      47.724   1.709   6.863  0.00  0.00    +0.000 A 
ATOM     34  C   UNL     1      46.985   0.816   7.622  0.00  0.00    +0.000 A 
ATOM     35  N   UNL     1      45.914   1.166   8.371  0.00  0.00    +0.000 NA
ENDBRANCH  29  30
ENDBRANCH  27  29
ENDBRANCH  26  27
ENDBRANCH  23  26
ENDBRANCH  19  20
ENDBRANCH   1  19
TORSDOF 10
ENDMDL
MODEL 2
REMARK VINA RESULT:    -8.193      1.687      2.592
REMARK INTER + INTRA:         -13.463
REMARK INTER:                 -12.563
REMARK INTRA:                  -0.901
REMARK UNBOUND:                -0.480
REMARK  Name = 
REMARK  11 active torsions:
REMARK  status: ('A' for Active; 'I' for Inactive)
REMARK    1  A    between atoms: C_1  and  O_2
REMARK    2  A    between atoms: O_2  and  C_3
REMARK    3  A    between atoms: C_3  and  C_5
REMARK    4  A    between atoms: C_8  and  C_9
REMARK    5  A    between atoms: C_9  and  O_10
REMARK    6  A    between atoms: O_10  and  C_11
REMARK    7  A    between atoms: C_11  and  C_12
REMARK    8  A    between atoms: C_15  and  C_16
REMARK    9  A    between atoms: C_16  and  N_17
REMARK   10  A    between atoms: N_17  and  C_18
REMARK   11  A    between atoms: C_18  and  C_19
REMARK                            x       y       z     vdW  Elec       q    Type
REMARK                         _______ _______ _______ _____ _____    ______ ____
ROOT
ATOM      1  O   UNL     1      48.088   4.873  15.111  0.00  0.00    +0.000 OA
ENDROOT
BRANCH   1   2
ATOM      2  C   UNL     1      48.069   5.167  16.513  0.00  0.00    +0.000 C 
BRANCH   2   6
ATOM      3  C   UNL     1      52.143   4.992  18.017  0.00  0.00    +0.000 A 
ATOM      4  C   UNL     1      51.458   6.208  17.913  0.00  0.00    +0.000 A 
ATOM      5  C   UNL     1      50.148   6.241  17.438  0.00  0.00    +0.000 A 
ATOM      6  C   UNL     1      49.480   5.063  17.063  0.00  0.00    +0.000 A 
ATOM      7  C   UNL     1      50.157   3.835  17.249  0.00  0.00    +0.000 A 
ATOM      8  C   UNL     1      49.505   2.521  17.010  0.00  0.00    +0.000 A 
ATOM      9  O   UNL     1      48.292   2.388  16.903  0.00  0.00    +0.000 OA
ATOM     10  N   UNL     1      50.333   1.430  16.980  0.00  0.00    +0.000 N 
ATOM     11  C   UNL     1      51.604   1.476  17.457  0.00  0.00    +0.000 A 
ATOM     12  N   UNL     1      52.184   2.557  17.837  0.00  0.00    +0.000 NA
ATOM     13  C   UNL     1      51.499   3.784  17.696  0.00  0.00    +0.000 A 
ATOM     14  H   UNL     1      49.892   0.538  16.810  0.00  0.00    +0.000 HD
BRANCH   3  15
ATOM     15  C   UNL     1      53.535   5.063  18.523  0.00  0.00    +0.000 C 
ATOM     16  O   UNL     1      54.509   4.985  17.788  0.00  0.00    +0.000 OA
BRANCH  15  18
ATOM     17  C   UNL     1      54.038   3.919  20.496  0.00  0.00    +0.000 C 
ATOM     18  O   UNL     1      53.564   5.113  19.875  0.00  0.00    +0.000 OA
ENDBRANCH  15  18
ENDBRANCH   3  15
ENDBRANCH   2   6
ENDBRANCH   1   2
BRANCH   1  19
ATOM     19  C   UNL     1      47.869   6.027  14.303  0.00  0.00    +0.000 C 
BRANCH  19  20
ATOM     20  C   UNL     1      46.763   5.732  13.315  0.00  0.00    +0.000 A 
ATOM     21  C   UNL     1      45.787   4.771  13.610  0.00  0.00    +0.000 A 
ATOM     22  C   UNL     1      44.755   4.498  12.707  0.00  0.00    +0.000 A 
ATOM     23  C   UNL     1      44.666   5.186  11.488  0.00  0.00    +0.000 A 
ATOM     24  C   UNL     1      45.636   6.151  11.195  0.00  0.00    +0.000 A 
ATOM     25  C   UNL     1      46.674   6.423  12.100  0.00  0.00    +0.000 A 
BRANCH  23  26
ATOM     26  C   UNL     1      43.554   4.872  10.510  0.00  0.00    +0.000 C 
BRANCH  26  27
ATOM     27  N   UNL     1      44.092   4.321   9.268  0.00  0.00    +0.000 NA
ATOM     28  H   UNL     1      44.913   4.863   8.998  0.00  0.00    +0.000 HD
BRANCH  27  29
ATOM     29  C   UNL     1      44.503   2.920   9.430  0.00  0.00    +0.000 C 
BRANCH  29  30
ATOM     30  C   UNL     1      45.531   2.516   8.388  0.00  0.00    +0.000 A 
ATOM     31  C   UNL     1      45.959   3.439   7.433  0.00  0.00    +0.000 A 
ATOM     32  C   UNL     1      46.927   3.056   6.508  0.00  0.00    +0.000 A 
ATOM     33  C   UNL     1      47.435   1.765   6.553  0.00  0.00    +0.000 A 
ATOM     34  C   UNL     1      46.955   0.907   7.528  0.00  0.00    +0.000 A 
ATOM     35  N   UNL     1      46.021   1.250   8.444  0.00  0.00    +0.000 NA
ENDBRANCH  29  30
ENDBRANCH  27  29
ENDBRANCH  26  27
ENDBRANCH  23  26
ENDBRANCH  19  20
ENDBRANCH   1  19
TORSDOF 10
ENDMDL
MODEL 3
REMARK VINA RESULT:    -7.978      3.211      4.020
REMARK INTER + INTRA:         -13.122
REMARK INTER:                 -11.756
REMARK INTRA:                  -1.367
REMARK UNBOUND:                -0.480
REMARK  Name = 
REMARK  11 active torsions:
REMARK  status: ('A' for Active; 'I' for Inactive)
REMARK    1  A    between atoms: C_1  and  O_2
REMARK    2  A    between atoms: O_2  and  C_3
REMARK    3  A    between atoms: C_3  and  C_5
REMARK    4  A    between atoms: C_8  and  C_9
REMARK    5  A    between atoms: C_9  and  O_10
REMARK    6  A    between atoms: O_10  and  C_11
REMARK    7  A    between atoms: C_11  and  C_12
REMARK    8  A    between atoms: C_15  and  C_16
REMARK    9  A    between atoms: C_16  and  N_17
REMARK   10  A    between atoms: N_17  and  C_18
REMARK   11  A    between atoms: C_18  and  C_19
REMARK                            x       y       z     vdW  Elec       q    Type
REMARK                         _______ _______ _______ _____ _____    ______ ____
ROOT
ATOM      1  O   UNL     1      48.757   6.403  13.867  0.00  0.00    +0.000 OA
ENDROOT
BRANCH   1   2
ATOM      2  C   UNL     1      49.634   7.206  14.667  0.00  0.00    +0.000 C 
BRANCH   2   6
ATOM      3  C   UNL     1      48.553   6.573  18.828  0.00  0.00    +0.000 A 
ATOM      4  C   UNL     1      49.142   5.556  18.067  0.00  0.00    +0.000 A 
ATOM      5  C   UNL     1      49.490   5.784  16.737  0.00  0.00    +0.000 A 
ATOM      6  C   UNL     1      49.272   7.033  16.131  0.00  0.00    +0.000 A 
ATOM      7  C   UNL     1      48.751   8.072  16.935  0.00  0.00    +0.000 A 
ATOM      8  C   UNL     1      48.600   9.465  16.439  0.00  0.00    +0.000 A 
ATOM      9  O   UNL     1      49.149   9.875  15.423  0.00  0.00    +0.000 OA
ATOM     10  N   UNL     1      47.856  10.310  17.220  0.00  0.00    +0.000 N 
ATOM     11  C   UNL     1      47.549  10.016  18.510  0.00  0.00    +0.000 A 
ATOM     12  N   UNL     1      47.796   8.883  19.062  0.00  0.00    +0.000 NA
ATOM     13  C   UNL     1      48.358   7.851  18.277  0.00  0.00    +0.000 A 
ATOM     14  H   UNL     1      47.747  11.254  16.879  0.00  0.00    +0.000 HD
BRANCH   3  15
ATOM     15  C   UNL     1      48.209   6.230  20.229  0.00  0.00    +0.000 C 
ATOM     16  O   UNL     1      47.078   5.920  20.574  0.00  0.00    +0.000 OA
BRANCH  15  18
ATOM     17  C   UNL     1      49.721   5.220  21.695  0.00  0.00    +0.000 C 
ATOM     18  O   UNL     1      49.268   6.411  21.054  0.00  0.00    +0.000 OA
ENDBRANCH  15  18
ENDBRANCH   3  15
ENDBRANCH   2   6
ENDBRANCH   1   2
BRANCH   1  19
ATOM     19  C   UNL     1      47.874   7.184  13.064  0.00  0.00    +0.000 C 
BRANCH  19  20
ATOM     20  C   UNL     1      46.751   6.300  12.571  0.00  0.00    +0.000 A 
ATOM     21  C   UNL     1      46.213   6.485  11.290  0.00  0.00    +0.000 A 
ATOM     22  C   UNL     1      45.181   5.666  10.821  0.00  0.00    +0.000 A 
ATOM     23  C   UNL     1      44.665   4.635  11.618  0.00  0.00    +0.000 A 
ATOM     24  C   UNL     1      45.205   4.444  12.895  0.00  0.00    +0.000 A 
ATOM     25  C   UNL     1      46.240   5.268  13.367  0.00  0.00    +0.000 A 
BRANCH  23  26
ATOM     26  C   UNL     1      43.536   3.764  11.109  0.00  0.00    +0.000 C 
BRANCH  26  27
ATOM     27  N   UNL     1      43.759   3.382   9.716  0.00  0.00    +0.000 NA
ATOM     28  H   UNL     1      44.279   4.128   9.252  0.00  0.00    +0.000 HD
BRANCH  27  29
ATOM     29  C   UNL     1      44.544   2.145   9.612  0.00  0.00    +0.000 C 
BRANCH  29  30
ATOM     30  C   UNL     1      45.564   2.224   8.489  0.00  0.00    +0.000 A 
ATOM     31  C   UNL     1      45.746   3.419   7.792  0.00  0.00    +0.000 A 
ATOM     32  C   UNL     1      46.709   3.477   6.788  0.00  0.00    +0.000 A 
ATOM     33  C   UNL     1      47.458   2.345   6.501  0.00  0.00    +0.000 A 
ATOM     34  C   UNL     1      47.215   1.196   7.235  0.00  0.00    +0.000 A 
ATOM     35  N   UNL     1      46.291   1.109   8.219  0.00  0.00    +0.000 NA
ENDBRANCH  29  30
ENDBRANCH  27  29
ENDBRANCH  26  27
ENDBRANCH  23  26
ENDBRANCH  19  20
ENDBRANCH   1  19
TORSDOF 10
ENDMDL
MODEL 4
REMARK VINA RESULT:    -7.962      1.624      3.321
REMARK INTER + INTRA:         -13.096
REMARK INTER:                 -11.980
REMARK INTRA:                  -1.117
REMARK UNBOUND:                -0.480
REMARK  Name = 
REMARK  11 active torsions:
REMARK  status: ('A' for Active; 'I' for Inactive)
REMARK    1  A    between atoms: C_1  and  O_2
REMARK    2  A    between atoms: O_2  and  C_3
REMARK    3  A    between atoms: C_3  and  C_5
REMARK    4  A    between atoms: C_8  and  C_9
REMARK    5  A    between atoms: C_9  and  O_10
REMARK    6  A    between atoms: O_10  and  C_11
REMARK    7  A    between atoms: C_11  and  C_12
REMARK    8  A    between atoms: C_15  and  C_16
REMARK    9  A    between atoms: C_16  and  N_17
REMARK   10  A    between atoms: N_17  and  C_18
REMARK   11  A    between atoms: C_18  and  C_19
REMARK                            x       y       z     vdW  Elec       q    Type
REMARK                         _______ _______ _______ _____ _____    ______ ____
ROOT
ATOM      1  O   UNL     1      46.794   3.911  15.951  0.00  0.00    +0.000 OA
ENDROOT
BRANCH   1   2
ATOM      2  C   UNL     1      47.757   3.069  16.597  0.00  0.00    +0.000 C 
BRANCH   2   6
ATOM      3  C   UNL     1      49.758   5.479  19.609  0.00  0.00    +0.000 A 
ATOM      4  C   UNL     1      48.390   5.627  19.350  0.00  0.00    +0.000 A 
ATOM      5  C   UNL     1      47.766   4.837  18.387  0.00  0.00    +0.000 A 
ATOM      6  C   UNL     1      48.483   3.870  17.662  0.00  0.00    +0.000 A 
ATOM      7  C   UNL     1      49.845   3.677  17.992  0.00  0.00    +0.000 A 
ATOM      8  C   UNL     1      50.667   2.598  17.384  0.00  0.00    +0.000 A 
ATOM      9  O   UNL     1      50.181   1.649  16.778  0.00  0.00    +0.000 OA
ATOM     10  N   UNL     1      52.019   2.675  17.592  0.00  0.00    +0.000 N 
ATOM     11  C   UNL     1      52.557   3.476  18.548  0.00  0.00    +0.000 A 
ATOM     12  N   UNL     1      51.877   4.325  19.232  0.00  0.00    +0.000 NA
ATOM     13  C   UNL     1      50.505   4.493  18.941  0.00  0.00    +0.000 A 
ATOM     14  H   UNL     1      52.578   1.947  17.173  0.00  0.00    +0.000 HD
BRANCH   3  15
ATOM     15  C   UNL     1      50.332   6.373  20.644  0.00  0.00    +0.000 C 
ATOM     16  O   UNL     1      50.365   6.074  21.829  0.00  0.00    +0.000 OA
BRANCH  15  18
ATOM     17  C   UNL     1      52.101   7.809  20.134  0.00  0.00    +0.000 C 
ATOM     18  O   UNL     1      50.695   7.565  20.116  0.00  0.00    +0.000 OA
ENDBRANCH  15  18
ENDBRANCH   3  15
ENDBRANCH   2   6
ENDBRANCH   1   2
BRANCH   1  19
ATOM     19  C   UNL     1      47.348   4.648  14.863  0.00  0.00    +0.000 C 
BRANCH  19  20
ATOM     20  C   UNL     1      46.359   4.653  13.720  0.00  0.00    +0.000 A 
ATOM     21  C   UNL     1      45.971   3.451  13.113  0.00  0.00    +0.000 A 
ATOM     22  C   UNL     1      45.049   3.444  12.061  0.00  0.00    +0.000 A 
ATOM     23  C   UNL     1      44.484   4.639  11.594  0.00  0.00    +0.000 A 
ATOM     24  C   UNL     1      44.866   5.840  12.203  0.00  0.00    +0.000 A 
ATOM     25  C   UNL     1      45.793   5.847  13.258  0.00  0.00    +0.000 A 
BRANCH  23  26
ATOM     26  C   UNL     1      43.499   4.624  10.444  0.00  0.00    +0.000 C 
BRANCH  26  27
ATOM     27  N   UNL     1      43.882   3.631   9.443  0.00  0.00    +0.000 NA
ATOM     28  H   UNL     1      43.040   3.306   8.966  0.00  0.00    +0.000 HD
BRANCH  27  29
ATOM     29  C   UNL     1      44.786   4.199   8.434  0.00  0.00    +0.000 C 
BRANCH  29  30
ATOM     30  C   UNL     1      45.792   3.171   7.944  0.00  0.00    +0.000 A 
ATOM     31  C   UNL     1      45.719   1.852   8.393  0.00  0.00    +0.000 A 
ATOM     32  C   UNL     1      46.631   0.920   7.905  0.00  0.00    +0.000 A 
ATOM     33  C   UNL     1      47.593   1.327   6.992  0.00  0.00    +0.000 A 
ATOM     34  C   UNL     1      47.603   2.655   6.599  0.00  0.00    +0.000 A 
ATOM     35  N   UNL     1      46.728   3.582   7.050  0.00  0.00    +0.000 NA
ENDBRANCH  29  30
ENDBRANCH  27  29
ENDBRANCH  26  27
ENDBRANCH  23  26
ENDBRANCH  19  20
ENDBRANCH   1  19
TORSDOF 10
ENDMDL
MODEL 5
REMARK VINA RESULT:    -7.856      2.975      5.027
REMARK INTER + INTRA:         -12.928
REMARK INTER:                 -11.941
REMARK INTRA:                  -0.987
REMARK UNBOUND:                -0.480
REMARK  Name = 
REMARK  11 active torsions:
REMARK  status: ('A' for Active; 'I' for Inactive)
REMARK    1  A    between atoms: C_1  and  O_2
REMARK    2  A    between atoms: O_2  and  C_3
REMARK    3  A    between atoms: C_3  and  C_5
REMARK    4  A    between atoms: C_8  and  C_9
REMARK    5  A    between atoms: C_9  and  O_10
REMARK    6  A    between atoms: O_10  and  C_11
REMARK    7  A    between atoms: C_11  and  C_12
REMARK    8  A    between atoms: C_15  and  C_16
REMARK    9  A    between atoms: C_16  and  N_17
REMARK   10  A    between atoms: N_17  and  C_18
REMARK   11  A    between atoms: C_18  and  C_19
REMARK                            x       y       z     vdW  Elec       q    Type
REMARK                         _______ _______ _______ _____ _____    ______ ____
ROOT
ATOM      1  O   UNL     1      48.218   5.804  15.190  0.00  0.00    +0.000 OA
ENDROOT
BRANCH   1   2
ATOM      2  C   UNL     1      49.254   6.228  16.085  0.00  0.00    +0.000 C 
BRANCH   2   6
ATOM      3  C   UNL     1      47.608   8.838  19.146  0.00  0.00    +0.000 A 
ATOM      4  C   UNL     1      47.926   9.322  17.872  0.00  0.00    +0.000 A 
ATOM      5  C   UNL     1      48.444   8.466  16.902  0.00  0.00    +0.000 A 
ATOM      6  C   UNL     1      48.648   7.101  17.169  0.00  0.00    +0.000 A 
ATOM      7  C   UNL     1      48.246   6.612  18.434  0.00  0.00    +0.000 A 
ATOM      8  C   UNL     1      48.294   5.167  18.781  0.00  0.00    +0.000 A 
ATOM      9  O   UNL     1      48.419   4.283  17.942  0.00  0.00    +0.000 OA
ATOM     10  N   UNL     1      48.122   4.856  20.104  0.00  0.00    +0.000 N 
ATOM     11  C   UNL     1      47.618   5.748  20.995  0.00  0.00    +0.000 A 
ATOM     12  N   UNL     1      47.396   6.983  20.720  0.00  0.00    +0.000 NA
ATOM     13  C   UNL     1      47.752   7.471  19.444  0.00  0.00    +0.000 A 
ATOM     14  H   UNL     1      48.162   3.875  20.342  0.00  0.00    +0.000 HD
BRANCH   3  15
ATOM     15  C   UNL     1      47.074   9.829  20.111  0.00  0.00    +0.000 C 
ATOM     16  O   UNL     1      45.922  10.236  20.069  0.00  0.00    +0.000 OA
BRANCH  15  18
ATOM     17  C   UNL     1      47.737  11.514  21.585  0.00  0.00    +0.000 C 
ATOM     18  O   UNL     1      48.044  10.279  20.941  0.00  0.00    +0.000 OA
ENDBRANCH  15  18
ENDBRANCH   3  15
ENDBRANCH   2   6
ENDBRANCH   1   2
BRANCH   1  19
ATOM     19  C   UNL     1      48.242   6.507  13.949  0.00  0.00    +0.000 C 
BRANCH  19  20
ATOM     20  C   UNL     1      47.065   6.060  13.111  0.00  0.00    +0.000 A 
ATOM     21  C   UNL     1      46.828   6.637  11.856  0.00  0.00    +0.000 A 
ATOM     22  C   UNL     1      45.748   6.223  11.070  0.00  0.00    +0.000 A 
ATOM     23  C   UNL     1      44.881   5.215  11.515  0.00  0.00    +0.000 A 
ATOM     24  C   UNL     1      45.120   4.633  12.765  0.00  0.00    +0.000 A 
ATOM     25  C   UNL     1      46.203   5.050  13.555  0.00  0.00    +0.000 A 
BRANCH  23  26
ATOM     26  C   UNL     1      43.705   4.784  10.664  0.00  0.00    +0.000 C 
BRANCH  26  27
ATOM     27  N   UNL     1      44.153   4.307   9.357  0.00  0.00    +0.000 NA
ATOM     28  H   UNL     1      45.032   4.771   9.124  0.00  0.00    +0.000 HD
BRANCH  27  29
ATOM     29  C   UNL     1      44.389   2.858   9.360  0.00  0.00    +0.000 C 
BRANCH  29  30
ATOM     30  C   UNL     1      45.482   2.468   8.380  0.00  0.00    +0.000 A 
ATOM     31  C   UNL     1      45.989   3.411   7.486  0.00  0.00    +0.000 A 
ATOM     32  C   UNL     1      47.013   3.040   6.619  0.00  0.00    +0.000 A 
ATOM     33  C   UNL     1      47.498   1.740   6.660  0.00  0.00    +0.000 A 
ATOM     34  C   UNL     1      46.938   0.861   7.572  0.00  0.00    +0.000 A 
ATOM     35  N   UNL     1      45.948   1.193   8.431  0.00  0.00    +0.000 NA
ENDBRANCH  29  30
ENDBRANCH  27  29
ENDBRANCH  26  27
ENDBRANCH  23  26
ENDBRANCH  19  20
ENDBRANCH   1  19
TORSDOF 10
ENDMDL
MODEL 6
REMARK VINA RESULT:    -7.546      2.070      2.740
REMARK INTER + INTRA:         -12.437
REMARK INTER:                 -11.265
REMARK INTRA:                  -1.172
REMARK UNBOUND:                -0.480
REMARK  Name = 
REMARK  11 active torsions:
REMARK  status: ('A' for Active; 'I' for Inactive)
REMARK    1  A    between atoms: C_1  and  O_2
REMARK    2  A    between atoms: O_2  and  C_3
REMARK    3  A    between atoms: C_3  and  C_5
REMARK    4  A    between atoms: C_8  and  C_9
REMARK    5  A    between atoms: C_9  and  O_10
REMARK    6  A    between atoms: O_10  and  C_11
REMARK    7  A    between atoms: C_11  and  C_12
REMARK    8  A    between atoms: C_15  and  C_16
REMARK    9  A    between atoms: C_16  and  N_17
REMARK   10  A    between atoms: N_17  and  C_18
REMARK   11  A    between atoms: C_18  and  C_19
REMARK                            x       y       z     vdW  Elec       q    Type
REMARK                         _______ _______ _______ _____ _____    ______ ____
ROOT
ATOM      1  O   UNL     1      49.593   6.900  13.974  0.00  0.00    +0.000 OA
ENDROOT
BRANCH   1   2
ATOM      2  C   UNL     1      50.081   7.677  15.074  0.00  0.00    +0.000 C 
BRANCH   2   6
ATOM      3  C   UNL     1      52.726   5.175  17.448  0.00  0.00    +0.000 A 
ATOM      4  C   UNL     1      53.232   6.156  16.586  0.00  0.00    +0.000 A 
ATOM      5  C   UNL     1      52.366   6.954  15.842  0.00  0.00    +0.000 A 
ATOM      6  C   UNL     1      50.972   6.806  15.942  0.00  0.00    +0.000 A 
ATOM      7  C   UNL     1      50.476   5.867  16.875  0.00  0.00    +0.000 A 
ATOM      8  C   UNL     1      49.025   5.716  17.160  0.00  0.00    +0.000 A 
ATOM      9  O   UNL     1      48.189   6.549  16.827  0.00  0.00    +0.000 OA
ATOM     10  N   UNL     1      48.661   4.612  17.885  0.00  0.00    +0.000 N 
ATOM     11  C   UNL     1      49.565   3.876  18.581  0.00  0.00    +0.000 A 
ATOM     12  N   UNL     1      50.835   4.055  18.511  0.00  0.00    +0.000 NA
ATOM     13  C   UNL     1      51.339   5.023  17.614  0.00  0.00    +0.000 A 
ATOM     14  H   UNL     1      47.674   4.505  18.071  0.00  0.00    +0.000 HD
BRANCH   3  15
ATOM     15  C   UNL     1      53.728   4.371  18.188  0.00  0.00    +0.000 C 
ATOM     16  O   UNL     1      54.185   3.324  17.752  0.00  0.00    +0.000 OA
BRANCH  15  18
ATOM     17  C   UNL     1      53.937   3.933  20.472  0.00  0.00    +0.000 C 
ATOM     18  O   UNL     1      53.967   4.890  19.415  0.00  0.00    +0.000 OA
ENDBRANCH  15  18
ENDBRANCH   3  15
ENDBRANCH   2   6
ENDBRANCH   1   2
BRANCH   1  19
ATOM     19  C   UNL     1      48.551   7.557  13.255  0.00  0.00    +0.000 C 
BRANCH  19  20
ATOM     20  C   UNL     1      47.487   6.543  12.898  0.00  0.00    +0.000 A 
ATOM     21  C   UNL     1      46.685   6.726  11.764  0.00  0.00    +0.000 A 
ATOM     22  C   UNL     1      45.706   5.788  11.421  0.00  0.00    +0.000 A 
ATOM     23  C   UNL     1      45.509   4.638  12.199  0.00  0.00    +0.000 A 
ATOM     24  C   UNL     1      46.314   4.451  13.329  0.00  0.00    +0.000 A 
ATOM     25  C   UNL     1      47.296   5.393  13.675  0.00  0.00    +0.000 A 
BRANCH  23  26
ATOM     26  C   UNL     1      44.435   3.637  11.829  0.00  0.00    +0.000 C 
BRANCH  26  27
ATOM     27  N   UNL     1      44.944   2.655  10.875  0.00  0.00    +0.000 NA
ATOM     28  H   UNL     1      44.626   1.727  11.159  0.00  0.00    +0.000 HD
BRANCH  27  29
ATOM     29  C   UNL     1      44.448   2.910   9.516  0.00  0.00    +0.000 C 
BRANCH  29  30
ATOM     30  C   UNL     1      45.485   2.552   8.466  0.00  0.00    +0.000 A 
ATOM     31  C   UNL     1      45.916   3.514   7.552  0.00  0.00    +0.000 A 
ATOM     32  C   UNL     1      46.891   3.171   6.619  0.00  0.00    +0.000 A 
ATOM     33  C   UNL     1      47.404   1.882   6.616  0.00  0.00    +0.000 A 
ATOM     34  C   UNL     1      46.921   0.984   7.553  0.00  0.00    +0.000 A 
ATOM     35  N   UNL     1      45.980   1.287   8.475  0.00  0.00    +0.000 NA
ENDBRANCH  29  30
ENDBRANCH  27  29
ENDBRANCH  26  27
ENDBRANCH  23  26
ENDBRANCH  19  20
ENDBRANCH   1  19
TORSDOF 10
ENDMDL
MODEL 7
REMARK VINA RESULT:    -7.272      3.033      4.411
REMARK INTER + INTRA:         -12.003
REMARK INTER:                 -10.581
REMARK INTRA:                  -1.423
REMARK UNBOUND:                -0.480
REMARK  Name = 
REMARK  11 active torsions:
REMARK  status: ('A' for Active; 'I' for Inactive)
REMARK    1  A    between atoms: C_1  and  O_2
REMARK    2  A    between atoms: O_2  and  C_3
REMARK    3  A    between atoms: C_3  and  C_5
REMARK    4  A    between atoms: C_8  and  C_9
REMARK    5  A    between atoms: C_9  and  O_10
REMARK    6  A    between atoms: O_10  and  C_11
REMARK    7  A    between atoms: C_11  and  C_12
REMARK    8  A    between atoms: C_15  and  C_16
REMARK    9  A    between atoms: C_16  and  N_17
REMARK   10  A    between atoms: N_17  and  C_18
REMARK   11  A    between atoms: C_18  and  C_19
REMARK                            x       y       z     vdW  Elec       q    Type
REMARK                         _______ _______ _______ _____ _____    ______ ____
ROOT
ATOM      1  O   UNL     1      48.285   9.862  13.984  0.00  0.00    +0.000 OA
ENDROOT
BRANCH   1   2
ATOM      2  C   UNL     1      49.378   9.760  14.905  0.00  0.00    +0.000 C 
BRANCH   2   6
ATOM      3  C   UNL     1      48.616   6.361  17.504  0.00  0.00    +0.000 A 
ATOM      4  C   UNL     1      49.265   6.204  16.273  0.00  0.00    +0.000 A 
ATOM      5  C   UNL     1      49.508   7.309  15.460  0.00  0.00    +0.000 A 
ATOM      6  C   UNL     1      49.122   8.602  15.853  0.00  0.00    +0.000 A 
ATOM      7  C   UNL     1      48.541   8.754  17.133  0.00  0.00    +0.000 A 
ATOM      8  C   UNL     1      48.213  10.085  17.707  0.00  0.00    +0.000 A 
ATOM      9  O   UNL     1      48.655  11.135  17.254  0.00  0.00    +0.000 OA
ATOM     10  N   UNL     1      47.430  10.085  18.831  0.00  0.00    +0.000 N 
ATOM     11  C   UNL     1      47.232   8.963  19.572  0.00  0.00    +0.000 A 
ATOM     12  N   UNL     1      47.631   7.795  19.217  0.00  0.00    +0.000 NA
ATOM     13  C   UNL     1      48.253   7.641  17.959  0.00  0.00    +0.000 A 
ATOM     14  H   UNL     1      47.200  10.989  19.217  0.00  0.00    +0.000 HD
BRANCH   3  15
ATOM     15  C   UNL     1      48.393   5.124  18.291  0.00  0.00    +0.000 C 
ATOM     16  O   UNL     1      49.241   4.656  19.038  0.00  0.00    +0.000 OA
BRANCH  15  18
ATOM     17  C   UNL     1      47.309   3.271  17.371  0.00  0.00    +0.000 C 
ATOM     18  O   UNL     1      47.203   4.555  17.986  0.00  0.00    +0.000 OA
ENDBRANCH  15  18
ENDBRANCH   3  15
ENDBRANCH   2   6
ENDBRANCH   1   2
BRANCH   1  19
ATOM     19  C   UNL     1      48.563   9.242  12.730  0.00  0.00    +0.000 C 
BRANCH  19  20
ATOM     20  C   UNL     1      47.432   8.296  12.390  0.00  0.00    +0.000 A 
ATOM     21  C   UNL     1      46.133   8.785  12.196  0.00  0.00    +0.000 A 
ATOM     22  C   UNL     1      45.084   7.919  11.872  0.00  0.00    +0.000 A 
ATOM     23  C   UNL     1      45.307   6.543  11.725  0.00  0.00    +0.000 A 
ATOM     24  C   UNL     1      46.605   6.054  11.913  0.00  0.00    +0.000 A 
ATOM     25  C   UNL     1      47.659   6.923  12.240  0.00  0.00    +0.000 A 
BRANCH  23  26
ATOM     26  C   UNL     1      44.161   5.611  11.390  0.00  0.00    +0.000 C 
BRANCH  26  27
ATOM     27  N   UNL     1      44.655   4.363  10.813  0.00  0.00    +0.000 NA
ATOM     28  H   UNL     1      44.278   3.582  11.351  0.00  0.00    +0.000 HD
BRANCH  27  29
ATOM     29  C   UNL     1      44.227   4.204   9.417  0.00  0.00    +0.000 C 
BRANCH  29  30
ATOM     30  C   UNL     1      45.250   3.431   8.603  0.00  0.00    +0.000 A 
ATOM     31  C   UNL     1      45.429   2.065   8.822  0.00  0.00    +0.000 A 
ATOM     32  C   UNL     1      46.350   1.370   8.042  0.00  0.00    +0.000 A 
ATOM     33  C   UNL     1      47.070   2.054   7.073  0.00  0.00    +0.000 A 
ATOM     34  C   UNL     1      46.838   3.411   6.921  0.00  0.00    +0.000 A 
ATOM     35  N   UNL     1      45.948   4.112   7.658  0.00  0.00    +0.000 NA
ENDBRANCH  29  30
ENDBRANCH  27  29
ENDBRANCH  26  27
ENDBRANCH  23  26
ENDBRANCH  19  20
ENDBRANCH   1  19
TORSDOF 10
ENDMDL
MODEL 8
REMARK VINA RESULT:    -7.007      3.466      9.010
REMARK INTER + INTRA:         -11.584
REMARK INTER:                  -9.665
REMARK INTRA:                  -1.919
REMARK UNBOUND:                -0.480
REMARK  Name = 
REMARK  11 active torsions:
REMARK  status: ('A' for Active; 'I' for Inactive)
REMARK    1  A    between atoms: C_1  and  O_2
REMARK    2  A    between atoms: O_2  and  C_3
REMARK    3  A    between atoms: C_3  and  C_5
REMARK    4  A    between atoms: C_8  and  C_9
REMARK    5  A    between atoms: C_9  and  O_10
REMARK    6  A    between atoms: O_10  and  C_11
REMARK    7  A    between atoms: C_11  and  C_12
REMARK    8  A    between atoms: C_15  and  C_16
REMARK    9  A    between atoms: C_16  and  N_17
REMARK   10  A    between atoms: N_17  and  C_18
REMARK   11  A    between atoms: C_18  and  C_19
REMARK                            x       y       z     vdW  Elec       q    Type
REMARK                         _______ _______ _______ _____ _____    ______ ____
ROOT
ATOM      1  O   UNL     1      47.130   8.993  12.232  0.00  0.00    +0.000 OA
ENDROOT
BRANCH   1   2
ATOM      2  C   UNL     1      46.272   8.351  13.183  0.00  0.00    +0.000 C 
BRANCH   2   6
ATOM      3  C   UNL     1      44.450   4.840  11.383  0.00  0.00    +0.000 A 
ATOM      4  C   UNL     1      44.101   6.132  10.972  0.00  0.00    +0.000 A 
ATOM      5  C   UNL     1      44.704   7.244  11.556  0.00  0.00    +0.000 A 
ATOM      6  C   UNL     1      45.681   7.101  12.557  0.00  0.00    +0.000 A 
ATOM      7  C   UNL     1      46.080   5.790  12.903  0.00  0.00    +0.000 A 
ATOM      8  C   UNL     1      47.192   5.520  13.852  0.00  0.00    +0.000 A 
ATOM      9  O   UNL     1      48.005   6.373  14.188  0.00  0.00    +0.000 OA
ATOM     10  N   UNL     1      47.311   4.229  14.294  0.00  0.00    +0.000 N 
ATOM     11  C   UNL     1      46.685   3.194  13.676  0.00  0.00    +0.000 A 
ATOM     12  N   UNL     1      45.827   3.341  12.732  0.00  0.00    +0.000 NA
ATOM     13  C   UNL     1      45.454   4.648  12.348  0.00  0.00    +0.000 A 
ATOM     14  H   UNL     1      48.062   4.046  14.945  0.00  0.00    +0.000 HD
BRANCH   3  15
ATOM     15  C   UNL     1      43.744   3.723  10.710  0.00  0.00    +0.000 C 
ATOM     16  O   UNL     1      42.932   3.014  11.285  0.00  0.00    +0.000 OA
BRANCH  15  18
ATOM     17  C   UNL     1      44.991   2.371   9.270  0.00  0.00    +0.000 C 
ATOM     18  O   UNL     1      44.198   3.545   9.447  0.00  0.00    +0.000 OA
ENDBRANCH  15  18
ENDBRANCH   3  15
ENDBRANCH   2   6
ENDBRANCH   1   2
BRANCH   1  19
ATOM     19  C   UNL     1      47.839  10.099  12.788  0.00  0.00    +0.000 C 
BRANCH  19  20
ATOM     20  C   UNL     1      48.835   9.583  13.802  0.00  0.00    +0.000 A 
ATOM     21  C   UNL     1      48.591   9.730  15.174  0.00  0.00    +0.000 A 
ATOM     22  C   UNL     1      49.501   9.246  16.119  0.00  0.00    +0.000 A 
ATOM     23  C   UNL     1      50.676   8.595  15.716  0.00  0.00    +0.000 A 
ATOM     24  C   UNL     1      50.918   8.441  14.347  0.00  0.00    +0.000 A 
ATOM     25  C   UNL     1      50.005   8.929  13.397  0.00  0.00    +0.000 A 
BRANCH  23  26
ATOM     26  C   UNL     1      51.664   8.089  16.747  0.00  0.00    +0.000 C 
BRANCH  26  27
ATOM     27  N   UNL     1      51.061   7.056  17.585  0.00  0.00    +0.000 NA
ATOM     28  H   UNL     1      50.078   7.288  17.734  0.00  0.00    +0.000 HD
BRANCH  27  29
ATOM     29  C   UNL     1      51.125   5.734  16.947  0.00  0.00    +0.000 C 
BRANCH  29  30
ATOM     30  C   UNL     1      49.877   4.916  17.231  0.00  0.00    +0.000 A 
ATOM     31  C   UNL     1      48.693   5.553  17.605  0.00  0.00    +0.000 A 
ATOM     32  C   UNL     1      47.553   4.785  17.829  0.00  0.00    +0.000 A 
ATOM     33  C   UNL     1      47.625   3.407  17.683  0.00  0.00    +0.000 A 
ATOM     34  C   UNL     1      48.838   2.850  17.314  0.00  0.00    +0.000 A 
ATOM     35  N   UNL     1      49.960   3.568  17.084  0.00  0.00    +0.000 NA
ENDBRANCH  29  30
ENDBRANCH  27  29
ENDBRANCH  26  27
ENDBRANCH  23  26
ENDBRANCH  19  20
ENDBRANCH   1  19
TORSDOF 10
ENDMDL
MODEL 9
REMARK VINA RESULT:    -6.650      5.559      8.409
REMARK INTER + INTRA:         -11.017
REMARK INTER:                  -9.922
REMARK INTRA:                  -1.095
REMARK UNBOUND:                -0.480
REMARK  Name = 
REMARK  11 active torsions:
REMARK  status: ('A' for Active; 'I' for Inactive)
REMARK    1  A    between atoms: C_1  and  O_2
REMARK    2  A    between atoms: O_2  and  C_3
REMARK    3  A    between atoms: C_3  and  C_5
REMARK    4  A    between atoms: C_8  and  C_9
REMARK    5  A    between atoms: C_9  and  O_10
REMARK    6  A    between atoms: O_10  and  C_11
REMARK    7  A    between atoms: C_11  and  C_12
REMARK    8  A    between atoms: C_15  and  C_16
REMARK    9  A    between atoms: C_16  and  N_17
REMARK   10  A    between atoms: N_17  and  C_18
REMARK   11  A    between atoms: C_18  and  C_19
REMARK                            x       y       z     vdW  Elec       q    Type
REMARK                         _______ _______ _______ _____ _____    ______ ____
ROOT
ATOM      1  O   UNL     1      46.592   9.149  11.899  0.00  0.00    +0.000 OA
ENDROOT
BRANCH   1   2
ATOM      2  C   UNL     1      45.926   8.456  12.962  0.00  0.00    +0.000 C 
BRANCH   2   6
ATOM      3  C   UNL     1      44.689   4.526  11.577  0.00  0.00    +0.000 A 
ATOM      4  C   UNL     1      44.200   5.695  10.981  0.00  0.00    +0.000 A 
ATOM      5  C   UNL     1      44.617   6.945  11.434  0.00  0.00    +0.000 A 
ATOM      6  C   UNL     1      45.542   7.066  12.485  0.00  0.00    +0.000 A 
ATOM      7  C   UNL     1      46.087   5.878  13.022  0.00  0.00    +0.000 A 
ATOM      8  C   UNL     1      47.166   5.886  14.045  0.00  0.00    +0.000 A 
ATOM      9  O   UNL     1      47.839   6.879  14.297  0.00  0.00    +0.000 OA
ATOM     10  N   UNL     1      47.426   4.691  14.662  0.00  0.00    +0.000 N 
ATOM     11  C   UNL     1      46.978   3.509  14.164  0.00  0.00    +0.000 A 
ATOM     12  N   UNL     1      46.166   3.416  13.173  0.00  0.00    +0.000 NA
ATOM     13  C   UNL     1      45.650   4.599  12.600  0.00  0.00    +0.000 A 
ATOM     14  H   UNL     1      48.153   4.698  15.362  0.00  0.00    +0.000 HD
BRANCH   3  15
ATOM     15  C   UNL     1      44.176   3.246  11.032  0.00  0.00    +0.000 C 
ATOM     16  O   UNL     1      43.138   2.731  11.422  0.00  0.00    +0.000 OA
BRANCH  15  18
ATOM     17  C   UNL     1      44.581   2.667   8.806  0.00  0.00    +0.000 C 
ATOM     18  O   UNL     1      45.050   2.701  10.153  0.00  0.00    +0.000 OA
ENDBRANCH  15  18
ENDBRANCH   3  15
ENDBRANCH   2   6
ENDBRANCH   1   2
BRANCH   1  19
ATOM     19  C   UNL     1      47.641   9.996  12.366  0.00  0.00    +0.000 C 
BRANCH  19  20
ATOM     20  C   UNL     1      48.958   9.487  11.825  0.00  0.00    +0.000 A 
ATOM     21  C   UNL     1      49.985  10.383  11.499  0.00  0.00    +0.000 A 
ATOM     22  C   UNL     1      51.210   9.920  11.008  0.00  0.00    +0.000 A 
ATOM     23  C   UNL     1      51.443   8.548  10.837  0.00  0.00    +0.000 A 
ATOM     24  C   UNL     1      50.421   7.651  11.168  0.00  0.00    +0.000 A 
ATOM     25  C   UNL     1      49.190   8.116  11.659  0.00  0.00    +0.000 A 
BRANCH  23  26
ATOM     26  C   UNL     1      52.767   8.058  10.289  0.00  0.00    +0.000 C 
BRANCH  26  27
ATOM     27  N   UNL     1      53.368   9.056   9.407  0.00  0.00    +0.000 NA
ATOM     28  H   UNL     1      54.368   9.108   9.608  0.00  0.00    +0.000 HD
BRANCH  27  29
ATOM     29  C   UNL     1      53.205   8.700   7.992  0.00  0.00    +0.000 C 
BRANCH  29  30
ATOM     30  C   UNL     1      53.584   7.252   7.733  0.00  0.00    +0.000 A 
ATOM     31  C   UNL     1      52.612   6.337   7.329  0.00  0.00    +0.000 A 
ATOM     32  C   UNL     1      52.988   5.022   7.065  0.00  0.00    +0.000 A 
ATOM     33  C   UNL     1      54.317   4.654   7.218  0.00  0.00    +0.000 A 
ATOM     34  C   UNL     1      55.221   5.621   7.628  0.00  0.00    +0.000 A 
ATOM     35  N   UNL     1      54.888   6.906   7.886  0.00  0.00    +0.000 NA
ENDBRANCH  29  30
ENDBRANCH  27  29
ENDBRANCH  26  27
ENDBRANCH  23  26
ENDBRANCH  19  20
ENDBRANCH   1  19
TORSDOF 10
ENDMDL
