MODEL 1
REMARK VINA RESULT:    -8.646      0.000      0.000
REMARK INTER + INTRA:         -13.351
REMARK INTER:                 -12.184
REMARK INTRA:                  -1.167
REMARK UNBOUND:                -1.167
REMARK  Name = 
REMARK  7 active torsions:
REMARK  status: ('A' for Active; 'I' for Inactive)
REMARK    1  A    between atoms: C_2  and  C_20
REMARK    2  A    between atoms: N_3  and  C_4
REMARK    3  A    between atoms: C_4  and  C_5
REMARK    4  A    between atoms: C_8  and  C_9
REMARK    5  A    between atoms: C_9  and  N_10
REMARK    6  A    between atoms: N_10  and  C_11
REMARK    7  A    between atoms: C_11  and  C_12
REMARK                            x       y       z     vdW  Elec       q    Type
REMARK                         _______ _______ _______ _____ _____    ______ ____
ROOT
ATOM      1  C   UNL     1      46.615   7.608  12.832  0.00  0.00    +0.000 C 
ENDROOT
BRANCH   1   2
ATOM      2  C   UNL     1      45.826   6.448  12.280  0.00  0.00    +0.000 A 
ATOM      3  C   UNL     1      45.778   6.244  10.895  0.00  0.00    +0.000 A 
ATOM      4  C   UNL     1      45.113   5.141  10.354  0.00  0.00    +0.000 A 
ATOM      5  C   UNL     1      44.474   4.211  11.186  0.00  0.00    +0.000 A 
ATOM      6  C   UNL     1      44.507   4.425  12.572  0.00  0.00    +0.000 A 
ATOM      7  C   UNL     1      45.170   5.535  13.115  0.00  0.00    +0.000 A 
BRANCH   5   8
ATOM      8  C   UNL     1      43.738   3.015  10.617  0.00  0.00    +0.000 C 
BRANCH   8   9
ATOM      9  N   UNL     1      44.108   2.770   9.224  0.00  0.00    +0.000 NA
ATOM     10  H   UNL     1      44.453   3.638   8.822  0.00  0.00    +0.000 HD
BRANCH   9  11
ATOM     11  C   UNL     1      45.148   1.746   9.096  0.00  0.00    +0.000 C 
BRANCH  11  12
ATOM     12  C   UNL     1      46.062   2.008   7.924  0.00  0.00    +0.000 A 
ATOM     13  C   UNL     1      45.987   3.164   7.136  0.00  0.00    +0.000 A 
ATOM     14  C   UNL     1      46.859   3.336   6.065  0.00  0.00    +0.000 A 
ATOM     15  C   UNL     1      47.771   2.332   5.793  0.00  0.00    +0.000 A 
ATOM     16  N   UNL     1      47.861   1.188   6.507  0.00  0.00    +0.000 NA
ATOM     17  C   UNL     1      47.004   1.053   7.546  0.00  0.00    +0.000 A 
ENDBRANCH  11  12
ENDBRANCH   9  11
ENDBRANCH   8   9
ENDBRANCH   5   8
ENDBRANCH   1   2
BRANCH   1  20
ATOM     18  O   UNL     1      48.976   6.199  13.352  0.00  0.00    +0.000 OA
ATOM     19  C   UNL     1      48.339   6.672  14.296  0.00  0.00    +0.000 C 
ATOM     20  N   UNL     1      47.167   7.360  14.134  0.00  0.00    +0.000 N 
ATOM     21  H   UNL     1      46.806   7.920  14.897  0.00  0.00    +0.000 HD
BRANCH  19  22
ATOM     22  C   UNL     1      48.786   6.481  15.672  0.00  0.00    +0.000 A 
ATOM     23  C   UNL     1      49.531   7.447  16.333  0.00  0.00    +0.000 A 
ATOM     24  S   UNL     1      49.898   7.014  17.946  0.00  0.00    +0.000 S 
ATOM     25  C   UNL     1      49.058   5.541  17.801  0.00  0.00    +0.000 A 
ATOM     26  N   UNL     1      48.954   4.676  18.843  0.00  0.00    +0.000 NA
ATOM     27  C   UNL     1      48.268   3.612  18.588  0.00  0.00    +0.000 A 
ATOM     28  N   UNL     1      47.683   3.326  17.383  0.00  0.00    +0.000 N 
ATOM     29  C   UNL     1      47.815   4.127  16.290  0.00  0.00    +0.000 A 
ATOM     30  O   UNL     1      47.402   3.766  15.187  0.00  0.00    +0.000 OA
ATOM     31  C   UNL     1      48.534   5.360  16.535  0.00  0.00    +0.000 A 
ATOM     32  H   UNL     1      47.198   2.453  17.230  0.00  0.00    +0.000 HD
ENDBRANCH  19  22
ENDBRANCH   1  20
TORSDOF 7
ENDMDL
MODEL 2
REMARK VINA RESULT:    -8.334      1.210      1.352
REMARK INTER + INTRA:         -12.912
REMARK INTER:                 -11.839
REMARK INTRA:                  -1.073
REMARK UNBOUND:                -1.167
REMARK  Name = 
REMARK  7 active torsions:
REMARK  status: ('A' for Active; 'I' for Inactive)
REMARK    1  A    between atoms: C_2  and  C_20
REMARK    2  A    between atoms: N_3  and  C_4
REMARK    3  A    between atoms: C_4  and  C_5
REMARK    4  A    between atoms: C_8  and  C_9
REMARK    5  A    between atoms: C_9  and  N_10
REMARK    6  A    between atoms: N_10  and  C_11
REMARK    7  A    between atoms: C_11  and  C_12
REMARK                            x       y       z     vdW  Elec       q    Type
REMARK                         _______ _______ _______ _____ _____    ______ ____
ROOT
ATOM      1  C   UNL     1      47.819   6.866  13.345  0.00  0.00    +0.000 C 
ENDROOT
BRANCH   1   2
ATOM      2  C   UNL     1      46.750   5.977  12.765  0.00  0.00    +0.000 A 
ATOM      3  C   UNL     1      46.333   6.174  11.441  0.00  0.00    +0.000 A 
ATOM      4  C   UNL     1      45.392   5.326  10.851  0.00  0.00    +0.000 A 
ATOM      5  C   UNL     1      44.840   4.257  11.571  0.00  0.00    +0.000 A 
ATOM      6  C   UNL     1      45.244   4.071  12.901  0.00  0.00    +0.000 A 
ATOM      7  C   UNL     1      46.183   4.925  13.496  0.00  0.00    +0.000 A 
BRANCH   5   8
ATOM      8  C   UNL     1      43.810   3.334  10.951  0.00  0.00    +0.000 C 
BRANCH   8   9
ATOM      9  N   UNL     1      44.020   3.184   9.512  0.00  0.00    +0.000 NA
ATOM     10  H   UNL     1      44.582   3.966   9.183  0.00  0.00    +0.000 HD
BRANCH   9  11
ATOM     11  C   UNL     1      44.708   1.935   9.177  0.00  0.00    +0.000 C 
BRANCH  11  12
ATOM     12  C   UNL     1      45.827   2.152   8.186  0.00  0.00    +0.000 A 
ATOM     13  C   UNL     1      46.046   3.370   7.531  0.00  0.00    +0.000 A 
ATOM     14  C   UNL     1      47.094   3.495   6.623  0.00  0.00    +0.000 A 
ATOM     15  C   UNL     1      47.883   2.386   6.375  0.00  0.00    +0.000 A 
ATOM     16  N   UNL     1      47.691   1.184   6.960  0.00  0.00    +0.000 NA
ATOM     17  C   UNL     1      46.669   1.096   7.842  0.00  0.00    +0.000 A 
ENDBRANCH  11  12
ENDBRANCH   9  11
ENDBRANCH   8   9
ENDBRANCH   5   8
ENDBRANCH   1   2
BRANCH   1  20
ATOM     18  O   UNL     1      50.050   6.725  15.030  0.00  0.00    +0.000 OA
ATOM     19  C   UNL     1      48.931   6.881  15.525  0.00  0.00    +0.000 C 
ATOM     20  N   UNL     1      47.787   6.944  14.779  0.00  0.00    +0.000 N 
ATOM     21  H   UNL     1      46.934   7.298  15.197  0.00  0.00    +0.000 HD
BRANCH  19  22
ATOM     22  C   UNL     1      48.758   6.963  16.972  0.00  0.00    +0.000 A 
ATOM     23  C   UNL     1      48.473   8.167  17.601  0.00  0.00    +0.000 A 
ATOM     24  S   UNL     1      48.273   8.002  19.292  0.00  0.00    +0.000 S 
ATOM     25  C   UNL     1      48.544   6.324  19.216  0.00  0.00    +0.000 A 
ATOM     26  N   UNL     1      48.492   5.544  20.328  0.00  0.00    +0.000 NA
ATOM     27  C   UNL     1      48.697   4.289  20.110  0.00  0.00    +0.000 A 
ATOM     28  N   UNL     1      48.959   3.737  18.884  0.00  0.00    +0.000 N 
ATOM     29  C   UNL     1      49.089   4.483  17.752  0.00  0.00    +0.000 A 
ATOM     30  O   UNL     1      49.470   3.974  16.698  0.00  0.00    +0.000 OA
ATOM     31  C   UNL     1      48.819   5.895  17.932  0.00  0.00    +0.000 A 
ATOM     32  H   UNL     1      49.158   2.752  18.783  0.00  0.00    +0.000 HD
ENDBRANCH  19  22
ENDBRANCH   1  20
TORSDOF 7
ENDMDL
MODEL 3
REMARK VINA RESULT:    -7.736      2.298      3.198
REMARK INTER + INTRA:         -12.068
REMARK INTER:                 -10.925
REMARK INTRA:                  -1.143
REMARK UNBOUND:                -1.167
REMARK  Name = 
REMARK  7 active torsions:
REMARK  status: ('A' for Active; 'I' for Inactive)
REMARK    1  A    between atoms: C_2  and  C_20
REMARK    2  A    between atoms: N_3  and  C_4
REMARK    3  A    between atoms: C_4  and  C_5
REMARK    4  A    between atoms: C_8  and  C_9
REMARK    5  A    between atoms: C_9  and  N_10
REMARK    6  A    between atoms: N_10  and  C_11
REMARK    7  A    between atoms: C_11  and  C_12
REMARK                            x       y       z     vdW  Elec       q    Type
REMARK                         _______ _______ _______ _____ _____    ______ ____
ROOT
ATOM      1  C   UNL     1      48.324   6.327  13.634  0.00  0.00    +0.000 C 
ENDROOT
BRANCH   1   2
ATOM      2  C   UNL     1      47.151   5.821  12.835  0.00  0.00    +0.000 A 
ATOM      3  C   UNL     1      46.399   4.743  13.322  0.00  0.00    +0.000 A 
ATOM      4  C   UNL     1      45.266   4.292  12.641  0.00  0.00    +0.000 A 
ATOM      5  C   UNL     1      44.853   4.907  11.450  0.00  0.00    +0.000 A 
ATOM      6  C   UNL     1      45.616   5.974  10.954  0.00  0.00    +0.000 A 
ATOM      7  C   UNL     1      46.757   6.423  11.634  0.00  0.00    +0.000 A 
BRANCH   5   8
ATOM      8  C   UNL     1      43.633   4.424  10.692  0.00  0.00    +0.000 C 
BRANCH   8   9
ATOM      9  N   UNL     1      43.993   3.885   9.382  0.00  0.00    +0.000 NA
ATOM     10  H   UNL     1      44.554   4.577   8.889  0.00  0.00    +0.000 HD
BRANCH   9  11
ATOM     11  C   UNL     1      44.762   2.642   9.483  0.00  0.00    +0.000 C 
BRANCH  11  12
ATOM     12  C   UNL     1      45.726   2.475   8.333  0.00  0.00    +0.000 A 
ATOM     13  C   UNL     1      46.058   3.513   7.453  0.00  0.00    +0.000 A 
ATOM     14  C   UNL     1      46.950   3.285   6.410  0.00  0.00    +0.000 A 
ATOM     15  C   UNL     1      47.471   2.012   6.258  0.00  0.00    +0.000 A 
ATOM     16  N   UNL     1      47.157   0.974   7.063  0.00  0.00    +0.000 NA
ATOM     17  C   UNL     1      46.292   1.229   8.072  0.00  0.00    +0.000 A 
ENDBRANCH  11  12
ENDBRANCH   9  11
ENDBRANCH   8   9
ENDBRANCH   5   8
ENDBRANCH   1   2
BRANCH   1  20
ATOM     18  O   UNL     1      50.023   6.201  15.855  0.00  0.00    +0.000 OA
ATOM     19  C   UNL     1      48.881   6.644  15.997  0.00  0.00    +0.000 C 
ATOM     20  N   UNL     1      47.980   6.726  14.971  0.00  0.00    +0.000 N 
ATOM     21  H   UNL     1      47.151   7.299  15.077  0.00  0.00    +0.000 HD
BRANCH  19  22
ATOM     22  C   UNL     1      48.402   7.073  17.307  0.00  0.00    +0.000 A 
ATOM     23  C   UNL     1      48.261   6.176  18.357  0.00  0.00    +0.000 A 
ATOM     24  S   UNL     1      47.727   6.922  19.800  0.00  0.00    +0.000 S 
ATOM     25  C   UNL     1      47.690   8.454  19.061  0.00  0.00    +0.000 A 
ATOM     26  N   UNL     1      47.336   9.569  19.752  0.00  0.00    +0.000 NA
ATOM     27  C   UNL     1      47.376  10.660  19.063  0.00  0.00    +0.000 A 
ATOM     28  N   UNL     1      47.729  10.741  17.742  0.00  0.00    +0.000 N 
ATOM     29  C   UNL     1      48.025   9.647  16.988  0.00  0.00    +0.000 A 
ATOM     30  O   UNL     1      48.191   9.741  15.772  0.00  0.00    +0.000 OA
ATOM     31  C   UNL     1      48.043   8.399  17.726  0.00  0.00    +0.000 A 
ATOM     32  H   UNL     1      47.695  11.619  17.243  0.00  0.00    +0.000 HD
ENDBRANCH  19  22
ENDBRANCH   1  20
TORSDOF 7
ENDMDL
MODEL 4
REMARK VINA RESULT:    -7.386      1.974      2.379
REMARK INTER + INTRA:         -11.576
REMARK INTER:                 -10.753
REMARK INTRA:                  -0.823
REMARK UNBOUND:                -1.167
REMARK  Name = 
REMARK  7 active torsions:
REMARK  status: ('A' for Active; 'I' for Inactive)
REMARK    1  A    between atoms: C_2  and  C_20
REMARK    2  A    between atoms: N_3  and  C_4
REMARK    3  A    between atoms: C_4  and  C_5
REMARK    4  A    between atoms: C_8  and  C_9
REMARK    5  A    between atoms: C_9  and  N_10
REMARK    6  A    between atoms: N_10  and  C_11
REMARK    7  A    between atoms: C_11  and  C_12
REMARK                            x       y       z     vdW  Elec       q    Type
REMARK                         _______ _______ _______ _____ _____    ______ ____
ROOT
ATOM      1  C   UNL     1      47.791   7.224  13.875  0.00  0.00    +0.000 C 
ENDROOT
BRANCH   1   2
ATOM      2  C   UNL     1      46.865   6.377  13.041  0.00  0.00    +0.000 A 
ATOM      3  C   UNL     1      46.528   6.794  11.746  0.00  0.00    +0.000 A 
ATOM      4  C   UNL     1      45.727   6.000  10.922  0.00  0.00    +0.000 A 
ATOM      5  C   UNL     1      45.238   4.766  11.372  0.00  0.00    +0.000 A 
ATOM      6  C   UNL     1      45.560   4.357  12.674  0.00  0.00    +0.000 A 
ATOM      7  C   UNL     1      46.359   5.156  13.504  0.00  0.00    +0.000 A 
BRANCH   5   8
ATOM      8  C   UNL     1      44.358   3.897  10.495  0.00  0.00    +0.000 C 
BRANCH   8   9
ATOM      9  N   UNL     1      44.901   2.547  10.359  0.00  0.00    +0.000 NA
ATOM     10  H   UNL     1      44.476   1.953  11.069  0.00  0.00    +0.000 HD
BRANCH   9  11
ATOM     11  C   UNL     1      44.631   1.968   9.040  0.00  0.00    +0.000 C 
BRANCH  11  12
ATOM     12  C   UNL     1      45.787   2.159   8.089  0.00  0.00    +0.000 A 
ATOM     13  C   UNL     1      45.986   3.332   7.349  0.00  0.00    +0.000 A 
ATOM     14  C   UNL     1      47.073   3.435   6.485  0.00  0.00    +0.000 A 
ATOM     15  C   UNL     1      47.921   2.349   6.363  0.00  0.00    +0.000 A 
ATOM     16  N   UNL     1      47.752   1.188   7.033  0.00  0.00    +0.000 NA
ATOM     17  C   UNL     1      46.690   1.121   7.871  0.00  0.00    +0.000 A 
ENDBRANCH  11  12
ENDBRANCH   9  11
ENDBRANCH   8   9
ENDBRANCH   5   8
ENDBRANCH   1   2
BRANCH   1  20
ATOM     18  O   UNL     1      49.495   8.348  15.790  0.00  0.00    +0.000 OA
ATOM     19  C   UNL     1      49.022   7.226  15.991  0.00  0.00    +0.000 C 
ATOM     20  N   UNL     1      48.195   6.596  15.102  0.00  0.00    +0.000 N 
ATOM     21  H   UNL     1      47.654   5.793  15.404  0.00  0.00    +0.000 HD
BRANCH  19  22
ATOM     22  C   UNL     1      49.363   6.475  17.194  0.00  0.00    +0.000 A 
ATOM     23  C   UNL     1      50.184   5.357  17.143  0.00  0.00    +0.000 A 
ATOM     24  S   UNL     1      50.473   4.674  18.684  0.00  0.00    +0.000 S 
ATOM     25  C   UNL     1      49.525   5.862  19.450  0.00  0.00    +0.000 A 
ATOM     26  N   UNL     1      49.365   5.883  20.799  0.00  0.00    +0.000 NA
ATOM     27  C   UNL     1      48.637   6.855  21.236  0.00  0.00    +0.000 A 
ATOM     28  N   UNL     1      48.045   7.807  20.448  0.00  0.00    +0.000 N 
ATOM     29  C   UNL     1      48.118   7.790  19.089  0.00  0.00    +0.000 A 
ATOM     30  O   UNL     1      47.453   8.572  18.409  0.00  0.00    +0.000 OA
ATOM     31  C   UNL     1      48.966   6.746  18.548  0.00  0.00    +0.000 A 
ATOM     32  H   UNL     1      47.446   8.517  20.845  0.00  0.00    +0.000 HD
ENDBRANCH  19  22
ENDBRANCH   1  20
TORSDOF 7
ENDMDL
MODEL 5
REMARK VINA RESULT:    -7.382      2.328      3.104
REMARK INTER + INTRA:         -11.569
REMARK INTER:                 -10.566
REMARK INTRA:                  -1.004
REMARK UNBOUND:                -1.167
REMARK  Name = 
REMARK  7 active torsions:
REMARK  status: ('A' for Active; 'I' for Inactive)
REMARK    1  A    between atoms: C_2  and  C_20
REMARK    2  A    between atoms: N_3  and  C_4
REMARK    3  A    between atoms: C_4  and  C_5
REMARK    4  A    between atoms: C_8  and  C_9
REMARK    5  A    between atoms: C_9  and  N_10
REMARK    6  A    between atoms: N_10  and  C_11
REMARK    7  A    between atoms: C_11  and  C_12
REMARK                            x       y       z     vdW  Elec       q    Type
REMARK                         _______ _______ _______ _____ _____    ______ ____
ROOT
ATOM      1  C   UNL     1      47.458   4.510  15.411  0.00  0.00    +0.000 C 
ENDROOT
BRANCH   1   2
ATOM      2  C   UNL     1      46.861   4.880  14.078  0.00  0.00    +0.000 A 
ATOM      3  C   UNL     1      45.678   4.258  13.656  0.00  0.00    +0.000 A 
ATOM      4  C   UNL     1      45.061   4.626  12.458  0.00  0.00    +0.000 A 
ATOM      5  C   UNL     1      45.614   5.626  11.644  0.00  0.00    +0.000 A 
ATOM      6  C   UNL     1      46.808   6.234  12.058  0.00  0.00    +0.000 A 
ATOM      7  C   UNL     1      47.430   5.862  13.258  0.00  0.00    +0.000 A 
BRANCH   5   8
ATOM      8  C   UNL     1      44.966   6.029  10.336  0.00  0.00    +0.000 C 
BRANCH   8   9
ATOM      9  N   UNL     1      45.607   5.378   9.195  0.00  0.00    +0.000 NA
ATOM     10  H   UNL     1      46.524   5.045   9.485  0.00  0.00    +0.000 HD
BRANCH   9  11
ATOM     11  C   UNL     1      44.831   4.241   8.694  0.00  0.00    +0.000 C 
BRANCH  11  12
ATOM     12  C   UNL     1      45.715   3.160   8.117  0.00  0.00    +0.000 A 
ATOM     13  C   UNL     1      46.611   3.384   7.064  0.00  0.00    +0.000 A 
ATOM     14  C   UNL     1      47.390   2.337   6.578  0.00  0.00    +0.000 A 
ATOM     15  C   UNL     1      47.233   1.084   7.144  0.00  0.00    +0.000 A 
ATOM     16  N   UNL     1      46.361   0.816   8.139  0.00  0.00    +0.000 NA
ATOM     17  C   UNL     1      45.623   1.855   8.595  0.00  0.00    +0.000 A 
ENDBRANCH  11  12
ENDBRANCH   9  11
ENDBRANCH   8   9
ENDBRANCH   5   8
ENDBRANCH   1   2
BRANCH   1  20
ATOM     18  O   UNL     1      49.947   4.811  16.655  0.00  0.00    +0.000 OA
ATOM     19  C   UNL     1      49.113   5.715  16.753  0.00  0.00    +0.000 C 
ATOM     20  N   UNL     1      47.868   5.644  16.192  0.00  0.00    +0.000 N 
ATOM     21  H   UNL     1      47.311   6.486  16.100  0.00  0.00    +0.000 HD
BRANCH  19  22
ATOM     22  C   UNL     1      49.400   6.917  17.529  0.00  0.00    +0.000 A 
ATOM     23  C   UNL     1      50.328   7.854  17.098  0.00  0.00    +0.000 A 
ATOM     24  S   UNL     1      50.458   9.194  18.152  0.00  0.00    +0.000 S 
ATOM     25  C   UNL     1      49.269   8.562  19.192  0.00  0.00    +0.000 A 
ATOM     26  N   UNL     1      48.870   9.231  20.306  0.00  0.00    +0.000 NA
ATOM     27  C   UNL     1      47.946   8.636  20.983  0.00  0.00    +0.000 A 
ATOM     28  N   UNL     1      47.388   7.428  20.658  0.00  0.00    +0.000 N 
ATOM     29  C   UNL     1      47.801   6.688  19.592  0.00  0.00    +0.000 A 
ATOM     30  O   UNL     1      47.382   5.544  19.416  0.00  0.00    +0.000 OA
ATOM     31  C   UNL     1      48.803   7.332  18.768  0.00  0.00    +0.000 A 
ATOM     32  H   UNL     1      46.701   6.990  21.254  0.00  0.00    +0.000 HD
ENDBRANCH  19  22
ENDBRANCH   1  20
TORSDOF 7
ENDMDL
MODEL 6
REMARK VINA RESULT:    -7.310      2.257      3.161
REMARK INTER + INTRA:         -11.469
REMARK INTER:                 -10.286
REMARK INTRA:                  -1.183
REMARK UNBOUND:                -1.167
REMARK  Name = 
REMARK  7 active torsions:
REMARK  status: ('A' for Active; 'I' for Inactive)
REMARK    1  A    between atoms: C_2  and  C_20
REMARK    2  A    between atoms: N_3  and  C_4
REMARK    3  A    between atoms: C_4  and  C_5
REMARK    4  A    between atoms: C_8  and  C_9
REMARK    5  A    between atoms: C_9  and  N_10
REMARK    6  A    between atoms: N_10  and  C_11
REMARK    7  A    between atoms: C_11  and  C_12
REMARK                            x       y       z     vdW  Elec       q    Type
REMARK                         _______ _______ _______ _____ _____    ______ ____
ROOT
ATOM      1  C   UNL     1      47.457   7.498  13.128  0.00  0.00    +0.000 C 
ENDROOT
BRANCH   1   2
ATOM      2  C   UNL     1      46.636   6.366  12.566  0.00  0.00    +0.000 A 
ATOM      3  C   UNL     1      46.394   5.233  13.353  0.00  0.00    +0.000 A 
ATOM      4  C   UNL     1      45.581   4.196  12.888  0.00  0.00    +0.000 A 
ATOM      5  C   UNL     1      44.989   4.264  11.619  0.00  0.00    +0.000 A 
ATOM      6  C   UNL     1      45.247   5.390  10.824  0.00  0.00    +0.000 A 
ATOM      7  C   UNL     1      46.067   6.428  11.287  0.00  0.00    +0.000 A 
BRANCH   5   8
ATOM      8  C   UNL     1      44.115   3.143  11.094  0.00  0.00    +0.000 C 
BRANCH   8   9
ATOM      9  N   UNL     1      44.084   3.125   9.632  0.00  0.00    +0.000 NA
ATOM     10  H   UNL     1      44.637   3.906   9.287  0.00  0.00    +0.000 HD
BRANCH   9  11
ATOM     11  C   UNL     1      44.629   1.882   9.080  0.00  0.00    +0.000 C 
BRANCH  11  12
ATOM     12  C   UNL     1      45.787   2.136   8.145  0.00  0.00    +0.000 A 
ATOM     13  C   UNL     1      45.984   3.353   7.481  0.00  0.00    +0.000 A 
ATOM     14  C   UNL     1      47.072   3.514   6.627  0.00  0.00    +0.000 A 
ATOM     15  C   UNL     1      47.924   2.440   6.440  0.00  0.00    +0.000 A 
ATOM     16  N   UNL     1      47.757   1.239   7.035  0.00  0.00    +0.000 NA
ATOM     17  C   UNL     1      46.694   1.116   7.864  0.00  0.00    +0.000 A 
ENDBRANCH  11  12
ENDBRANCH   9  11
ENDBRANCH   8   9
ENDBRANCH   5   8
ENDBRANCH   1   2
BRANCH   1  20
ATOM     18  O   UNL     1      48.118   8.616  15.608  0.00  0.00    +0.000 OA
ATOM     19  C   UNL     1      48.772   7.659  15.187  0.00  0.00    +0.000 C 
ATOM     20  N   UNL     1      48.529   7.062  13.980  0.00  0.00    +0.000 N 
ATOM     21  H   UNL     1      48.928   6.152  13.781  0.00  0.00    +0.000 HD
BRANCH  19  22
ATOM     22  C   UNL     1      49.896   7.127  15.950  0.00  0.00    +0.000 A 
ATOM     23  C   UNL     1      49.704   6.437  17.139  0.00  0.00    +0.000 A 
ATOM     24  S   UNL     1      51.166   5.876  17.826  0.00  0.00    +0.000 S 
ATOM     25  C   UNL     1      52.081   6.523  16.545  0.00  0.00    +0.000 A 
ATOM     26  N   UNL     1      53.431   6.378  16.491  0.00  0.00    +0.000 NA
ATOM     27  C   UNL     1      53.983   6.904  15.450  0.00  0.00    +0.000 A 
ATOM     28  N   UNL     1      53.313   7.571  14.458  0.00  0.00    +0.000 N 
ATOM     29  C   UNL     1      51.972   7.802  14.500  0.00  0.00    +0.000 A 
ATOM     30  O   UNL     1      51.429   8.531  13.670  0.00  0.00    +0.000 OA
ATOM     31  C   UNL     1      51.294   7.189  15.625  0.00  0.00    +0.000 A 
ATOM     32  H   UNL     1      53.807   8.003  13.690  0.00  0.00    +0.000 HD
ENDBRANCH  19  22
ENDBRANCH   1  20
TORSDOF 7
ENDMDL
MODEL 7
REMARK VINA RESULT:    -7.197      2.587      4.432
REMARK INTER + INTRA:         -11.310
REMARK INTER:                 -10.236
REMARK INTRA:                  -1.073
REMARK UNBOUND:                -1.167
REMARK  Name = 
REMARK  7 active torsions:
REMARK  status: ('A' for Active; 'I' for Inactive)
REMARK    1  A    between atoms: C_2  and  C_20
REMARK    2  A    between atoms: N_3  and  C_4
REMARK    3  A    between atoms: C_4  and  C_5
REMARK    4  A    between atoms: C_8  and  C_9
REMARK    5  A    between atoms: C_9  and  N_10
REMARK    6  A    between atoms: N_10  and  C_11
REMARK    7  A    between atoms: C_11  and  C_12
REMARK                            x       y       z     vdW  Elec       q    Type
REMARK                         _______ _______ _______ _____ _____    ______ ____
ROOT
ATOM      1  C   UNL     1      47.623   5.802  14.334  0.00  0.00    +0.000 C 
ENDROOT
BRANCH   1   2
ATOM      2  C   UNL     1      46.610   5.496  13.261  0.00  0.00    +0.000 A 
ATOM      3  C   UNL     1      45.572   4.595  13.529  0.00  0.00    +0.000 A 
ATOM      4  C   UNL     1      44.578   4.340  12.580  0.00  0.00    +0.000 A 
ATOM      5  C   UNL     1      44.598   4.981  11.333  0.00  0.00    +0.000 A 
ATOM      6  C   UNL     1      45.648   5.869  11.058  0.00  0.00    +0.000 A 
ATOM      7  C   UNL     1      46.648   6.121  12.007  0.00  0.00    +0.000 A 
BRANCH   5   8
ATOM      8  C   UNL     1      43.536   4.708  10.288  0.00  0.00    +0.000 C 
BRANCH   8   9
ATOM      9  N   UNL     1      44.123   4.237   9.035  0.00  0.00    +0.000 NA
ATOM     10  H   UNL     1      44.890   4.855   8.783  0.00  0.00    +0.000 HD
BRANCH   9  11
ATOM     11  C   UNL     1      44.637   2.869   9.141  0.00  0.00    +0.000 C 
BRANCH  11  12
ATOM     12  C   UNL     1      45.693   2.577   8.102  0.00  0.00    +0.000 A 
ATOM     13  C   UNL     1      46.037   3.476   7.085  0.00  0.00    +0.000 A 
ATOM     14  C   UNL     1      47.017   3.136   6.156  0.00  0.00    +0.000 A 
ATOM     15  C   UNL     1      47.612   1.890   6.255  0.00  0.00    +0.000 A 
ATOM     16  N   UNL     1      47.291   0.981   7.200  0.00  0.00    +0.000 NA
ATOM     17  C   UNL     1      46.339   1.343   8.092  0.00  0.00    +0.000 A 
ENDBRANCH  11  12
ENDBRANCH   9  11
ENDBRANCH   8   9
ENDBRANCH   5   8
ENDBRANCH   1   2
BRANCH   1  20
ATOM     18  O   UNL     1      49.922   7.059  13.352  0.00  0.00    +0.000 OA
ATOM     19  C   UNL     1      49.069   7.735  13.932  0.00  0.00    +0.000 C 
ATOM     20  N   UNL     1      47.925   7.201  14.458  0.00  0.00    +0.000 N 
ATOM     21  H   UNL     1      47.159   7.812  14.715  0.00  0.00    +0.000 HD
BRANCH  19  22
ATOM     22  C   UNL     1      49.260   9.168  14.135  0.00  0.00    +0.000 A 
ATOM     23  C   UNL     1      50.262   9.656  14.962  0.00  0.00    +0.000 A 
ATOM     24  S   UNL     1      50.314  11.365  15.005  0.00  0.00    +0.000 S 
ATOM     25  C   UNL     1      49.016  11.488  13.911  0.00  0.00    +0.000 A 
ATOM     26  N   UNL     1      48.553  12.693  13.489  0.00  0.00    +0.000 NA
ATOM     27  C   UNL     1      47.579  12.626  12.645  0.00  0.00    +0.000 A 
ATOM     28  N   UNL     1      47.016  11.463  12.186  0.00  0.00    +0.000 N 
ATOM     29  C   UNL     1      47.399  10.234  12.630  0.00  0.00    +0.000 A 
ATOM     30  O   UNL     1      46.773   9.223  12.310  0.00  0.00    +0.000 OA
ATOM     31  C   UNL     1      48.523  10.250  13.543  0.00  0.00    +0.000 A 
ATOM     32  H   UNL     1      46.224  11.476  11.561  0.00  0.00    +0.000 HD
ENDBRANCH  19  22
ENDBRANCH   1  20
TORSDOF 7
ENDMDL
MODEL 8
REMARK VINA RESULT:    -6.976      4.031      5.678
REMARK INTER + INTRA:         -10.998
REMARK INTER:                  -9.842
REMARK INTRA:                  -1.156
REMARK UNBOUND:                -1.167
REMARK  Name = 
REMARK  7 active torsions:
REMARK  status: ('A' for Active; 'I' for Inactive)
REMARK    1  A    between atoms: C_2  and  C_20
REMARK    2  A    between atoms: N_3  and  C_4
REMARK    3  A    between atoms: C_4  and  C_5
REMARK    4  A    between atoms: C_8  and  C_9
REMARK    5  A    between atoms: C_9  and  N_10
REMARK    6  A    between atoms: N_10  and  C_11
REMARK    7  A    between atoms: C_11  and  C_12
REMARK                            x       y       z     vdW  Elec       q    Type
REMARK                         _______ _______ _______ _____ _____    ______ ____
ROOT
ATOM      1  C   UNL     1      47.604   7.762  13.154  0.00  0.00    +0.000 C 
ENDROOT
BRANCH   1   2
ATOM      2  C   UNL     1      46.766   6.663  12.554  0.00  0.00    +0.000 A 
ATOM      3  C   UNL     1      46.405   5.562  13.344  0.00  0.00    +0.000 A 
ATOM      4  C   UNL     1      45.574   4.559  12.840  0.00  0.00    +0.000 A 
ATOM      5  C   UNL     1      45.081   4.628  11.529  0.00  0.00    +0.000 A 
ATOM      6  C   UNL     1      45.458   5.720  10.733  0.00  0.00    +0.000 A 
ATOM      7  C   UNL     1      46.297   6.724  11.236  0.00  0.00    +0.000 A 
BRANCH   5   8
ATOM      8  C   UNL     1      44.188   3.543  10.962  0.00  0.00    +0.000 C 
BRANCH   8   9
ATOM      9  N   UNL     1      44.964   2.391  10.505  0.00  0.00    +0.000 NA
ATOM     10  H   UNL     1      44.782   1.609  11.131  0.00  0.00    +0.000 HD
BRANCH   9  11
ATOM     11  C   UNL     1      44.617   1.992   9.139  0.00  0.00    +0.000 C 
BRANCH  11  12
ATOM     12  C   UNL     1      45.768   2.183   8.181  0.00  0.00    +0.000 A 
ATOM     13  C   UNL     1      46.006   3.382   7.497  0.00  0.00    +0.000 A 
ATOM     14  C   UNL     1      47.085   3.484   6.623  0.00  0.00    +0.000 A 
ATOM     15  C   UNL     1      47.886   2.371   6.436  0.00  0.00    +0.000 A 
ATOM     16  N   UNL     1      47.677   1.187   7.051  0.00  0.00    +0.000 NA
ATOM     17  C   UNL     1      46.625   1.121   7.900  0.00  0.00    +0.000 A 
ENDBRANCH  11  12
ENDBRANCH   9  11
ENDBRANCH   8   9
ENDBRANCH   5   8
ENDBRANCH   1   2
BRANCH   1  20
ATOM     18  O   UNL     1      48.379  10.435  13.455  0.00  0.00    +0.000 OA
ATOM     19  C   UNL     1      48.671   9.838  12.416  0.00  0.00    +0.000 C 
ATOM     20  N   UNL     1      48.319   8.538  12.178  0.00  0.00    +0.000 N 
ATOM     21  H   UNL     1      48.769   8.025  11.430  0.00  0.00    +0.000 HD
BRANCH  19  22
ATOM     22  C   UNL     1      49.387  10.515  11.339  0.00  0.00    +0.000 A 
ATOM     23  C   UNL     1      48.788  11.518  10.589  0.00  0.00    +0.000 A 
ATOM     24  S   UNL     1      49.839  12.187   9.417  0.00  0.00    +0.000 S 
ATOM     25  C   UNL     1      51.114  11.169   9.898  0.00  0.00    +0.000 A 
ATOM     26  N   UNL     1      52.338  11.236   9.310  0.00  0.00    +0.000 NA
ATOM     27  C   UNL     1      53.209  10.416   9.795  0.00  0.00    +0.000 A 
ATOM     28  N   UNL     1      52.970   9.526  10.809  0.00  0.00    +0.000 N 
ATOM     29  C   UNL     1      51.745   9.373  11.383  0.00  0.00    +0.000 A 
ATOM     30  O   UNL     1      51.531   8.464  12.186  0.00  0.00    +0.000 OA
ATOM     31  C   UNL     1      50.742  10.305  10.910  0.00  0.00    +0.000 A 
ATOM     32  H   UNL     1      53.680   8.876  11.114  0.00  0.00    +0.000 HD
ENDBRANCH  19  22
ENDBRANCH   1  20
TORSDOF 7
ENDMDL
MODEL 9
REMARK VINA RESULT:    -6.929      2.913      8.370
REMARK INTER + INTRA:         -10.932
REMARK INTER:                  -9.354
REMARK INTRA:                  -1.578
REMARK UNBOUND:                -1.167
REMARK  Name = 
REMARK  7 active torsions:
REMARK  status: ('A' for Active; 'I' for Inactive)
REMARK    1  A    between atoms: C_2  and  C_20
REMARK    2  A    between atoms: N_3  and  C_4
REMARK    3  A    between atoms: C_4  and  C_5
REMARK    4  A    between atoms: C_8  and  C_9
REMARK    5  A    between atoms: C_9  and  N_10
REMARK    6  A    between atoms: N_10  and  C_11
REMARK    7  A    between atoms: C_11  and  C_12
REMARK                            x       y       z     vdW  Elec       q    Type
REMARK                         _______ _______ _______ _____ _____    ______ ____
ROOT
ATOM      1  C   UNL     1      47.609   7.894  11.812  0.00  0.00    +0.000 C 
ENDROOT
BRANCH   1   2
ATOM      2  C   UNL     1      48.317   8.055  13.133  0.00  0.00    +0.000 A 
ATOM      3  C   UNL     1      47.664   8.700  14.191  0.00  0.00    +0.000 A 
ATOM      4  C   UNL     1      48.265   8.807  15.448  0.00  0.00    +0.000 A 
ATOM      5  C   UNL     1      49.540   8.271  15.680  0.00  0.00    +0.000 A 
ATOM      6  C   UNL     1      50.201   7.642  14.615  0.00  0.00    +0.000 A 
ATOM      7  C   UNL     1      49.601   7.540  13.353  0.00  0.00    +0.000 A 
BRANCH   5   8
ATOM      8  C   UNL     1      50.211   8.388  17.033  0.00  0.00    +0.000 C 
BRANCH   8   9
ATOM      9  N   UNL     1      49.715   7.380  17.968  0.00  0.00    +0.000 NA
ATOM     10  H   UNL     1      48.746   7.171  17.736  0.00  0.00    +0.000 HD
BRANCH   9  11
ATOM     11  C   UNL     1      50.490   6.137  17.911  0.00  0.00    +0.000 C 
BRANCH  11  12
ATOM     12  C   UNL     1      49.667   4.976  17.407  0.00  0.00    +0.000 A 
ATOM     13  C   UNL     1      48.342   5.108  16.973  0.00  0.00    +0.000 A 
ATOM     14  C   UNL     1      47.640   3.991  16.527  0.00  0.00    +0.000 A 
ATOM     15  C   UNL     1      48.277   2.763  16.551  0.00  0.00    +0.000 A 
ATOM     16  N   UNL     1      49.542   2.584  16.989  0.00  0.00    +0.000 NA
ATOM     17  C   UNL     1      50.200   3.690  17.410  0.00  0.00    +0.000 A 
ENDBRANCH  11  12
ENDBRANCH   9  11
ENDBRANCH   8   9
ENDBRANCH   5   8
ENDBRANCH   1   2
BRANCH   1  20
ATOM     18  O   UNL     1      44.833   7.597  11.622  0.00  0.00    +0.000 OA
ATOM     19  C   UNL     1      45.549   6.594  11.580  0.00  0.00    +0.000 C 
ATOM     20  N   UNL     1      46.912   6.645  11.682  0.00  0.00    +0.000 N 
ATOM     21  H   UNL     1      47.465   5.839  11.415  0.00  0.00    +0.000 HD
BRANCH  19  22
ATOM     22  C   UNL     1      44.964   5.262  11.462  0.00  0.00    +0.000 A 
ATOM     23  C   UNL     1      44.274   4.677  12.514  0.00  0.00    +0.000 A 
ATOM     24  S   UNL     1      43.646   3.135  12.122  0.00  0.00    +0.000 S 
ATOM     25  C   UNL     1      44.266   3.224  10.539  0.00  0.00    +0.000 A 
ATOM     26  N   UNL     1      44.065   2.226   9.640  0.00  0.00    +0.000 NA
ATOM     27  C   UNL     1      44.576   2.445   8.475  0.00  0.00    +0.000 A 
ATOM     28  N   UNL     1      45.279   3.569   8.125  0.00  0.00    +0.000 N 
ATOM     29  C   UNL     1      45.564   4.565   9.008  0.00  0.00    +0.000 A 
ATOM     30  O   UNL     1      46.322   5.485   8.700  0.00  0.00    +0.000 OA
ATOM     31  C   UNL     1      44.971   4.392  10.319  0.00  0.00    +0.000 A 
ATOM     32  H   UNL     1      45.696   3.662   7.210  0.00  0.00    +0.000 HD
ENDBRANCH  19  22
ENDBRANCH   1  20
TORSDOF 7
ENDMDL
