MODEL 1
REMARK VINA RESULT:    -8.002      0.000      0.000
REMARK INTER + INTRA:         -10.242
REMARK INTER:                  -9.405
REMARK INTRA:                  -0.836
REMARK UNBOUND:                -0.836
REMARK  Name = 
REMARK  3 active torsions:
REMARK  status: ('A' for Active; 'I' for Inactive)
REMARK    1  A    between atoms: N_6  and  C_7
REMARK    2  A    between atoms: C_7  and  C_8
REMARK    3  A    between atoms: C_12  and  C_13
REMARK                            x       y       z     vdW  Elec       q    Type
REMARK                         _______ _______ _______ _____ _____    ______ ____
ROOT
ATOM      1  C   UNL     1      45.121   5.311  12.234  0.00  0.00    +0.000 A 
ATOM      2  C   UNL     1      45.586   4.460  13.243  0.00  0.00    +0.000 A 
ATOM      3  C   UNL     1      46.847   4.645  13.806  0.00  0.00    +0.000 A 
ATOM      4  C   UNL     1      47.673   5.677  13.359  0.00  0.00    +0.000 A 
ATOM      5  C   UNL     1      47.228   6.600  12.404  0.00  0.00    +0.000 A 
ATOM      6  C   UNL     1      45.929   6.420  11.896  0.00  0.00    +0.000 A 
ENDROOT
BRANCH   5   7
ATOM      7  C   UNL     1      48.109   7.679  11.776  0.00  0.00    +0.000 C 
ATOM      8  C   UNL     1      49.626   7.522  11.983  0.00  0.00    +0.000 C 
ATOM      9  C   UNL     1      50.075   7.979  13.373  0.00  0.00    +0.000 C 
ATOM     10  N   UNL     1      49.662   9.349  13.663  0.00  0.00    +0.000 NA
ATOM     11  C   UNL     1      48.209   9.500  13.549  0.00  0.00    +0.000 C 
ATOM     12  C   UNL     1      47.707   9.116  12.159  0.00  0.00    +0.000 C 
ATOM     13  H   UNL     1      50.117   9.983  13.009  0.00  0.00    +0.000 HD
ENDBRANCH   5   7
BRANCH   1  14
ATOM     14  C   UNL     1      43.860   4.971  11.427  0.00  0.00    +0.000 C 
ATOM     15  C   UNL     1      42.526   5.179  12.154  0.00  0.00    +0.000 C 
ATOM     16  C   UNL     1      42.951   6.152  11.113  0.00  0.00    +0.000 C 
BRANCH  14  22
ATOM     17 CL   UNL     1      47.298   1.995   6.123  0.00  0.00    +0.000 Cl
ATOM     18  C   UNL     1      46.404   2.570   7.469  0.00  0.00    +0.000 A 
ATOM     19  C   UNL     1      46.225   3.923   7.671  0.00  0.00    +0.000 A 
ATOM     20  C   UNL     1      45.459   4.354   8.760  0.00  0.00    +0.000 A 
ATOM     21  C   UNL     1      44.871   3.428   9.613  0.00  0.00    +0.000 A 
ATOM     22  N   UNL     1      43.978   3.742  10.636  0.00  0.00    +0.000 N 
ATOM     23  N   UNL     1      45.063   2.103   9.426  0.00  0.00    +0.000 NA
ATOM     24  C   UNL     1      45.822   1.702   8.373  0.00  0.00    +0.000 A 
ATOM     25  H   UNL     1      43.758   2.868  11.113  0.00  0.00    +0.000 HD
ENDBRANCH  14  22
ENDBRANCH   1  14
TORSDOF 3
ENDMDL
MODEL 2
REMARK VINA RESULT:    -6.968      2.355      3.551
REMARK INTER + INTRA:          -9.027
REMARK INTER:                  -8.479
REMARK INTRA:                  -0.548
REMARK UNBOUND:                -0.836
REMARK  Name = 
REMARK  3 active torsions:
REMARK  status: ('A' for Active; 'I' for Inactive)
REMARK    1  A    between atoms: N_6  and  C_7
REMARK    2  A    between atoms: C_7  and  C_8
REMARK    3  A    between atoms: C_12  and  C_13
REMARK                            x       y       z     vdW  Elec       q    Type
REMARK                         _______ _______ _______ _____ _____    ______ ____
ROOT
ATOM      1  C   UNL     1      45.771   4.919  12.916  0.00  0.00    +0.000 A 
ATOM      2  C   UNL     1      46.669   5.827  12.344  0.00  0.00    +0.000 A 
ATOM      3  C   UNL     1      47.780   6.275  13.057  0.00  0.00    +0.000 A 
ATOM      4  C   UNL     1      48.005   5.833  14.361  0.00  0.00    +0.000 A 
ATOM      5  C   UNL     1      47.177   4.870  14.954  0.00  0.00    +0.000 A 
ATOM      6  C   UNL     1      46.097   4.396  14.188  0.00  0.00    +0.000 A 
ENDROOT
BRANCH   5   7
ATOM      7  C   UNL     1      47.283   4.428  16.411  0.00  0.00    +0.000 C 
ATOM      8  C   UNL     1      48.223   5.255  17.307  0.00  0.00    +0.000 C 
ATOM      9  C   UNL     1      49.695   4.889  17.100  0.00  0.00    +0.000 C 
ATOM     10  N   UNL     1      49.940   3.462  17.288  0.00  0.00    +0.000 NA
ATOM     11  C   UNL     1      49.110   2.658  16.387  0.00  0.00    +0.000 C 
ATOM     12  C   UNL     1      47.622   2.935  16.590  0.00  0.00    +0.000 C 
ATOM     13  H   UNL     1      49.730   3.208  18.251  0.00  0.00    +0.000 HD
ENDBRANCH   5   7
BRANCH   1  14
ATOM     14  C   UNL     1      44.417   4.620  12.257  0.00  0.00    +0.000 C 
ATOM     15  C   UNL     1      43.198   4.657  13.189  0.00  0.00    +0.000 C 
ATOM     16  C   UNL     1      43.430   5.780  12.242  0.00  0.00    +0.000 C 
BRANCH  14  22
ATOM     17 CL   UNL     1      46.628   2.770   5.894  0.00  0.00    +0.000 Cl
ATOM     18  C   UNL     1      46.067   3.059   7.488  0.00  0.00    +0.000 A 
ATOM     19  C   UNL     1      45.794   4.342   7.919  0.00  0.00    +0.000 A 
ATOM     20  C   UNL     1      45.303   4.535   9.215  0.00  0.00    +0.000 A 
ATOM     21  C   UNL     1      45.076   3.447  10.048  0.00  0.00    +0.000 A 
ATOM     22  N   UNL     1      44.459   3.513  11.296  0.00  0.00    +0.000 N 
ATOM     23  N   UNL     1      45.363   2.192   9.633  0.00  0.00    +0.000 NA
ATOM     24  C   UNL     1      45.852   2.023   8.377  0.00  0.00    +0.000 A 
ATOM     25  H   UNL     1      44.478   2.571  11.684  0.00  0.00    +0.000 HD
ENDBRANCH  14  22
ENDBRANCH   1  14
TORSDOF 3
ENDMDL
MODEL 3
REMARK VINA RESULT:    -6.543      3.337      6.756
REMARK INTER + INTRA:          -8.527
REMARK INTER:                  -8.624
REMARK INTRA:                   0.097
REMARK UNBOUND:                -0.836
REMARK  Name = 
REMARK  3 active torsions:
REMARK  status: ('A' for Active; 'I' for Inactive)
REMARK    1  A    between atoms: N_6  and  C_7
REMARK    2  A    between atoms: C_7  and  C_8
REMARK    3  A    between atoms: C_12  and  C_13
REMARK                            x       y       z     vdW  Elec       q    Type
REMARK                         _______ _______ _______ _____ _____    ______ ____
ROOT
ATOM      1  C   UNL     1      44.988   3.770  10.360  0.00  0.00    +0.000 A 
ATOM      2  C   UNL     1      45.434   5.075  10.117  0.00  0.00    +0.000 A 
ATOM      3  C   UNL     1      46.021   5.413   8.900  0.00  0.00    +0.000 A 
ATOM      4  C   UNL     1      46.186   4.447   7.906  0.00  0.00    +0.000 A 
ATOM      5  C   UNL     1      45.692   3.146   8.069  0.00  0.00    +0.000 A 
ATOM      6  C   UNL     1      45.054   2.852   9.287  0.00  0.00    +0.000 A 
ENDROOT
BRANCH   5   7
ATOM      7  C   UNL     1      45.939   2.005   7.085  0.00  0.00    +0.000 C 
ATOM      8  C   UNL     1      47.154   1.106   7.377  0.00  0.00    +0.000 C 
ATOM      9  C   UNL     1      48.473   1.750   6.943  0.00  0.00    +0.000 C 
ATOM     10  N   UNL     1      48.457   2.144   5.537  0.00  0.00    +0.000 NA
ATOM     11  C   UNL     1      47.353   3.064   5.255  0.00  0.00    +0.000 C 
ATOM     12  C   UNL     1      46.000   2.451   5.611  0.00  0.00    +0.000 C 
ATOM     13  H   UNL     1      48.358   1.313   4.956  0.00  0.00    +0.000 HD
ENDBRANCH   5   7
BRANCH   1  14
ATOM     14  C   UNL     1      44.585   3.318  11.770  0.00  0.00    +0.000 C 
ATOM     15  C   UNL     1      43.340   3.996  12.357  0.00  0.00    +0.000 C 
ATOM     16  C   UNL     1      43.246   2.597  11.863  0.00  0.00    +0.000 C 
BRANCH  14  22
ATOM     17 CL   UNL     1      49.067   6.761  15.875  0.00  0.00    +0.000 Cl
ATOM     18  C   UNL     1      48.012   5.776  14.949  0.00  0.00    +0.000 A 
ATOM     19  C   UNL     1      47.342   6.290  13.858  0.00  0.00    +0.000 A 
ATOM     20  C   UNL     1      46.518   5.445  13.106  0.00  0.00    +0.000 A 
ATOM     21  C   UNL     1      46.394   4.103  13.443  0.00  0.00    +0.000 A 
ATOM     22  N   UNL     1      45.718   3.149  12.684  0.00  0.00    +0.000 N 
ATOM     23  N   UNL     1      47.035   3.605  14.525  0.00  0.00    +0.000 NA
ATOM     24  C   UNL     1      47.820   4.442  15.252  0.00  0.00    +0.000 A 
ATOM     25  H   UNL     1      45.759   2.275  13.207  0.00  0.00    +0.000 HD
ENDBRANCH  14  22
ENDBRANCH   1  14
TORSDOF 3
ENDMDL
MODEL 4
REMARK VINA RESULT:    -6.458      3.763      7.527
REMARK INTER + INTRA:          -8.428
REMARK INTER:                  -7.562
REMARK INTRA:                  -0.865
REMARK UNBOUND:                -0.836
REMARK  Name = 
REMARK  3 active torsions:
REMARK  status: ('A' for Active; 'I' for Inactive)
REMARK    1  A    between atoms: N_6  and  C_7
REMARK    2  A    between atoms: C_7  and  C_8
REMARK    3  A    between atoms: C_12  and  C_13
REMARK                            x       y       z     vdW  Elec       q    Type
REMARK                         _______ _______ _______ _____ _____    ______ ____
ROOT
ATOM      1  C   UNL     1      47.254   8.039  12.393  0.00  0.00    +0.000 A 
ATOM      2  C   UNL     1      46.660   9.302  12.293  0.00  0.00    +0.000 A 
ATOM      3  C   UNL     1      45.353   9.439  11.828  0.00  0.00    +0.000 A 
ATOM      4  C   UNL     1      44.622   8.316  11.442  0.00  0.00    +0.000 A 
ATOM      5  C   UNL     1      45.144   7.024  11.590  0.00  0.00    +0.000 A 
ATOM      6  C   UNL     1      46.444   6.916  12.115  0.00  0.00    +0.000 A 
ENDROOT
BRANCH   5   7
ATOM      7  C   UNL     1      44.459   5.758  11.080  0.00  0.00    +0.000 C 
ATOM      8  C   UNL     1      42.985   5.572  11.484  0.00  0.00    +0.000 C 
ATOM      9  C   UNL     1      42.834   5.062  12.919  0.00  0.00    +0.000 C 
ATOM     10  N   UNL     1      43.583   3.830  13.148  0.00  0.00    +0.000 NA
ATOM     11  C   UNL     1      45.005   4.009  12.845  0.00  0.00    +0.000 C 
ATOM     12  C   UNL     1      45.224   4.459  11.403  0.00  0.00    +0.000 C 
ATOM     13  H   UNL     1      43.205   3.092  12.558  0.00  0.00    +0.000 HD
ENDBRANCH   5   7
BRANCH   1  14
ATOM     14  C   UNL     1      48.761   7.889  12.649  0.00  0.00    +0.000 C 
ATOM     15  C   UNL     1      49.647   7.830  11.398  0.00  0.00    +0.000 C 
ATOM     16  C   UNL     1      49.615   9.072  12.215  0.00  0.00    +0.000 C 
BRANCH  14  22
ATOM     17 CL   UNL     1      48.547   6.882  19.558  0.00  0.00    +0.000 Cl
ATOM     18  C   UNL     1      48.624   6.963  17.847  0.00  0.00    +0.000 A 
ATOM     19  C   UNL     1      48.645   8.181  17.198  0.00  0.00    +0.000 A 
ATOM     20  C   UNL     1      48.745   8.207  15.803  0.00  0.00    +0.000 A 
ATOM     21  C   UNL     1      48.842   7.021  15.084  0.00  0.00    +0.000 A 
ATOM     22  N   UNL     1      49.087   6.937  13.715  0.00  0.00    +0.000 N 
ATOM     23  N   UNL     1      48.800   5.828  15.719  0.00  0.00    +0.000 NA
ATOM     24  C   UNL     1      48.689   5.820  17.073  0.00  0.00    +0.000 A 
ATOM     25  H   UNL     1      49.055   5.947  13.471  0.00  0.00    +0.000 HD
ENDBRANCH  14  22
ENDBRANCH   1  14
TORSDOF 3
ENDMDL
MODEL 5
REMARK VINA RESULT:    -6.109      4.891      7.780
REMARK INTER + INTRA:          -8.016
REMARK INTER:                  -7.371
REMARK INTRA:                  -0.646
REMARK UNBOUND:                -0.836
REMARK  Name = 
REMARK  3 active torsions:
REMARK  status: ('A' for Active; 'I' for Inactive)
REMARK    1  A    between atoms: N_6  and  C_7
REMARK    2  A    between atoms: C_7  and  C_8
REMARK    3  A    between atoms: C_12  and  C_13
REMARK                            x       y       z     vdW  Elec       q    Type
REMARK                         _______ _______ _______ _____ _____    ______ ____
ROOT
ATOM      1  C   UNL     1      48.022   5.408  15.641  0.00  0.00    +0.000 A 
ATOM      2  C   UNL     1      48.894   6.471  15.382  0.00  0.00    +0.000 A 
ATOM      3  C   UNL     1      48.902   7.099  14.138  0.00  0.00    +0.000 A 
ATOM      4  C   UNL     1      48.045   6.666  13.126  0.00  0.00    +0.000 A 
ATOM      5  C   UNL     1      47.103   5.655  13.355  0.00  0.00    +0.000 A 
ATOM      6  C   UNL     1      47.083   5.079  14.638  0.00  0.00    +0.000 A 
ENDROOT
BRANCH   5   7
ATOM      7  C   UNL     1      46.219   5.042  12.271  0.00  0.00    +0.000 C 
ATOM      8  C   UNL     1      45.880   5.952  11.076  0.00  0.00    +0.000 C 
ATOM      9  C   UNL     1      44.769   6.953  11.403  0.00  0.00    +0.000 C 
ATOM     10  N   UNL     1      43.563   6.295  11.898  0.00  0.00    +0.000 NA
ATOM     11  C   UNL     1      43.851   5.485  13.086  0.00  0.00    +0.000 C 
ATOM     12  C   UNL     1      44.912   4.425  12.804  0.00  0.00    +0.000 C 
ATOM     13  H   UNL     1      43.183   5.696  11.169  0.00  0.00    +0.000 HD
ENDBRANCH   5   7
BRANCH   1  14
ATOM     14  C   UNL     1      48.178   4.541  16.899  0.00  0.00    +0.000 C 
ATOM     15  C   UNL     1      47.001   4.574  17.882  0.00  0.00    +0.000 C 
ATOM     16  C   UNL     1      47.197   3.382  17.015  0.00  0.00    +0.000 C 
BRANCH  14  22
ATOM     17 CL   UNL     1      54.065   0.910  17.878  0.00  0.00    +0.000 Cl
ATOM     18  C   UNL     1      52.708   1.939  17.679  0.00  0.00    +0.000 A 
ATOM     19  C   UNL     1      51.451   1.415  17.458  0.00  0.00    +0.000 A 
ATOM     20  C   UNL     1      50.362   2.285  17.337  0.00  0.00    +0.000 A 
ATOM     21  C   UNL     1      50.544   3.658  17.456  0.00  0.00    +0.000 A 
ATOM     22  N   UNL     1      49.517   4.598  17.494  0.00  0.00    +0.000 N 
ATOM     23  N   UNL     1      51.780   4.172  17.652  0.00  0.00    +0.000 NA
ATOM     24  C   UNL     1      52.828   3.314  17.753  0.00  0.00    +0.000 A 
ATOM     25  H   UNL     1      49.959   5.515  17.539  0.00  0.00    +0.000 HD
ENDBRANCH  14  22
ENDBRANCH   1  14
TORSDOF 3
ENDMDL
MODEL 6
REMARK VINA RESULT:    -6.106      3.627      6.105
REMARK INTER + INTRA:          -8.014
REMARK INTER:                  -6.949
REMARK INTRA:                  -1.065
REMARK UNBOUND:                -0.836
REMARK  Name = 
REMARK  3 active torsions:
REMARK  status: ('A' for Active; 'I' for Inactive)
REMARK    1  A    between atoms: N_6  and  C_7
REMARK    2  A    between atoms: C_7  and  C_8
REMARK    3  A    between atoms: C_12  and  C_13
REMARK                            x       y       z     vdW  Elec       q    Type
REMARK                         _______ _______ _______ _____ _____    ______ ____
ROOT
ATOM      1  C   UNL     1      48.765   8.240  14.579  0.00  0.00    +0.000 A 
ATOM      2  C   UNL     1      48.375   9.428  15.208  0.00  0.00    +0.000 A 
ATOM      3  C   UNL     1      48.274   9.499  16.596  0.00  0.00    +0.000 A 
ATOM      4  C   UNL     1      48.549   8.378  17.380  0.00  0.00    +0.000 A 
ATOM      5  C   UNL     1      49.014   7.188  16.807  0.00  0.00    +0.000 A 
ATOM      6  C   UNL     1      49.159   7.166  15.408  0.00  0.00    +0.000 A 
ENDROOT
BRANCH   5   7
ATOM      7  C   UNL     1      49.219   5.886  17.578  0.00  0.00    +0.000 C 
ATOM      8  C   UNL     1      48.824   4.591  16.845  0.00  0.00    +0.000 C 
ATOM      9  C   UNL     1      47.313   4.350  16.862  0.00  0.00    +0.000 C 
ATOM     10  N   UNL     1      46.769   4.352  18.217  0.00  0.00    +0.000 NA
ATOM     11  C   UNL     1      47.067   5.611  18.906  0.00  0.00    +0.000 C 
ATOM     12  C   UNL     1      48.569   5.877  18.975  0.00  0.00    +0.000 C 
ATOM     13  H   UNL     1      47.173   3.580  18.742  0.00  0.00    +0.000 HD
ENDBRANCH   5   7
BRANCH   1  14
ATOM     14  C   UNL     1      48.630   8.065  13.060  0.00  0.00    +0.000 C 
ATOM     15  C   UNL     1      49.463   9.024  12.201  0.00  0.00    +0.000 C 
ATOM     16  C   UNL     1      49.894   7.608  12.343  0.00  0.00    +0.000 C 
BRANCH  14  22
ATOM     17 CL   UNL     1      43.485   3.341  12.927  0.00  0.00    +0.000 Cl
ATOM     18  C   UNL     1      44.631   4.617  12.922  0.00  0.00    +0.000 A 
ATOM     19  C   UNL     1      45.981   4.353  13.031  0.00  0.00    +0.000 A 
ATOM     20  C   UNL     1      46.889   5.417  12.986  0.00  0.00    +0.000 A 
ATOM     21  C   UNL     1      46.435   6.719  12.813  0.00  0.00    +0.000 A 
ATOM     22  N   UNL     1      47.254   7.828  12.612  0.00  0.00    +0.000 N 
ATOM     23  N   UNL     1      45.111   6.979  12.727  0.00  0.00    +0.000 NA
ATOM     24  C   UNL     1      44.243   5.936  12.787  0.00  0.00    +0.000 A 
ATOM     25  H   UNL     1      46.641   8.641  12.567  0.00  0.00    +0.000 HD
ENDBRANCH  14  22
ENDBRANCH   1  14
TORSDOF 3
ENDMDL
MODEL 7
REMARK VINA RESULT:    -6.072      3.304      4.953
REMARK INTER + INTRA:          -7.973
REMARK INTER:                  -7.347
REMARK INTRA:                  -0.626
REMARK UNBOUND:                -0.836
REMARK  Name = 
REMARK  3 active torsions:
REMARK  status: ('A' for Active; 'I' for Inactive)
REMARK    1  A    between atoms: N_6  and  C_7
REMARK    2  A    between atoms: C_7  and  C_8
REMARK    3  A    between atoms: C_12  and  C_13
REMARK                            x       y       z     vdW  Elec       q    Type
REMARK                         _______ _______ _______ _____ _____    ______ ____
ROOT
ATOM      1  C   UNL     1      48.217   7.068  14.063  0.00  0.00    +0.000 A 
ATOM      2  C   UNL     1      49.455   7.658  13.786  0.00  0.00    +0.000 A 
ATOM      3  C   UNL     1      50.504   7.578  14.700  0.00  0.00    +0.000 A 
ATOM      4  C   UNL     1      50.328   6.916  15.916  0.00  0.00    +0.000 A 
ATOM      5  C   UNL     1      49.134   6.246  16.212  0.00  0.00    +0.000 A 
ATOM      6  C   UNL     1      48.115   6.299  15.244  0.00  0.00    +0.000 A 
ENDROOT
BRANCH   5   7
ATOM      7  C   UNL     1      48.820   5.606  17.562  0.00  0.00    +0.000 C 
ATOM      8  C   UNL     1      50.031   5.152  18.397  0.00  0.00    +0.000 C 
ATOM      9  C   UNL     1      50.606   3.819  17.911  0.00  0.00    +0.000 C 
ATOM     10  N   UNL     1      49.596   2.766  17.867  0.00  0.00    +0.000 NA
ATOM     11  C   UNL     1      48.469   3.148  17.012  0.00  0.00    +0.000 C 
ATOM     12  C   UNL     1      47.813   4.443  17.485  0.00  0.00    +0.000 C 
ATOM     13  H   UNL     1      49.255   2.587  18.809  0.00  0.00    +0.000 HD
ENDBRANCH   5   7
BRANCH   1  14
ATOM     14  C   UNL     1      46.984   7.366  13.199  0.00  0.00    +0.000 C 
ATOM     15  C   UNL     1      46.365   8.758  13.377  0.00  0.00    +0.000 C 
ATOM     16  C   UNL     1      47.167   8.465  12.160  0.00  0.00    +0.000 C 
BRANCH  14  22
ATOM     17 CL   UNL     1      44.311   2.584   8.865  0.00  0.00    +0.000 Cl
ATOM     18  C   UNL     1      44.906   3.664  10.055  0.00  0.00    +0.000 A 
ATOM     19  C   UNL     1      45.456   4.877   9.696  0.00  0.00    +0.000 A 
ATOM     20  C   UNL     1      45.898   5.748  10.698  0.00  0.00    +0.000 A 
ATOM     21  C   UNL     1      45.766   5.402  12.037  0.00  0.00    +0.000 A 
ATOM     22  N   UNL     1      46.040   6.247  13.110  0.00  0.00    +0.000 N 
ATOM     23  N   UNL     1      45.246   4.203  12.388  0.00  0.00    +0.000 NA
ATOM     24  C   UNL     1      44.835   3.364  11.402  0.00  0.00    +0.000 A 
ATOM     25  H   UNL     1      45.896   5.701  13.959  0.00  0.00    +0.000 HD
ENDBRANCH  14  22
ENDBRANCH   1  14
TORSDOF 3
ENDMDL
MODEL 8
REMARK VINA RESULT:    -5.473      4.152      7.847
REMARK INTER + INTRA:          -7.269
REMARK INTER:                  -7.203
REMARK INTRA:                  -0.066
REMARK UNBOUND:                -0.836
REMARK  Name = 
REMARK  3 active torsions:
REMARK  status: ('A' for Active; 'I' for Inactive)
REMARK    1  A    between atoms: N_6  and  C_7
REMARK    2  A    between atoms: C_7  and  C_8
REMARK    3  A    between atoms: C_12  and  C_13
REMARK                            x       y       z     vdW  Elec       q    Type
REMARK                         _______ _______ _______ _____ _____    ______ ____
ROOT
ATOM      1  C   UNL     1      47.621   7.230  13.380  0.00  0.00    +0.000 A 
ATOM      2  C   UNL     1      47.853   7.534  12.033  0.00  0.00    +0.000 A 
ATOM      3  C   UNL     1      47.121   6.909  11.026  0.00  0.00    +0.000 A 
ATOM      4  C   UNL     1      46.152   5.958  11.347  0.00  0.00    +0.000 A 
ATOM      5  C   UNL     1      45.830   5.670  12.679  0.00  0.00    +0.000 A 
ATOM      6  C   UNL     1      46.548   6.359  13.673  0.00  0.00    +0.000 A 
ENDROOT
BRANCH   5   7
ATOM      7  C   UNL     1      44.875   4.560  13.112  0.00  0.00    +0.000 C 
ATOM      8  C   UNL     1      44.962   3.242  12.322  0.00  0.00    +0.000 C 
ATOM      9  C   UNL     1      44.242   3.322  10.974  0.00  0.00    +0.000 C 
ATOM     10  N   UNL     1      42.849   3.737  11.116  0.00  0.00    +0.000 NA
ATOM     11  C   UNL     1      42.749   5.031  11.797  0.00  0.00    +0.000 C 
ATOM     12  C   UNL     1      43.398   4.996  13.178  0.00  0.00    +0.000 C 
ATOM     13  H   UNL     1      42.342   3.036  11.653  0.00  0.00    +0.000 HD
ENDBRANCH   5   7
BRANCH   1  14
ATOM     14  C   UNL     1      48.583   7.704  14.478  0.00  0.00    +0.000 C 
ATOM     15  C   UNL     1      49.480   8.894  14.111  0.00  0.00    +0.000 C 
ATOM     16  C   UNL     1      48.318   9.105  15.015  0.00  0.00    +0.000 C 
BRANCH  14  22
ATOM     17 CL   UNL     1      48.755   4.353  20.605  0.00  0.00    +0.000 Cl
ATOM     18  C   UNL     1      48.796   5.043  19.036  0.00  0.00    +0.000 A 
ATOM     19  C   UNL     1      48.377   6.341  18.825  0.00  0.00    +0.000 A 
ATOM     20  C   UNL     1      48.459   6.882  17.537  0.00  0.00    +0.000 A 
ATOM     21  C   UNL     1      48.974   6.127  16.490  0.00  0.00    +0.000 A 
ATOM     22  N   UNL     1      49.231   6.611  15.209  0.00  0.00    +0.000 N 
ATOM     23  N   UNL     1      49.364   4.848  16.694  0.00  0.00    +0.000 NA
ATOM     24  C   UNL     1      49.264   4.334  17.947  0.00  0.00    +0.000 A 
ATOM     25  H   UNL     1      49.556   5.819  14.656  0.00  0.00    +0.000 HD
ENDBRANCH  14  22
ENDBRANCH   1  14
TORSDOF 3
ENDMDL
MODEL 9
REMARK VINA RESULT:    -5.349      4.242      6.606
REMARK INTER + INTRA:          -7.124
REMARK INTER:                  -6.463
REMARK INTRA:                  -0.661
REMARK UNBOUND:                -0.836
REMARK  Name = 
REMARK  3 active torsions:
REMARK  status: ('A' for Active; 'I' for Inactive)
REMARK    1  A    between atoms: N_6  and  C_7
REMARK    2  A    between atoms: C_7  and  C_8
REMARK    3  A    between atoms: C_12  and  C_13
REMARK                            x       y       z     vdW  Elec       q    Type
REMARK                         _______ _______ _______ _____ _____    ______ ____
ROOT
ATOM      1  C   UNL     1      50.006   7.167  15.491  0.00  0.00    +0.000 A 
ATOM      2  C   UNL     1      51.256   7.664  15.106  0.00  0.00    +0.000 A 
ATOM      3  C   UNL     1      52.420   7.237  15.743  0.00  0.00    +0.000 A 
ATOM      4  C   UNL     1      52.352   6.314  16.787  0.00  0.00    +0.000 A 
ATOM      5  C   UNL     1      51.135   5.731  17.163  0.00  0.00    +0.000 A 
ATOM      6  C   UNL     1      49.986   6.141  16.463  0.00  0.00    +0.000 A 
ENDROOT
BRANCH   5   7
ATOM      7  C   UNL     1      50.960   4.811  18.369  0.00  0.00    +0.000 C 
ATOM      8  C   UNL     1      52.198   3.999  18.790  0.00  0.00    +0.000 C 
ATOM      9  C   UNL     1      52.421   2.773  17.901  0.00  0.00    +0.000 C 
ATOM     10  N   UNL     1      51.243   1.912  17.845  0.00  0.00    +0.000 NA
ATOM     11  C   UNL     1      50.069   2.648  17.369  0.00  0.00    +0.000 C 
ATOM     12  C   UNL     1      49.759   3.852  18.256  0.00  0.00    +0.000 C 
ATOM     13  H   UNL     1      51.053   1.541  18.774  0.00  0.00    +0.000 HD
ENDBRANCH   5   7
BRANCH   1  14
ATOM     14  C   UNL     1      48.706   7.811  14.989  0.00  0.00    +0.000 C 
ATOM     15  C   UNL     1      48.326   9.145  15.643  0.00  0.00    +0.000 C 
ATOM     16  C   UNL     1      48.877   9.138  14.262  0.00  0.00    +0.000 C 
BRANCH  14  22
ATOM     17 CL   UNL     1      44.864   4.579  10.132  0.00  0.00    +0.000 Cl
ATOM     18  C   UNL     1      45.750   5.257  11.434  0.00  0.00    +0.000 A 
ATOM     19  C   UNL     1      46.415   6.457  11.286  0.00  0.00    +0.000 A 
ATOM     20  C   UNL     1      47.098   6.997  12.381  0.00  0.00    +0.000 A 
ATOM     21  C   UNL     1      47.088   6.341  13.606  0.00  0.00    +0.000 A 
ATOM     22  N   UNL     1      47.611   6.856  14.791  0.00  0.00    +0.000 N 
ATOM     23  N   UNL     1      46.455   5.154  13.745  0.00  0.00    +0.000 NA
ATOM     24  C   UNL     1      45.809   4.637  12.667  0.00  0.00    +0.000 A 
ATOM     25  H   UNL     1      47.501   6.132  15.500  0.00  0.00    +0.000 HD
ENDBRANCH  14  22
ENDBRANCH   1  14
TORSDOF 3
ENDMDL
