MODEL 1
REMARK VINA RESULT:    -7.465      0.000      0.000
REMARK INTER + INTRA:         -10.726
REMARK INTER:                  -9.647
REMARK INTRA:                  -1.078
REMARK UNBOUND:                -1.078
REMARK  Name = 
REMARK  5 active torsions:
REMARK  status: ('A' for Active; 'I' for Inactive)
REMARK    1  A    between atoms: C_2  and  C_5
REMARK    2  A    between atoms: C_10  and  C_11
REMARK    3  A    between atoms: C_11  and  C_12
REMARK    4  A    between atoms: C_12  and  C_13
REMARK    5  A    between atoms: C_17  and  C_18
REMARK                            x       y       z     vdW  Elec       q    Type
REMARK                         _______ _______ _______ _____ _____    ______ ____
ROOT
ATOM      1  C   UNL     1      43.703   6.213  11.007  0.00  0.00    +0.000 C 
ENDROOT
BRANCH   1   2
ATOM      2  C   UNL     1      43.950   4.751  10.709  0.00  0.00    +0.000 A 
ATOM      3  C   UNL     1      43.260   3.751  11.403  0.00  0.00    +0.000 A 
ATOM      4  C   UNL     1      43.458   2.409  11.087  0.00  0.00    +0.000 A 
ATOM      5  C   UNL     1      44.325   2.052  10.053  0.00  0.00    +0.000 A 
ATOM      6  C   UNL     1      45.004   3.025   9.299  0.00  0.00    +0.000 A 
ATOM      7  C   UNL     1      44.814   4.374   9.665  0.00  0.00    +0.000 A 
BRANCH   6   8
ATOM      8  C   UNL     1      45.827   2.656   8.125  0.00  0.00    +0.000 A 
ATOM      9  C   UNL     1      46.069   3.557   7.079  0.00  0.00    +0.000 A 
ATOM     10  C   UNL     1      46.906   3.213   6.016  0.00  0.00    +0.000 A 
ATOM     11  C   UNL     1      47.490   1.962   6.023  0.00  0.00    +0.000 A 
ATOM     12  N   UNL     1      47.281   1.047   6.990  0.00  0.00    +0.000 NA
ATOM     13  C   UNL     1      46.456   1.415   8.005  0.00  0.00    +0.000 A 
ENDBRANCH   6   8
ENDBRANCH   1   2
BRANCH   1  14
ATOM     14  C   UNL     1      43.984   6.603  12.461  0.00  0.00    +0.000 C 
BRANCH  14  20
ATOM     15  C   UNL     1      47.755   7.085  12.640  0.00  0.00    +0.000 A 
ATOM     16  C   UNL     1      48.079   6.020  13.484  0.00  0.00    +0.000 A 
ATOM     17  C   UNL     1      47.050   5.222  13.945  0.00  0.00    +0.000 A 
ATOM     18 CL   UNL     1      47.362   3.894  14.982  0.00  0.00    +0.000 Cl
ATOM     19  N   UNL     1      45.751   5.399  13.632  0.00  0.00    +0.000 NA
ATOM     20  C   UNL     1      45.442   6.425  12.808  0.00  0.00    +0.000 A 
ATOM     21  C   UNL     1      46.409   7.289  12.302  0.00  0.00    +0.000 A 
BRANCH  15  23
ATOM     22  F   UNL     1      49.675   7.376  11.232  0.00  0.00    +0.000 F 
ATOM     23  C   UNL     1      48.821   7.996  12.092  0.00  0.00    +0.000 C 
ATOM     24  F   UNL     1      49.597   8.531  13.073  0.00  0.00    +0.000 F 
ATOM     25  F   UNL     1      48.299   9.049  11.407  0.00  0.00    +0.000 F 
ENDBRANCH  15  23
ENDBRANCH  14  20
ENDBRANCH   1  14
TORSDOF 5
ENDMDL
MODEL 2
REMARK VINA RESULT:    -7.159      2.853      3.402
REMARK INTER + INTRA:         -10.330
REMARK INTER:                  -9.411
REMARK INTRA:                  -0.919
REMARK UNBOUND:                -1.078
REMARK  Name = 
REMARK  5 active torsions:
REMARK  status: ('A' for Active; 'I' for Inactive)
REMARK    1  A    between atoms: C_2  and  C_5
REMARK    2  A    between atoms: C_10  and  C_11
REMARK    3  A    between atoms: C_11  and  C_12
REMARK    4  A    between atoms: C_12  and  C_13
REMARK    5  A    between atoms: C_17  and  C_18
REMARK                            x       y       z     vdW  Elec       q    Type
REMARK                         _______ _______ _______ _____ _____    ______ ____
ROOT
ATOM      1  C   UNL     1      45.109   6.508  12.455  0.00  0.00    +0.000 C 
ENDROOT
BRANCH   1   2
ATOM      2  C   UNL     1      44.698   5.182  11.852  0.00  0.00    +0.000 A 
ATOM      3  C   UNL     1      43.598   4.477  12.351  0.00  0.00    +0.000 A 
ATOM      4  C   UNL     1      43.198   3.283  11.757  0.00  0.00    +0.000 A 
ATOM      5  C   UNL     1      43.874   2.795  10.638  0.00  0.00    +0.000 A 
ATOM      6  C   UNL     1      44.956   3.494  10.075  0.00  0.00    +0.000 A 
ATOM      7  C   UNL     1      45.363   4.680  10.719  0.00  0.00    +0.000 A 
BRANCH   6   8
ATOM      8  C   UNL     1      45.595   3.043   8.817  0.00  0.00    +0.000 A 
ATOM      9  C   UNL     1      45.964   3.945   7.810  0.00  0.00    +0.000 A 
ATOM     10  C   UNL     1      46.629   3.508   6.664  0.00  0.00    +0.000 A 
ATOM     11  C   UNL     1      46.916   2.162   6.549  0.00  0.00    +0.000 A 
ATOM     12  N   UNL     1      46.571   1.245   7.474  0.00  0.00    +0.000 NA
ATOM     13  C   UNL     1      45.919   1.707   8.573  0.00  0.00    +0.000 A 
ENDBRANCH   6   8
ENDBRANCH   1   2
BRANCH   1  14
ATOM     14  C   UNL     1      46.603   6.813  12.313  0.00  0.00    +0.000 C 
BRANCH  14  20
ATOM     15  C   UNL     1      47.912   5.169  15.486  0.00  0.00    +0.000 A 
ATOM     16  C   UNL     1      48.718   6.206  15.962  0.00  0.00    +0.000 A 
ATOM     17  C   UNL     1      48.790   7.366  15.215  0.00  0.00    +0.000 A 
ATOM     18 CL   UNL     1      49.754   8.686  15.730  0.00  0.00    +0.000 Cl
ATOM     19  N   UNL     1      48.129   7.568  14.058  0.00  0.00    +0.000 NA
ATOM     20  C   UNL     1      47.342   6.566  13.605  0.00  0.00    +0.000 A 
ATOM     21  C   UNL     1      47.216   5.357  14.283  0.00  0.00    +0.000 A 
BRANCH  15  23
ATOM     22  F   UNL     1      47.773   2.774  15.446  0.00  0.00    +0.000 F 
ATOM     23  C   UNL     1      47.777   3.876  16.246  0.00  0.00    +0.000 C 
ATOM     24  F   UNL     1      46.626   3.819  16.969  0.00  0.00    +0.000 F 
ATOM     25  F   UNL     1      48.790   3.690  17.135  0.00  0.00    +0.000 F 
ENDBRANCH  15  23
ENDBRANCH  14  20
ENDBRANCH   1  14
TORSDOF 5
ENDMDL
MODEL 3
REMARK VINA RESULT:    -6.864      4.038      4.927
REMARK INTER + INTRA:          -9.949
REMARK INTER:                  -9.040
REMARK INTRA:                  -0.909
REMARK UNBOUND:                -1.078
REMARK  Name = 
REMARK  5 active torsions:
REMARK  status: ('A' for Active; 'I' for Inactive)
REMARK    1  A    between atoms: C_2  and  C_5
REMARK    2  A    between atoms: C_10  and  C_11
REMARK    3  A    between atoms: C_11  and  C_12
REMARK    4  A    between atoms: C_12  and  C_13
REMARK    5  A    between atoms: C_17  and  C_18
REMARK                            x       y       z     vdW  Elec       q    Type
REMARK                         _______ _______ _______ _____ _____    ______ ____
ROOT
ATOM      1  C   UNL     1      46.175   7.489  12.166  0.00  0.00    +0.000 C 
ENDROOT
BRANCH   1   2
ATOM      2  C   UNL     1      45.271   6.438  11.560  0.00  0.00    +0.000 A 
ATOM      3  C   UNL     1      43.892   6.458  11.792  0.00  0.00    +0.000 A 
ATOM      4  C   UNL     1      43.062   5.516  11.189  0.00  0.00    +0.000 A 
ATOM      5  C   UNL     1      43.598   4.562  10.322  0.00  0.00    +0.000 A 
ATOM      6  C   UNL     1      44.971   4.534  10.024  0.00  0.00    +0.000 A 
ATOM      7  C   UNL     1      45.793   5.475  10.678  0.00  0.00    +0.000 A 
BRANCH   6   8
ATOM      8  C   UNL     1      45.521   3.603   9.013  0.00  0.00    +0.000 A 
ATOM      9  C   UNL     1      46.162   4.064   7.854  0.00  0.00    +0.000 A 
ATOM     10  C   UNL     1      46.737   3.171   6.949  0.00  0.00    +0.000 A 
ATOM     11  C   UNL     1      46.659   1.820   7.225  0.00  0.00    +0.000 A 
ATOM     12  N   UNL     1      46.041   1.316   8.312  0.00  0.00    +0.000 NA
ATOM     13  C   UNL     1      45.488   2.216   9.167  0.00  0.00    +0.000 A 
ENDBRANCH   6   8
ENDBRANCH   1   2
BRANCH   1  14
ATOM     14  C   UNL     1      45.423   8.688  12.749  0.00  0.00    +0.000 C 
BRANCH  14  20
ATOM     15  C   UNL     1      44.142  10.982   9.995  0.00  0.00    +0.000 A 
ATOM     16  C   UNL     1      45.205  11.887   9.942  0.00  0.00    +0.000 A 
ATOM     17  C   UNL     1      46.263  11.696  10.811  0.00  0.00    +0.000 A 
ATOM     18 CL   UNL     1      47.606  12.760  10.809  0.00  0.00    +0.000 Cl
ATOM     19  N   UNL     1      46.340  10.692  11.706  0.00  0.00    +0.000 NA
ATOM     20  C   UNL     1      45.314   9.812  11.748  0.00  0.00    +0.000 A 
ATOM     21  C   UNL     1      44.202   9.929  10.920  0.00  0.00    +0.000 A 
BRANCH  15  23
ATOM     22  F   UNL     1      43.144  10.542   7.859  0.00  0.00    +0.000 F 
ATOM     23  C   UNL     1      42.957  11.119   9.078  0.00  0.00    +0.000 C 
ATOM     24  F   UNL     1      42.641  12.420   8.833  0.00  0.00    +0.000 F 
ATOM     25  F   UNL     1      41.834  10.550   9.593  0.00  0.00    +0.000 F 
ENDBRANCH  15  23
ENDBRANCH  14  20
ENDBRANCH   1  14
TORSDOF 5
ENDMDL
MODEL 4
REMARK VINA RESULT:    -6.835      3.219      7.172
REMARK INTER + INTRA:          -9.911
REMARK INTER:                  -8.940
REMARK INTRA:                  -0.971
REMARK UNBOUND:                -1.078
REMARK  Name = 
REMARK  5 active torsions:
REMARK  status: ('A' for Active; 'I' for Inactive)
REMARK    1  A    between atoms: C_2  and  C_5
REMARK    2  A    between atoms: C_10  and  C_11
REMARK    3  A    between atoms: C_11  and  C_12
REMARK    4  A    between atoms: C_12  and  C_13
REMARK    5  A    between atoms: C_17  and  C_18
REMARK                            x       y       z     vdW  Elec       q    Type
REMARK                         _______ _______ _______ _____ _____    ______ ____
ROOT
ATOM      1  C   UNL     1      46.363   7.185  11.116  0.00  0.00    +0.000 C 
ENDROOT
BRANCH   1   2
ATOM      2  C   UNL     1      47.401   7.172  12.216  0.00  0.00    +0.000 A 
ATOM      3  C   UNL     1      48.446   8.103  12.229  0.00  0.00    +0.000 A 
ATOM      4  C   UNL     1      49.367   8.114  13.273  0.00  0.00    +0.000 A 
ATOM      5  C   UNL     1      49.239   7.214  14.332  0.00  0.00    +0.000 A 
ATOM      6  C   UNL     1      48.180   6.292  14.383  0.00  0.00    +0.000 A 
ATOM      7  C   UNL     1      47.283   6.277  13.295  0.00  0.00    +0.000 A 
BRANCH   6   8
ATOM      8  C   UNL     1      47.972   5.421  15.563  0.00  0.00    +0.000 A 
ATOM      9  C   UNL     1      48.618   5.663  16.783  0.00  0.00    +0.000 A 
ATOM     10  C   UNL     1      48.354   4.873  17.903  0.00  0.00    +0.000 A 
ATOM     11  C   UNL     1      47.437   3.848  17.778  0.00  0.00    +0.000 A 
ATOM     12  N   UNL     1      46.798   3.556  16.628  0.00  0.00    +0.000 NA
ATOM     13  C   UNL     1      47.086   4.343  15.558  0.00  0.00    +0.000 A 
ENDBRANCH   6   8
ENDBRANCH   1   2
BRANCH   1  14
ATOM     14  C   UNL     1      45.058   6.478  11.492  0.00  0.00    +0.000 C 
BRANCH  14  20
ATOM     15  C   UNL     1      45.448   3.630   8.996  0.00  0.00    +0.000 A 
ATOM     16  C   UNL     1      44.667   2.663   9.633  0.00  0.00    +0.000 A 
ATOM     17  C   UNL     1      44.074   2.998  10.836  0.00  0.00    +0.000 A 
ATOM     18 CL   UNL     1      43.099   1.869  11.680  0.00  0.00    +0.000 Cl
ATOM     19  N   UNL     1      44.194   4.199  11.435  0.00  0.00    +0.000 NA
ATOM     20  C   UNL     1      44.942   5.136  10.811  0.00  0.00    +0.000 A 
ATOM     21  C   UNL     1      45.587   4.887   9.603  0.00  0.00    +0.000 A 
BRANCH  15  23
ATOM     22  F   UNL     1      46.834   2.183   7.678  0.00  0.00    +0.000 F 
ATOM     23  C   UNL     1      46.123   3.344   7.682  0.00  0.00    +0.000 C 
ATOM     24  F   UNL     1      47.000   4.322   7.327  0.00  0.00    +0.000 F 
ATOM     25  F   UNL     1      45.236   3.244   6.655  0.00  0.00    +0.000 F 
ENDBRANCH  15  23
ENDBRANCH  14  20
ENDBRANCH   1  14
TORSDOF 5
ENDMDL
MODEL 5
REMARK VINA RESULT:    -6.777      3.760      5.465
REMARK INTER + INTRA:          -9.836
REMARK INTER:                  -8.873
REMARK INTRA:                  -0.963
REMARK UNBOUND:                -1.078
REMARK  Name = 
REMARK  5 active torsions:
REMARK  status: ('A' for Active; 'I' for Inactive)
REMARK    1  A    between atoms: C_2  and  C_5
REMARK    2  A    between atoms: C_10  and  C_11
REMARK    3  A    between atoms: C_11  and  C_12
REMARK    4  A    between atoms: C_12  and  C_13
REMARK    5  A    between atoms: C_17  and  C_18
REMARK                            x       y       z     vdW  Elec       q    Type
REMARK                         _______ _______ _______ _____ _____    ______ ____
ROOT
ATOM      1  C   UNL     1      48.827   7.092  13.818  0.00  0.00    +0.000 C 
ENDROOT
BRANCH   1   2
ATOM      2  C   UNL     1      47.471   7.202  13.156  0.00  0.00    +0.000 A 
ATOM      3  C   UNL     1      46.727   8.383  13.236  0.00  0.00    +0.000 A 
ATOM      4  C   UNL     1      45.503   8.491  12.581  0.00  0.00    +0.000 A 
ATOM      5  C   UNL     1      45.022   7.428  11.814  0.00  0.00    +0.000 A 
ATOM      6  C   UNL     1      45.758   6.239  11.669  0.00  0.00    +0.000 A 
ATOM      7  C   UNL     1      46.976   6.144  12.373  0.00  0.00    +0.000 A 
BRANCH   6   8
ATOM      8  C   UNL     1      45.309   5.161  10.758  0.00  0.00    +0.000 A 
ATOM      9  C   UNL     1      45.618   5.172   9.391  0.00  0.00    +0.000 A 
ATOM     10  C   UNL     1      45.247   4.111   8.564  0.00  0.00    +0.000 A 
ATOM     11  C   UNL     1      44.568   3.048   9.128  0.00  0.00    +0.000 A 
ATOM     12  N   UNL     1      44.228   2.989  10.431  0.00  0.00    +0.000 NA
ATOM     13  C   UNL     1      44.601   4.044  11.204  0.00  0.00    +0.000 A 
ENDBRANCH   6   8
ENDBRANCH   1   2
BRANCH   1  14
ATOM     14  C   UNL     1      48.903   7.777  15.186  0.00  0.00    +0.000 C 
BRANCH  14  20
ATOM     15  C   UNL     1      48.174   4.579  17.118  0.00  0.00    +0.000 A 
ATOM     16  C   UNL     1      48.048   5.115  18.402  0.00  0.00    +0.000 A 
ATOM     17  C   UNL     1      48.218   6.478  18.556  0.00  0.00    +0.000 A 
ATOM     18 CL   UNL     1      48.077   7.214  20.097  0.00  0.00    +0.000 Cl
ATOM     19  N   UNL     1      48.493   7.328  17.547  0.00  0.00    +0.000 NA
ATOM     20  C   UNL     1      48.604   6.808  16.305  0.00  0.00    +0.000 A 
ATOM     21  C   UNL     1      48.461   5.447  16.054  0.00  0.00    +0.000 A 
BRANCH  15  23
ATOM     22  F   UNL     1      46.972   2.554  17.573  0.00  0.00    +0.000 F 
ATOM     23  C   UNL     1      47.998   3.105  16.869  0.00  0.00    +0.000 C 
ATOM     24  F   UNL     1      49.107   2.389  17.200  0.00  0.00    +0.000 F 
ATOM     25  F   UNL     1      47.747   2.828  15.561  0.00  0.00    +0.000 F 
ENDBRANCH  15  23
ENDBRANCH  14  20
ENDBRANCH   1  14
TORSDOF 5
ENDMDL
MODEL 6
REMARK VINA RESULT:    -6.692      3.903      5.594
REMARK INTER + INTRA:          -9.726
REMARK INTER:                  -8.879
REMARK INTRA:                  -0.847
REMARK UNBOUND:                -1.078
REMARK  Name = 
REMARK  5 active torsions:
REMARK  status: ('A' for Active; 'I' for Inactive)
REMARK    1  A    between atoms: C_2  and  C_5
REMARK    2  A    between atoms: C_10  and  C_11
REMARK    3  A    between atoms: C_11  and  C_12
REMARK    4  A    between atoms: C_12  and  C_13
REMARK    5  A    between atoms: C_17  and  C_18
REMARK                            x       y       z     vdW  Elec       q    Type
REMARK                         _______ _______ _______ _____ _____    ______ ____
ROOT
ATOM      1  C   UNL     1      48.705   7.270  13.682  0.00  0.00    +0.000 C 
ENDROOT
BRANCH   1   2
ATOM      2  C   UNL     1      47.337   7.312  13.039  0.00  0.00    +0.000 A 
ATOM      3  C   UNL     1      46.556   8.472  13.088  0.00  0.00    +0.000 A 
ATOM      4  C   UNL     1      45.319   8.516  12.450  0.00  0.00    +0.000 A 
ATOM      5  C   UNL     1      44.861   7.412  11.729  0.00  0.00    +0.000 A 
ATOM      6  C   UNL     1      45.633   6.243  11.614  0.00  0.00    +0.000 A 
ATOM      7  C   UNL     1      46.864   6.212  12.301  0.00  0.00    +0.000 A 
BRANCH   6   8
ATOM      8  C   UNL     1      45.206   5.119  10.749  0.00  0.00    +0.000 A 
ATOM      9  C   UNL     1      45.545   5.061   9.390  0.00  0.00    +0.000 A 
ATOM     10  C   UNL     1      45.194   3.959   8.610  0.00  0.00    +0.000 A 
ATOM     11  C   UNL     1      44.505   2.924   9.213  0.00  0.00    +0.000 A 
ATOM     12  N   UNL     1      44.136   2.930  10.510  0.00  0.00    +0.000 NA
ATOM     13  C   UNL     1      44.490   4.024  11.236  0.00  0.00    +0.000 A 
ENDBRANCH   6   8
ENDBRANCH   1   2
BRANCH   1  14
ATOM     14  C   UNL     1      48.692   7.587  15.180  0.00  0.00    +0.000 C 
BRANCH  14  20
ATOM     15  C   UNL     1      48.890   4.308  17.103  0.00  0.00    +0.000 A 
ATOM     16  C   UNL     1      50.231   4.354  17.490  0.00  0.00    +0.000 A 
ATOM     17  C   UNL     1      50.984   5.442  17.093  0.00  0.00    +0.000 A 
ATOM     18 CL   UNL     1      52.637   5.575  17.527  0.00  0.00    +0.000 Cl
ATOM     19  N   UNL     1      50.510   6.468  16.358  0.00  0.00    +0.000 NA
ATOM     20  C   UNL     1      49.209   6.425  15.994  0.00  0.00    +0.000 A 
ATOM     21  C   UNL     1      48.376   5.365  16.338  0.00  0.00    +0.000 A 
BRANCH  15  23
ATOM     22  F   UNL     1      46.676   3.414  17.336  0.00  0.00    +0.000 F 
ATOM     23  C   UNL     1      48.003   3.159  17.502  0.00  0.00    +0.000 C 
ATOM     24  F   UNL     1      48.159   2.815  18.809  0.00  0.00    +0.000 F 
ATOM     25  F   UNL     1      48.261   2.033  16.783  0.00  0.00    +0.000 F 
ENDBRANCH  15  23
ENDBRANCH  14  20
ENDBRANCH   1  14
TORSDOF 5
ENDMDL
MODEL 7
REMARK VINA RESULT:    -6.559      3.812      7.300
REMARK INTER + INTRA:          -9.554
REMARK INTER:                  -8.580
REMARK INTRA:                  -0.974
REMARK UNBOUND:                -1.078
REMARK  Name = 
REMARK  5 active torsions:
REMARK  status: ('A' for Active; 'I' for Inactive)
REMARK    1  A    between atoms: C_2  and  C_5
REMARK    2  A    between atoms: C_10  and  C_11
REMARK    3  A    between atoms: C_11  and  C_12
REMARK    4  A    between atoms: C_12  and  C_13
REMARK    5  A    between atoms: C_17  and  C_18
REMARK                            x       y       z     vdW  Elec       q    Type
REMARK                         _______ _______ _______ _____ _____    ______ ____
ROOT
ATOM      1  C   UNL     1      46.564   5.399  14.180  0.00  0.00    +0.000 C 
ENDROOT
BRANCH   1   2
ATOM      2  C   UNL     1      47.209   6.521  13.395  0.00  0.00    +0.000 A 
ATOM      3  C   UNL     1      48.452   6.344  12.779  0.00  0.00    +0.000 A 
ATOM      4  C   UNL     1      49.014   7.365  12.018  0.00  0.00    +0.000 A 
ATOM      5  C   UNL     1      48.325   8.566  11.838  0.00  0.00    +0.000 A 
ATOM      6  C   UNL     1      47.053   8.770  12.399  0.00  0.00    +0.000 A 
ATOM      7  C   UNL     1      46.525   7.734  13.197  0.00  0.00    +0.000 A 
BRANCH   6   8
ATOM      8  C   UNL     1      46.268   9.992  12.108  0.00  0.00    +0.000 A 
ATOM      9  C   UNL     1      46.887  11.212  11.801  0.00  0.00    +0.000 A 
ATOM     10  C   UNL     1      46.130  12.333  11.459  0.00  0.00    +0.000 A 
ATOM     11  C   UNL     1      44.754  12.210  11.431  0.00  0.00    +0.000 A 
ATOM     12  N   UNL     1      44.103  11.070  11.734  0.00  0.00    +0.000 NA
ATOM     13  C   UNL     1      44.873  10.001  12.068  0.00  0.00    +0.000 A 
ENDBRANCH   6   8
ENDBRANCH   1   2
BRANCH   1  14
ATOM     14  C   UNL     1      46.552   4.058  13.441  0.00  0.00    +0.000 C 
BRANCH  14  20
ATOM     15  C   UNL     1      44.734   3.289  10.187  0.00  0.00    +0.000 A 
ATOM     16  C   UNL     1      43.605   4.091  10.364  0.00  0.00    +0.000 A 
ATOM     17  C   UNL     1      43.504   4.820  11.534  0.00  0.00    +0.000 A 
ATOM     18 CL   UNL     1      42.152   5.830  11.828  0.00  0.00    +0.000 Cl
ATOM     19  N   UNL     1      44.428   4.814  12.516  0.00  0.00    +0.000 NA
ATOM     20  C   UNL     1      45.525   4.045  12.336  0.00  0.00    +0.000 A 
ATOM     21  C   UNL     1      45.708   3.267  11.197  0.00  0.00    +0.000 A 
BRANCH  15  23
ATOM     22  F   UNL     1      44.434   3.071   7.817  0.00  0.00    +0.000 F 
ATOM     23  C   UNL     1      44.918   2.469   8.938  0.00  0.00    +0.000 C 
ATOM     24  F   UNL     1      44.295   1.262   9.016  0.00  0.00    +0.000 F 
ATOM     25  F   UNL     1      46.228   2.201   8.684  0.00  0.00    +0.000 F 
ENDBRANCH  15  23
ENDBRANCH  14  20
ENDBRANCH   1  14
TORSDOF 5
ENDMDL
MODEL 8
REMARK VINA RESULT:    -6.541      3.673      7.740
REMARK INTER + INTRA:          -9.531
REMARK INTER:                  -8.674
REMARK INTRA:                  -0.857
REMARK UNBOUND:                -1.078
REMARK  Name = 
REMARK  5 active torsions:
REMARK  status: ('A' for Active; 'I' for Inactive)
REMARK    1  A    between atoms: C_2  and  C_5
REMARK    2  A    between atoms: C_10  and  C_11
REMARK    3  A    between atoms: C_11  and  C_12
REMARK    4  A    between atoms: C_12  and  C_13
REMARK    5  A    between atoms: C_17  and  C_18
REMARK                            x       y       z     vdW  Elec       q    Type
REMARK                         _______ _______ _______ _____ _____    ______ ____
ROOT
ATOM      1  C   UNL     1      45.744   6.660  12.690  0.00  0.00    +0.000 C 
ENDROOT
BRANCH   1   2
ATOM      2  C   UNL     1      47.225   6.961  12.766  0.00  0.00    +0.000 A 
ATOM      3  C   UNL     1      47.916   7.452  11.653  0.00  0.00    +0.000 A 
ATOM      4  C   UNL     1      49.267   7.774  11.748  0.00  0.00    +0.000 A 
ATOM      5  C   UNL     1      49.937   7.638  12.965  0.00  0.00    +0.000 A 
ATOM      6  C   UNL     1      49.271   7.193  14.121  0.00  0.00    +0.000 A 
ATOM      7  C   UNL     1      47.913   6.838  13.987  0.00  0.00    +0.000 A 
BRANCH   6   8
ATOM      8  C   UNL     1      49.948   7.166  15.438  0.00  0.00    +0.000 A 
ATOM      9  C   UNL     1      49.584   6.251  16.436  0.00  0.00    +0.000 A 
ATOM     10  C   UNL     1      50.281   6.195  17.644  0.00  0.00    +0.000 A 
ATOM     11  C   UNL     1      51.340   7.063  17.829  0.00  0.00    +0.000 A 
ATOM     12  N   UNL     1      51.724   7.975  16.914  0.00  0.00    +0.000 NA
ATOM     13  C   UNL     1      51.018   8.004  15.753  0.00  0.00    +0.000 A 
ENDBRANCH   6   8
ENDBRANCH   1   2
BRANCH   1  14
ATOM     14  C   UNL     1      45.174   6.726  11.270  0.00  0.00    +0.000 C 
BRANCH  14  20
ATOM     15  C   UNL     1      45.490   3.735   8.936  0.00  0.00    +0.000 A 
ATOM     16  C   UNL     1      44.705   2.818   9.638  0.00  0.00    +0.000 A 
ATOM     17  C   UNL     1      44.133   3.229  10.827  0.00  0.00    +0.000 A 
ATOM     18 CL   UNL     1      43.155   2.165  11.747  0.00  0.00    +0.000 Cl
ATOM     19  N   UNL     1      44.278   4.460  11.355  0.00  0.00    +0.000 NA
ATOM     20  C   UNL     1      45.030   5.349  10.668  0.00  0.00    +0.000 A 
ATOM     21  C   UNL     1      45.655   5.023   9.469  0.00  0.00    +0.000 A 
BRANCH  15  23
ATOM     22  F   UNL     1      47.013   4.306   7.173  0.00  0.00    +0.000 F 
ATOM     23  C   UNL     1      46.142   3.365   7.631  0.00  0.00    +0.000 C 
ATOM     24  F   UNL     1      45.234   3.177   6.635  0.00  0.00    +0.000 F 
ATOM     25  F   UNL     1      46.851   2.208   7.717  0.00  0.00    +0.000 F 
ENDBRANCH  15  23
ENDBRANCH  14  20
ENDBRANCH   1  14
TORSDOF 5
ENDMDL
MODEL 9
REMARK VINA RESULT:    -6.381      3.913      6.359
REMARK INTER + INTRA:          -9.324
REMARK INTER:                  -8.138
REMARK INTRA:                  -1.186
REMARK UNBOUND:                -1.078
REMARK  Name = 
REMARK  5 active torsions:
REMARK  status: ('A' for Active; 'I' for Inactive)
REMARK    1  A    between atoms: C_2  and  C_5
REMARK    2  A    between atoms: C_10  and  C_11
REMARK    3  A    between atoms: C_11  and  C_12
REMARK    4  A    between atoms: C_12  and  C_13
REMARK    5  A    between atoms: C_17  and  C_18
REMARK                            x       y       z     vdW  Elec       q    Type
REMARK                         _______ _______ _______ _____ _____    ______ ____
ROOT
ATOM      1  C   UNL     1      48.476   8.750  15.475  0.00  0.00    +0.000 C 
ENDROOT
BRANCH   1   2
ATOM      2  C   UNL     1      48.289   8.277  14.051  0.00  0.00    +0.000 A 
ATOM      3  C   UNL     1      49.140   8.718  13.031  0.00  0.00    +0.000 A 
ATOM      4  C   UNL     1      48.991   8.238  11.732  0.00  0.00    +0.000 A 
ATOM      5  C   UNL     1      48.010   7.288  11.443  0.00  0.00    +0.000 A 
ATOM      6  C   UNL     1      47.163   6.783  12.446  0.00  0.00    +0.000 A 
ATOM      7  C   UNL     1      47.311   7.315  13.744  0.00  0.00    +0.000 A 
BRANCH   6   8
ATOM      8  C   UNL     1      46.206   5.688  12.167  0.00  0.00    +0.000 A 
ATOM      9  C   UNL     1      45.538   5.585  10.939  0.00  0.00    +0.000 A 
ATOM     10  C   UNL     1      44.695   4.506  10.671  0.00  0.00    +0.000 A 
ATOM     11  C   UNL     1      44.537   3.541  11.646  0.00  0.00    +0.000 A 
ATOM     12  N   UNL     1      45.138   3.595  12.852  0.00  0.00    +0.000 NA
ATOM     13  C   UNL     1      45.946   4.664  13.079  0.00  0.00    +0.000 A 
ENDBRANCH   6   8
ENDBRANCH   1   2
BRANCH   1  14
ATOM     14  C   UNL     1      49.514   7.946  16.262  0.00  0.00    +0.000 C 
BRANCH  14  20
ATOM     15  C   UNL     1      48.062   4.638  17.463  0.00  0.00    +0.000 A 
ATOM     16  C   UNL     1      47.649   5.024  18.740  0.00  0.00    +0.000 A 
ATOM     17  C   UNL     1      47.878   6.330  19.129  0.00  0.00    +0.000 A 
ATOM     18 CL   UNL     1      47.399   6.884  20.679  0.00  0.00    +0.000 Cl
ATOM     19  N   UNL     1      48.471   7.261  18.356  0.00  0.00    +0.000 NA
ATOM     20  C   UNL     1      48.860   6.887  17.117  0.00  0.00    +0.000 A 
ATOM     21  C   UNL     1      48.683   5.592  16.642  0.00  0.00    +0.000 A 
BRANCH  15  23
ATOM     22  F   UNL     1      46.838   2.581  17.608  0.00  0.00    +0.000 F 
ATOM     23  C   UNL     1      47.844   3.235  16.965  0.00  0.00    +0.000 C 
ATOM     24  F   UNL     1      48.951   2.457  17.109  0.00  0.00    +0.000 F 
ATOM     25  F   UNL     1      47.528   3.199  15.642  0.00  0.00    +0.000 F 
ENDBRANCH  15  23
ENDBRANCH  14  20
ENDBRANCH   1  14
TORSDOF 5
ENDMDL
