MODEL 1
REMARK VINA RESULT:    -8.537      0.000      0.000
REMARK INTER + INTRA:         -12.625
REMARK INTER:                 -11.531
REMARK INTRA:                  -1.094
REMARK UNBOUND:                -1.094
REMARK  Name = 
REMARK  7 active torsions:
REMARK  status: ('A' for Active; 'I' for Inactive)
REMARK    1  A    between atoms: C_1  and  N_2
REMARK    2  A    between atoms: C_8  and  C_9
REMARK    3  A    between atoms: N_11  and  C_12
REMARK    4  A    between atoms: C_12  and  C_13
REMARK    5  A    between atoms: C_16  and  C_17
REMARK    6  A    between atoms: C_17  and  N_18
REMARK    7  A    between atoms: C_19  and  C_21
REMARK                            x       y       z     vdW  Elec       q    Type
REMARK                         _______ _______ _______ _____ _____    ______ ____
ROOT
ATOM      1  C   UNL     1      46.654   8.047  13.000  0.00  0.00    +0.000 A 
ATOM      2  C   UNL     1      45.469   8.508  12.413  0.00  0.00    +0.000 A 
ATOM      3  C   UNL     1      44.696   7.661  11.613  0.00  0.00    +0.000 A 
ATOM      4  C   UNL     1      45.083   6.327  11.405  0.00  0.00    +0.000 A 
ATOM      5  C   UNL     1      46.270   5.871  11.991  0.00  0.00    +0.000 A 
ATOM      6  C   UNL     1      47.041   6.719  12.790  0.00  0.00    +0.000 A 
ENDROOT
BRANCH   1   7
ATOM      7  C   UNL     1      47.486   8.940  13.879  0.00  0.00    +0.000 C 
BRANCH   7  10
ATOM      8  C   UNL     1      48.981   8.316  15.749  0.00  0.00    +0.000 C 
ATOM      9  O   UNL     1      49.994   8.717  15.187  0.00  0.00    +0.000 OA
ATOM     10  N   UNL     1      47.745   8.329  15.157  0.00  0.00    +0.000 N 
ATOM     11  H   UNL     1      46.932   8.085  15.707  0.00  0.00    +0.000 HD
BRANCH   8  19
ATOM     12  C   UNL     1      48.139   2.790  16.833  0.00  0.00    +0.000 C 
ATOM     13  N   UNL     1      48.420   4.025  17.536  0.00  0.00    +0.000 N 
ATOM     14  C   UNL     1      48.584   4.040  18.905  0.00  0.00    +0.000 A 
ATOM     15  N   UNL     1      48.850   5.086  19.617  0.00  0.00    +0.000 NA
ATOM     16  C   UNL     1      48.963   6.237  18.907  0.00  0.00    +0.000 A 
ATOM     17  S   UNL     1      49.274   7.721  19.681  0.00  0.00    +0.000 S 
ATOM     18  C   UNL     1      49.236   8.569  18.200  0.00  0.00    +0.000 A 
ATOM     19  C   UNL     1      49.025   7.749  17.103  0.00  0.00    +0.000 A 
ATOM     20  C   UNL     1      48.847   6.383  17.539  0.00  0.00    +0.000 A 
ATOM     21  C   UNL     1      48.557   5.180  16.774  0.00  0.00    +0.000 A 
ATOM     22  O   UNL     1      48.474   5.178  15.549  0.00  0.00    +0.000 OA
ENDBRANCH   8  19
ENDBRANCH   7  10
ENDBRANCH   1   7
BRANCH   4  23
ATOM     23  C   UNL     1      44.250   5.404  10.560  0.00  0.00    +0.000 C 
BRANCH  23  24
ATOM     24  N   UNL     1      45.039   4.754   9.540  0.00  0.00    +0.000 N 
ATOM     25  C   UNL     1      44.899   3.402   9.314  0.00  0.00    +0.000 C 
ATOM     26  O   UNL     1      44.132   2.689   9.952  0.00  0.00    +0.000 OA
ATOM     27  H   UNL     1      45.511   5.334   8.861  0.00  0.00    +0.000 HD
BRANCH  25  28
ATOM     28  C   UNL     1      45.714   2.824   8.210  0.00  0.00    +0.000 A 
ATOM     29  C   UNL     1      46.075   3.582   7.088  0.00  0.00    +0.000 A 
ATOM     30  C   UNL     1      46.850   3.005   6.078  0.00  0.00    +0.000 A 
ATOM     31  C   UNL     1      47.270   1.679   6.187  0.00  0.00    +0.000 A 
ATOM     32  C   UNL     1      46.927   0.926   7.310  0.00  0.00    +0.000 A 
ATOM     33  C   UNL     1      46.155   1.500   8.324  0.00  0.00    +0.000 A 
ENDBRANCH  25  28
ENDBRANCH  23  24
ENDBRANCH   4  23
TORSDOF 6
ENDMDL
MODEL 2
REMARK VINA RESULT:    -7.851      2.209      3.907
REMARK INTER + INTRA:         -11.699
REMARK INTER:                 -10.495
REMARK INTRA:                  -1.204
REMARK UNBOUND:                -1.094
REMARK  Name = 
REMARK  7 active torsions:
REMARK  status: ('A' for Active; 'I' for Inactive)
REMARK    1  A    between atoms: C_1  and  N_2
REMARK    2  A    between atoms: C_8  and  C_9
REMARK    3  A    between atoms: N_11  and  C_12
REMARK    4  A    between atoms: C_12  and  C_13
REMARK    5  A    between atoms: C_16  and  C_17
REMARK    6  A    between atoms: C_17  and  N_18
REMARK    7  A    between atoms: C_19  and  C_21
REMARK                            x       y       z     vdW  Elec       q    Type
REMARK                         _______ _______ _______ _____ _____    ______ ____
ROOT
ATOM      1  C   UNL     1      46.286   4.612  13.940  0.00  0.00    +0.000 A 
ATOM      2  C   UNL     1      46.003   3.401  13.296  0.00  0.00    +0.000 A 
ATOM      3  C   UNL     1      45.239   3.380  12.125  0.00  0.00    +0.000 A 
ATOM      4  C   UNL     1      44.764   4.575  11.562  0.00  0.00    +0.000 A 
ATOM      5  C   UNL     1      45.046   5.784  12.210  0.00  0.00    +0.000 A 
ATOM      6  C   UNL     1      45.810   5.803  13.380  0.00  0.00    +0.000 A 
ENDROOT
BRANCH   1   7
ATOM      7  C   UNL     1      47.123   4.653  15.189  0.00  0.00    +0.000 C 
BRANCH   7  10
ATOM      8  C   UNL     1      48.906   6.123  16.072  0.00  0.00    +0.000 C 
ATOM      9  O   UNL     1      49.442   5.230  16.718  0.00  0.00    +0.000 OA
ATOM     10  N   UNL     1      47.749   5.938  15.362  0.00  0.00    +0.000 N 
ATOM     11  H   UNL     1      47.413   6.681  14.764  0.00  0.00    +0.000 HD
BRANCH   8  19
ATOM     12  C   UNL     1      50.616   8.676  11.278  0.00  0.00    +0.000 C 
ATOM     13  N   UNL     1      50.524   8.939  12.699  0.00  0.00    +0.000 N 
ATOM     14  C   UNL     1      50.914  10.154  13.221  0.00  0.00    +0.000 A 
ATOM     15  N   UNL     1      50.856  10.487  14.470  0.00  0.00    +0.000 NA
ATOM     16  C   UNL     1      50.366   9.522  15.288  0.00  0.00    +0.000 A 
ATOM     17  S   UNL     1      50.250   9.769  16.969  0.00  0.00    +0.000 S 
ATOM     18  C   UNL     1      49.620   8.202  17.215  0.00  0.00    +0.000 A 
ATOM     19  C   UNL     1      49.454   7.485  16.040  0.00  0.00    +0.000 A 
ATOM     20  C   UNL     1      49.917   8.270  14.918  0.00  0.00    +0.000 A 
ATOM     21  C   UNL     1      49.990   7.939  13.504  0.00  0.00    +0.000 A 
ATOM     22  O   UNL     1      49.581   6.873  13.051  0.00  0.00    +0.000 OA
ENDBRANCH   8  19
ENDBRANCH   7  10
ENDBRANCH   1   7
BRANCH   4  23
ATOM     23  C   UNL     1      43.955   4.564  10.294  0.00  0.00    +0.000 C 
BRANCH  23  24
ATOM     24  N   UNL     1      44.559   3.731   9.282  0.00  0.00    +0.000 N 
ATOM     25  C   UNL     1      45.635   4.195   8.555  0.00  0.00    +0.000 C 
ATOM     26  O   UNL     1      46.120   5.310   8.710  0.00  0.00    +0.000 OA
ATOM     27  H   UNL     1      44.332   2.746   9.276  0.00  0.00    +0.000 HD
BRANCH  25  28
ATOM     28  C   UNL     1      46.227   3.251   7.567  0.00  0.00    +0.000 A 
ATOM     29  C   UNL     1      46.570   3.660   6.272  0.00  0.00    +0.000 A 
ATOM     30  C   UNL     1      47.133   2.746   5.378  0.00  0.00    +0.000 A 
ATOM     31  C   UNL     1      47.360   1.427   5.774  0.00  0.00    +0.000 A 
ATOM     32  C   UNL     1      47.036   1.020   7.068  0.00  0.00    +0.000 A 
ATOM     33  C   UNL     1      46.476   1.932   7.966  0.00  0.00    +0.000 A 
ENDBRANCH  25  28
ENDBRANCH  23  24
ENDBRANCH   4  23
TORSDOF 6
ENDMDL
MODEL 3
REMARK VINA RESULT:    -7.757      3.013      5.198
REMARK INTER + INTRA:         -11.572
REMARK INTER:                 -10.843
REMARK INTRA:                  -0.729
REMARK UNBOUND:                -1.094
REMARK  Name = 
REMARK  7 active torsions:
REMARK  status: ('A' for Active; 'I' for Inactive)
REMARK    1  A    between atoms: C_1  and  N_2
REMARK    2  A    between atoms: C_8  and  C_9
REMARK    3  A    between atoms: N_11  and  C_12
REMARK    4  A    between atoms: C_12  and  C_13
REMARK    5  A    between atoms: C_16  and  C_17
REMARK    6  A    between atoms: C_17  and  N_18
REMARK    7  A    between atoms: C_19  and  C_21
REMARK                            x       y       z     vdW  Elec       q    Type
REMARK                         _______ _______ _______ _____ _____    ______ ____
ROOT
ATOM      1  C   UNL     1      46.536   5.153  13.945  0.00  0.00    +0.000 A 
ATOM      2  C   UNL     1      45.422   5.769  13.362  0.00  0.00    +0.000 A 
ATOM      3  C   UNL     1      44.599   5.061  12.480  0.00  0.00    +0.000 A 
ATOM      4  C   UNL     1      44.863   3.714  12.185  0.00  0.00    +0.000 A 
ATOM      5  C   UNL     1      45.979   3.102  12.767  0.00  0.00    +0.000 A 
ATOM      6  C   UNL     1      46.800   3.811  13.648  0.00  0.00    +0.000 A 
ENDROOT
BRANCH   1   7
ATOM      7  C   UNL     1      47.419   5.895  14.911  0.00  0.00    +0.000 C 
BRANCH   7  10
ATOM      8  C   UNL     1      48.521   7.478  13.362  0.00  0.00    +0.000 C 
ATOM      9  O   UNL     1      49.152   6.602  12.779  0.00  0.00    +0.000 OA
ATOM     10  N   UNL     1      47.716   7.223  14.441  0.00  0.00    +0.000 N 
ATOM     11  H   UNL     1      47.139   7.966  14.812  0.00  0.00    +0.000 HD
BRANCH   8  19
ATOM     12  C   UNL     1      44.051  10.484  11.519  0.00  0.00    +0.000 C 
ATOM     13  N   UNL     1      45.469  10.648  11.764  0.00  0.00    +0.000 N 
ATOM     14  C   UNL     1      46.089  11.862  11.554  0.00  0.00    +0.000 A 
ATOM     15  N   UNL     1      47.342  12.109  11.757  0.00  0.00    +0.000 NA
ATOM     16  C   UNL     1      48.058  11.050  12.212  0.00  0.00    +0.000 A 
ATOM     17  S   UNL     1      49.731  11.179  12.501  0.00  0.00    +0.000 S 
ATOM     18  C   UNL     1      49.834   9.543  12.979  0.00  0.00    +0.000 A 
ATOM     19  C   UNL     1      48.613   8.888  12.962  0.00  0.00    +0.000 A 
ATOM     20  C   UNL     1      47.582   9.784  12.490  0.00  0.00    +0.000 A 
ATOM     21  C   UNL     1      46.166   9.550  12.256  0.00  0.00    +0.000 A 
ATOM     22  O   UNL     1      45.621   8.479  12.507  0.00  0.00    +0.000 OA
ENDBRANCH   8  19
ENDBRANCH   7  10
ENDBRANCH   1   7
BRANCH   4  23
ATOM     23  C   UNL     1      43.974   2.940  11.251  0.00  0.00    +0.000 C 
BRANCH  23  24
ATOM     24  N   UNL     1      44.702   2.445  10.106  0.00  0.00    +0.000 N 
ATOM     25  C   UNL     1      45.102   3.313   9.113  0.00  0.00    +0.000 C 
ATOM     26  O   UNL     1      44.861   4.515   9.132  0.00  0.00    +0.000 OA
ATOM     27  H   UNL     1      45.102   1.518  10.159  0.00  0.00    +0.000 HD
BRANCH  25  28
ATOM     28  C   UNL     1      45.892   2.726   7.995  0.00  0.00    +0.000 A 
ATOM     29  C   UNL     1      46.366   1.408   8.041  0.00  0.00    +0.000 A 
ATOM     30  C   UNL     1      47.094   0.892   6.966  0.00  0.00    +0.000 A 
ATOM     31  C   UNL     1      47.346   1.683   5.845  0.00  0.00    +0.000 A 
ATOM     32  C   UNL     1      46.861   2.990   5.788  0.00  0.00    +0.000 A 
ATOM     33  C   UNL     1      46.129   3.509   6.859  0.00  0.00    +0.000 A 
ENDBRANCH  25  28
ENDBRANCH  23  24
ENDBRANCH   4  23
TORSDOF 6
ENDMDL
MODEL 4
REMARK VINA RESULT:    -7.717      1.680      2.688
REMARK INTER + INTRA:         -11.518
REMARK INTER:                 -10.925
REMARK INTRA:                  -0.593
REMARK UNBOUND:                -1.094
REMARK  Name = 
REMARK  7 active torsions:
REMARK  status: ('A' for Active; 'I' for Inactive)
REMARK    1  A    between atoms: C_1  and  N_2
REMARK    2  A    between atoms: C_8  and  C_9
REMARK    3  A    between atoms: N_11  and  C_12
REMARK    4  A    between atoms: C_12  and  C_13
REMARK    5  A    between atoms: C_16  and  C_17
REMARK    6  A    between atoms: C_17  and  N_18
REMARK    7  A    between atoms: C_19  and  C_21
REMARK                            x       y       z     vdW  Elec       q    Type
REMARK                         _______ _______ _______ _____ _____    ______ ____
ROOT
ATOM      1  C   UNL     1      46.758   6.794  13.069  0.00  0.00    +0.000 A 
ATOM      2  C   UNL     1      46.023   7.557  12.153  0.00  0.00    +0.000 A 
ATOM      3  C   UNL     1      45.104   6.945  11.295  0.00  0.00    +0.000 A 
ATOM      4  C   UNL     1      44.886   5.559  11.355  0.00  0.00    +0.000 A 
ATOM      5  C   UNL     1      45.625   4.799  12.270  0.00  0.00    +0.000 A 
ATOM      6  C   UNL     1      46.543   5.412  13.126  0.00  0.00    +0.000 A 
ENDROOT
BRANCH   1   7
ATOM      7  C   UNL     1      47.736   7.440  14.012  0.00  0.00    +0.000 C 
BRANCH   7  10
ATOM      8  C   UNL     1      49.090   6.423  15.816  0.00  0.00    +0.000 C 
ATOM      9  O   UNL     1      50.161   6.719  15.296  0.00  0.00    +0.000 OA
ATOM     10  N   UNL     1      47.880   6.678  15.226  0.00  0.00    +0.000 N 
ATOM     11  H   UNL     1      47.031   6.507  15.748  0.00  0.00    +0.000 HD
BRANCH   8  19
ATOM     12  C   UNL     1      48.958   9.159  20.807  0.00  0.00    +0.000 C 
ATOM     13  N   UNL     1      48.957   7.808  20.286  0.00  0.00    +0.000 N 
ATOM     14  C   UNL     1      48.886   6.722  21.133  0.00  0.00    +0.000 A 
ATOM     15  N   UNL     1      48.865   5.483  20.763  0.00  0.00    +0.000 NA
ATOM     16  C   UNL     1      48.923   5.294  19.421  0.00  0.00    +0.000 A 
ATOM     17  S   UNL     1      48.943   3.728  18.752  0.00  0.00    +0.000 S 
ATOM     18  C   UNL     1      49.043   4.344  17.163  0.00  0.00    +0.000 A 
ATOM     19  C   UNL     1      49.028   5.729  17.108  0.00  0.00    +0.000 A 
ATOM     20  C   UNL     1      48.977   6.272  18.447  0.00  0.00    +0.000 A 
ATOM     21  C   UNL     1      48.989   7.652  18.904  0.00  0.00    +0.000 A 
ATOM     22  O   UNL     1      48.992   8.607  18.131  0.00  0.00    +0.000 OA
ENDBRANCH   8  19
ENDBRANCH   7  10
ENDBRANCH   1   7
BRANCH   4  23
ATOM     23  C   UNL     1      43.888   4.893  10.448  0.00  0.00    +0.000 C 
BRANCH  23  24
ATOM     24  N   UNL     1      44.504   3.879   9.626  0.00  0.00    +0.000 N 
ATOM     25  C   UNL     1      45.447   4.230   8.684  0.00  0.00    +0.000 C 
ATOM     26  O   UNL     1      45.800   5.388   8.484  0.00  0.00    +0.000 OA
ATOM     27  H   UNL     1      44.404   2.913   9.905  0.00  0.00    +0.000 HD
BRANCH  25  28
ATOM     28  C   UNL     1      46.068   3.116   7.917  0.00  0.00    +0.000 A 
ATOM     29  C   UNL     1      46.095   1.805   8.413  0.00  0.00    +0.000 A 
ATOM     30  C   UNL     1      46.679   0.786   7.657  0.00  0.00    +0.000 A 
ATOM     31  C   UNL     1      47.229   1.067   6.406  0.00  0.00    +0.000 A 
ATOM     32  C   UNL     1      47.189   2.367   5.901  0.00  0.00    +0.000 A 
ATOM     33  C   UNL     1      46.604   3.389   6.652  0.00  0.00    +0.000 A 
ENDBRANCH  25  28
ENDBRANCH  23  24
ENDBRANCH   4  23
TORSDOF 6
ENDMDL
MODEL 5
REMARK VINA RESULT:    -7.483      3.382      9.024
REMARK INTER + INTRA:         -11.202
REMARK INTER:                 -10.185
REMARK INTRA:                  -1.017
REMARK UNBOUND:                -1.094
REMARK  Name = 
REMARK  7 active torsions:
REMARK  status: ('A' for Active; 'I' for Inactive)
REMARK    1  A    between atoms: C_1  and  N_2
REMARK    2  A    between atoms: C_8  and  C_9
REMARK    3  A    between atoms: N_11  and  C_12
REMARK    4  A    between atoms: C_12  and  C_13
REMARK    5  A    between atoms: C_16  and  C_17
REMARK    6  A    between atoms: C_17  and  N_18
REMARK    7  A    between atoms: C_19  and  C_21
REMARK                            x       y       z     vdW  Elec       q    Type
REMARK                         _______ _______ _______ _____ _____    ______ ____
ROOT
ATOM      1  C   UNL     1      48.531   7.582  13.049  0.00  0.00    +0.000 A 
ATOM      2  C   UNL     1      49.831   8.100  13.016  0.00  0.00    +0.000 A 
ATOM      3  C   UNL     1      50.659   8.014  14.139  0.00  0.00    +0.000 A 
ATOM      4  C   UNL     1      50.209   7.384  15.310  0.00  0.00    +0.000 A 
ATOM      5  C   UNL     1      48.907   6.869  15.341  0.00  0.00    +0.000 A 
ATOM      6  C   UNL     1      48.081   6.956  14.218  0.00  0.00    +0.000 A 
ENDROOT
BRANCH   1   7
ATOM      7  C   UNL     1      47.634   7.649  11.843  0.00  0.00    +0.000 C 
BRANCH   7  10
ATOM      8  C   UNL     1      45.479   6.466  11.563  0.00  0.00    +0.000 C 
ATOM      9  O   UNL     1      44.808   7.487  11.659  0.00  0.00    +0.000 OA
ATOM     10  N   UNL     1      46.842   6.454  11.707  0.00  0.00    +0.000 N 
ATOM     11  H   UNL     1      47.351   5.602  11.513  0.00  0.00    +0.000 HD
BRANCH   8  19
ATOM     12  C   UNL     1      46.234   3.508   6.757  0.00  0.00    +0.000 C 
ATOM     13  N   UNL     1      45.530   3.407   8.019  0.00  0.00    +0.000 N 
ATOM     14  C   UNL     1      44.770   2.297   8.320  0.00  0.00    +0.000 A 
ATOM     15  N   UNL     1      44.119   2.110   9.422  0.00  0.00    +0.000 NA
ATOM     16  C   UNL     1      44.226   3.123  10.318  0.00  0.00    +0.000 A 
ATOM     17  S   UNL     1      43.407   3.068  11.810  0.00  0.00    +0.000 S 
ATOM     18  C   UNL     1      44.010   4.599  12.265  0.00  0.00    +0.000 A 
ATOM     19  C   UNL     1      44.860   5.157  11.322  0.00  0.00    +0.000 A 
ATOM     20  C   UNL     1      44.960   4.284  10.175  0.00  0.00    +0.000 A 
ATOM     21  C   UNL     1      45.684   4.451   8.925  0.00  0.00    +0.000 A 
ATOM     22  O   UNL     1      46.404   5.420   8.701  0.00  0.00    +0.000 OA
ENDBRANCH   8  19
ENDBRANCH   7  10
ENDBRANCH   1   7
BRANCH   4  23
ATOM     23  C   UNL     1      51.098   7.272  16.518  0.00  0.00    +0.000 C 
BRANCH  23  24
ATOM     24  N   UNL     1      51.596   5.928  16.693  0.00  0.00    +0.000 N 
ATOM     25  C   UNL     1      50.983   5.074  17.585  0.00  0.00    +0.000 C 
ATOM     26  O   UNL     1      50.019   5.396  18.271  0.00  0.00    +0.000 OA
ATOM     27  H   UNL     1      52.237   5.563  16.003  0.00  0.00    +0.000 HD
BRANCH  25  28
ATOM     28  C   UNL     1      51.530   3.692  17.665  0.00  0.00    +0.000 A 
ATOM     29  C   UNL     1      50.744   2.571  17.366  0.00  0.00    +0.000 A 
ATOM     30  C   UNL     1      51.298   1.291  17.444  0.00  0.00    +0.000 A 
ATOM     31  C   UNL     1      52.634   1.126  17.811  0.00  0.00    +0.000 A 
ATOM     32  C   UNL     1      53.425   2.240  18.092  0.00  0.00    +0.000 A 
ATOM     33  C   UNL     1      52.876   3.522  18.013  0.00  0.00    +0.000 A 
ENDBRANCH  25  28
ENDBRANCH  23  24
ENDBRANCH   4  23
TORSDOF 6
ENDMDL
MODEL 6
REMARK VINA RESULT:    -7.251      3.897      6.860
REMARK INTER + INTRA:         -10.888
REMARK INTER:                  -9.798
REMARK INTRA:                  -1.090
REMARK UNBOUND:                -1.094
REMARK  Name = 
REMARK  7 active torsions:
REMARK  status: ('A' for Active; 'I' for Inactive)
REMARK    1  A    between atoms: C_1  and  N_2
REMARK    2  A    between atoms: C_8  and  C_9
REMARK    3  A    between atoms: N_11  and  C_12
REMARK    4  A    between atoms: C_12  and  C_13
REMARK    5  A    between atoms: C_16  and  C_17
REMARK    6  A    between atoms: C_17  and  N_18
REMARK    7  A    between atoms: C_19  and  C_21
REMARK                            x       y       z     vdW  Elec       q    Type
REMARK                         _______ _______ _______ _____ _____    ______ ____
ROOT
ATOM      1  C   UNL     1      45.734   6.662  12.570  0.00  0.00    +0.000 A 
ATOM      2  C   UNL     1      44.773   6.805  11.562  0.00  0.00    +0.000 A 
ATOM      3  C   UNL     1      44.311   8.074  11.197  0.00  0.00    +0.000 A 
ATOM      4  C   UNL     1      44.821   9.225  11.818  0.00  0.00    +0.000 A 
ATOM      5  C   UNL     1      45.780   9.077  12.827  0.00  0.00    +0.000 A 
ATOM      6  C   UNL     1      46.241   7.809  13.192  0.00  0.00    +0.000 A 
ENDROOT
BRANCH   1   7
ATOM      7  C   UNL     1      46.255   5.306  12.961  0.00  0.00    +0.000 C 
BRANCH   7  10
ATOM      8  C   UNL     1      47.290   4.195  14.915  0.00  0.00    +0.000 C 
ATOM      9  O   UNL     1      47.351   3.099  14.368  0.00  0.00    +0.000 OA
ATOM     10  N   UNL     1      46.715   5.291  14.326  0.00  0.00    +0.000 N 
ATOM     11  H   UNL     1      46.789   6.191  14.780  0.00  0.00    +0.000 HD
BRANCH   8  19
ATOM     12  C   UNL     1      51.024   8.287  16.230  0.00  0.00    +0.000 C 
ATOM     13  N   UNL     1      50.293   7.211  16.867  0.00  0.00    +0.000 N 
ATOM     14  C   UNL     1      50.410   6.978  18.220  0.00  0.00    +0.000 A 
ATOM     15  N   UNL     1      49.789   6.054  18.878  0.00  0.00    +0.000 NA
ATOM     16  C   UNL     1      48.971   5.277  18.124  0.00  0.00    +0.000 A 
ATOM     17  S   UNL     1      48.100   3.987  18.814  0.00  0.00    +0.000 S 
ATOM     18  C   UNL     1      47.415   3.566  17.308  0.00  0.00    +0.000 A 
ATOM     19  C   UNL     1      47.801   4.406  16.275  0.00  0.00    +0.000 A 
ATOM     20  C   UNL     1      48.732   5.396  16.770  0.00  0.00    +0.000 A 
ATOM     21  C   UNL     1      49.442   6.453  16.069  0.00  0.00    +0.000 A 
ATOM     22  O   UNL     1      49.278   6.683  14.873  0.00  0.00    +0.000 OA
ENDBRANCH   8  19
ENDBRANCH   7  10
ENDBRANCH   1   7
BRANCH   4  23
ATOM     23  C   UNL     1      44.343  10.594  11.420  0.00  0.00    +0.000 C 
BRANCH  23  24
ATOM     24  N   UNL     1      43.051  10.896  11.989  0.00  0.00    +0.000 N 
ATOM     25  C   UNL     1      41.916  10.813  11.211  0.00  0.00    +0.000 C 
ATOM     26  O   UNL     1      41.935  10.500  10.025  0.00  0.00    +0.000 OA
ATOM     27  H   UNL     1      42.972  10.943  12.995  0.00  0.00    +0.000 HD
BRANCH  25  28
ATOM     28  C   UNL     1      40.622  11.091  11.891  0.00  0.00    +0.000 A 
ATOM     29  C   UNL     1      40.526  12.012  12.943  0.00  0.00    +0.000 A 
ATOM     30  C   UNL     1      39.290  12.252  13.548  0.00  0.00    +0.000 A 
ATOM     31  C   UNL     1      38.149  11.583  13.104  0.00  0.00    +0.000 A 
ATOM     32  C   UNL     1      38.237  10.678  12.045  0.00  0.00    +0.000 A 
ATOM     33  C   UNL     1      39.470  10.438  11.435  0.00  0.00    +0.000 A 
ENDBRANCH  25  28
ENDBRANCH  23  24
ENDBRANCH   4  23
TORSDOF 6
ENDMDL
MODEL 7
REMARK VINA RESULT:    -7.168      2.405      3.672
REMARK INTER + INTRA:         -10.777
REMARK INTER:                  -9.723
REMARK INTRA:                  -1.053
REMARK UNBOUND:                -1.094
REMARK  Name = 
REMARK  7 active torsions:
REMARK  status: ('A' for Active; 'I' for Inactive)
REMARK    1  A    between atoms: C_1  and  N_2
REMARK    2  A    between atoms: C_8  and  C_9
REMARK    3  A    between atoms: N_11  and  C_12
REMARK    4  A    between atoms: C_12  and  C_13
REMARK    5  A    between atoms: C_16  and  C_17
REMARK    6  A    between atoms: C_17  and  N_18
REMARK    7  A    between atoms: C_19  and  C_21
REMARK                            x       y       z     vdW  Elec       q    Type
REMARK                         _______ _______ _______ _____ _____    ______ ____
ROOT
ATOM      1  C   UNL     1      47.147   5.554  14.008  0.00  0.00    +0.000 A 
ATOM      2  C   UNL     1      47.202   6.379  12.878  0.00  0.00    +0.000 A 
ATOM      3  C   UNL     1      46.330   6.174  11.804  0.00  0.00    +0.000 A 
ATOM      4  C   UNL     1      45.368   5.153  11.853  0.00  0.00    +0.000 A 
ATOM      5  C   UNL     1      45.317   4.328  12.983  0.00  0.00    +0.000 A 
ATOM      6  C   UNL     1      46.189   4.534  14.055  0.00  0.00    +0.000 A 
ENDROOT
BRANCH   1   7
ATOM      7  C   UNL     1      48.065   5.775  15.179  0.00  0.00    +0.000 C 
BRANCH   7  10
ATOM      8  C   UNL     1      49.237   7.922  15.550  0.00  0.00    +0.000 C 
ATOM      9  O   UNL     1      50.346   7.456  15.312  0.00  0.00    +0.000 OA
ATOM     10  N   UNL     1      48.098   7.160  15.570  0.00  0.00    +0.000 N 
ATOM     11  H   UNL     1      47.200   7.617  15.666  0.00  0.00    +0.000 HD
BRANCH   8  19
ATOM     12  C   UNL     1      46.806   9.725  20.372  0.00  0.00    +0.000 C 
ATOM     13  N   UNL     1      47.391  10.262  19.161  0.00  0.00    +0.000 N 
ATOM     14  C   UNL     1      47.484  11.623  18.961  0.00  0.00    +0.000 A 
ATOM     15  N   UNL     1      48.001  12.194  17.923  0.00  0.00    +0.000 NA
ATOM     16  C   UNL     1      48.472  11.336  16.983  0.00  0.00    +0.000 A 
ATOM     17  S   UNL     1      49.154  11.909  15.531  0.00  0.00    +0.000 S 
ATOM     18  C   UNL     1      49.432  10.322  14.967  0.00  0.00    +0.000 A 
ATOM     19  C   UNL     1      49.051   9.342  15.871  0.00  0.00    +0.000 A 
ATOM     20  C   UNL     1      48.470   9.957  17.043  0.00  0.00    +0.000 A 
ATOM     21  C   UNL     1      47.888   9.354  18.232  0.00  0.00    +0.000 A 
ATOM     22  O   UNL     1      47.869   8.140  18.417  0.00  0.00    +0.000 OA
ENDBRANCH   8  19
ENDBRANCH   7  10
ENDBRANCH   1   7
BRANCH   4  23
ATOM     23  C   UNL     1      44.414   4.934  10.711  0.00  0.00    +0.000 C 
BRANCH  23  24
ATOM     24  N   UNL     1      44.895   3.925   9.797  0.00  0.00    +0.000 N 
ATOM     25  C   UNL     1      45.679   4.282   8.721  0.00  0.00    +0.000 C 
ATOM     26  O   UNL     1      45.994   5.441   8.475  0.00  0.00    +0.000 OA
ATOM     27  H   UNL     1      44.840   2.957  10.084  0.00  0.00    +0.000 HD
BRANCH  25  28
ATOM     28  C   UNL     1      46.173   3.173   7.860  0.00  0.00    +0.000 A 
ATOM     29  C   UNL     1      46.675   3.407   6.573  0.00  0.00    +0.000 A 
ATOM     30  C   UNL     1      47.138   2.339   5.801  0.00  0.00    +0.000 A 
ATOM     31  C   UNL     1      47.108   1.040   6.310  0.00  0.00    +0.000 A 
ATOM     32  C   UNL     1      46.625   0.804   7.598  0.00  0.00    +0.000 A 
ATOM     33  C   UNL     1      46.164   1.870   8.375  0.00  0.00    +0.000 A 
ENDBRANCH  25  28
ENDBRANCH  23  24
ENDBRANCH   4  23
TORSDOF 6
ENDMDL
MODEL 8
REMARK VINA RESULT:    -6.825      3.009      9.631
REMARK INTER + INTRA:         -10.313
REMARK INTER:                  -9.331
REMARK INTRA:                  -0.982
REMARK UNBOUND:                -1.094
REMARK  Name = 
REMARK  7 active torsions:
REMARK  status: ('A' for Active; 'I' for Inactive)
REMARK    1  A    between atoms: C_1  and  N_2
REMARK    2  A    between atoms: C_8  and  C_9
REMARK    3  A    between atoms: N_11  and  C_12
REMARK    4  A    between atoms: C_12  and  C_13
REMARK    5  A    between atoms: C_16  and  C_17
REMARK    6  A    between atoms: C_17  and  N_18
REMARK    7  A    between atoms: C_19  and  C_21
REMARK                            x       y       z     vdW  Elec       q    Type
REMARK                         _______ _______ _______ _____ _____    ______ ____
ROOT
ATOM      1  C   UNL     1      48.521   7.614  12.990  0.00  0.00    +0.000 A 
ATOM      2  C   UNL     1      49.728   8.320  13.047  0.00  0.00    +0.000 A 
ATOM      3  C   UNL     1      50.520   8.282  14.200  0.00  0.00    +0.000 A 
ATOM      4  C   UNL     1      50.128   7.515  15.309  0.00  0.00    +0.000 A 
ATOM      5  C   UNL     1      48.919   6.812  15.249  0.00  0.00    +0.000 A 
ATOM      6  C   UNL     1      48.129   6.852  14.096  0.00  0.00    +0.000 A 
ENDROOT
BRANCH   1   7
ATOM      7  C   UNL     1      47.668   7.629  11.751  0.00  0.00    +0.000 C 
BRANCH   7  10
ATOM      8  C   UNL     1      45.490   6.486  11.488  0.00  0.00    +0.000 C 
ATOM      9  O   UNL     1      44.843   7.528  11.517  0.00  0.00    +0.000 OA
ATOM     10  N   UNL     1      46.848   6.449  11.660  0.00  0.00    +0.000 N 
ATOM     11  H   UNL     1      47.340   5.576  11.520  0.00  0.00    +0.000 HD
BRANCH   8  19
ATOM     12  C   UNL     1      46.123   3.348   6.780  0.00  0.00    +0.000 C 
ATOM     13  N   UNL     1      45.434   3.305   8.053  0.00  0.00    +0.000 N 
ATOM     14  C   UNL     1      44.657   2.221   8.403  0.00  0.00    +0.000 A 
ATOM     15  N   UNL     1      44.017   2.086   9.519  0.00  0.00    +0.000 NA
ATOM     16  C   UNL     1      44.155   3.127  10.377  0.00  0.00    +0.000 A 
ATOM     17  S   UNL     1      43.356   3.141  11.881  0.00  0.00    +0.000 S 
ATOM     18  C   UNL     1      43.994   4.675  12.273  0.00  0.00    +0.000 A 
ATOM     19  C   UNL     1      44.841   5.182  11.301  0.00  0.00    +0.000 A 
ATOM     20  C   UNL     1      44.909   4.268  10.184  0.00  0.00    +0.000 A 
ATOM     21  C   UNL     1      45.620   4.376   8.920  0.00  0.00    +0.000 A 
ATOM     22  O   UNL     1      46.356   5.323   8.652  0.00  0.00    +0.000 OA
ENDBRANCH   8  19
ENDBRANCH   7  10
ENDBRANCH   1   7
BRANCH   4  23
ATOM     23  C   UNL     1      50.980   7.454  16.546  0.00  0.00    +0.000 C 
BRANCH  23  24
ATOM     24  N   UNL     1      50.194   7.173  17.724  0.00  0.00    +0.000 N 
ATOM     25  C   UNL     1      50.157   5.896  18.243  0.00  0.00    +0.000 C 
ATOM     26  O   UNL     1      50.759   4.950  17.746  0.00  0.00    +0.000 OA
ATOM     27  H   UNL     1      49.868   7.953  18.277  0.00  0.00    +0.000 HD
BRANCH  25  28
ATOM     28  C   UNL     1      49.363   5.707  19.488  0.00  0.00    +0.000 A 
ATOM     29  C   UNL     1      49.878   5.014  20.591  0.00  0.00    +0.000 A 
ATOM     30  C   UNL     1      49.103   4.867  21.745  0.00  0.00    +0.000 A 
ATOM     31  C   UNL     1      47.821   5.414  21.804  0.00  0.00    +0.000 A 
ATOM     32  C   UNL     1      47.312   6.121  20.714  0.00  0.00    +0.000 A 
ATOM     33  C   UNL     1      48.084   6.272  19.559  0.00  0.00    +0.000 A 
ENDBRANCH  25  28
ENDBRANCH  23  24
ENDBRANCH   4  23
TORSDOF 6
ENDMDL
MODEL 9
REMARK VINA RESULT:    -6.717      5.883      9.767
REMARK INTER + INTRA:         -10.167
REMARK INTER:                  -9.454
REMARK INTRA:                  -0.713
REMARK UNBOUND:                -1.094
REMARK  Name = 
REMARK  7 active torsions:
REMARK  status: ('A' for Active; 'I' for Inactive)
REMARK    1  A    between atoms: C_1  and  N_2
REMARK    2  A    between atoms: C_8  and  C_9
REMARK    3  A    between atoms: N_11  and  C_12
REMARK    4  A    between atoms: C_12  and  C_13
REMARK    5  A    between atoms: C_16  and  C_17
REMARK    6  A    between atoms: C_17  and  N_18
REMARK    7  A    between atoms: C_19  and  C_21
REMARK                            x       y       z     vdW  Elec       q    Type
REMARK                         _______ _______ _______ _____ _____    ______ ____
ROOT
ATOM      1  C   UNL     1      44.960   9.159  11.840  0.00  0.00    +0.000 A 
ATOM      2  C   UNL     1      45.915   9.004  12.853  0.00  0.00    +0.000 A 
ATOM      3  C   UNL     1      46.329   7.729  13.250  0.00  0.00    +0.000 A 
ATOM      4  C   UNL     1      45.812   6.584  12.623  0.00  0.00    +0.000 A 
ATOM      5  C   UNL     1      44.856   6.742  11.613  0.00  0.00    +0.000 A 
ATOM      6  C   UNL     1      44.443   8.017  11.217  0.00  0.00    +0.000 A 
ENDROOT
BRANCH   1   7
ATOM      7  C   UNL     1      44.520  10.524  11.388  0.00  0.00    +0.000 C 
BRANCH   7  10
ATOM      8  C   UNL     1      42.397  11.789  11.512  0.00  0.00    +0.000 C 
ATOM      9  O   UNL     1      42.938  12.828  11.875  0.00  0.00    +0.000 OA
ATOM     10  N   UNL     1      43.084  10.620  11.320  0.00  0.00    +0.000 N 
ATOM     11  H   UNL     1      42.604   9.825  10.919  0.00  0.00    +0.000 HD
BRANCH   8  19
ATOM     12  C   UNL     1      38.567  12.707  15.624  0.00  0.00    +0.000 C 
ATOM     13  N   UNL     1      38.619  12.366  14.217  0.00  0.00    +0.000 N 
ATOM     14  C   UNL     1      37.463  12.191  13.486  0.00  0.00    +0.000 A 
ATOM     15  N   UNL     1      37.409  11.901  12.227  0.00  0.00    +0.000 NA
ATOM     16  C   UNL     1      38.618  11.766  11.627  0.00  0.00    +0.000 A 
ATOM     17  S   UNL     1      38.742  11.349   9.981  0.00  0.00    +0.000 S 
ATOM     18  C   UNL     1      40.448  11.362  10.045  0.00  0.00    +0.000 A 
ATOM     19  C   UNL     1      40.948  11.713  11.289  0.00  0.00    +0.000 A 
ATOM     20  C   UNL     1      39.858  11.928  12.213  0.00  0.00    +0.000 A 
ATOM     21  C   UNL     1      39.875  12.263  13.628  0.00  0.00    +0.000 A 
ATOM     22  O   UNL     1      40.915  12.474  14.247  0.00  0.00    +0.000 OA
ENDBRANCH   8  19
ENDBRANCH   7  10
ENDBRANCH   1   7
BRANCH   4  23
ATOM     23  C   UNL     1      46.263   5.209  13.032  0.00  0.00    +0.000 C 
BRANCH  23  24
ATOM     24  N   UNL     1      46.733   5.183  14.397  0.00  0.00    +0.000 N 
ATOM     25  C   UNL     1      47.273   4.029  14.921  0.00  0.00    +0.000 C 
ATOM     26  O   UNL     1      47.372   2.984  14.287  0.00  0.00    +0.000 OA
ATOM     27  H   UNL     1      46.867   6.065  14.872  0.00  0.00    +0.000 HD
BRANCH  25  28
ATOM     28  C   UNL     1      47.779   4.106  16.320  0.00  0.00    +0.000 A 
ATOM     29  C   UNL     1      47.810   2.981  17.155  0.00  0.00    +0.000 A 
ATOM     30  C   UNL     1      48.302   3.094  18.457  0.00  0.00    +0.000 A 
ATOM     31  C   UNL     1      48.768   4.323  18.927  0.00  0.00    +0.000 A 
ATOM     32  C   UNL     1      48.755   5.441  18.093  0.00  0.00    +0.000 A 
ATOM     33  C   UNL     1      48.267   5.332  16.789  0.00  0.00    +0.000 A 
ENDBRANCH  25  28
ENDBRANCH  23  24
ENDBRANCH   4  23
TORSDOF 6
ENDMDL
