MODEL 1
REMARK VINA RESULT:    -8.193      0.000      0.000
REMARK INTER + INTRA:         -11.280
REMARK INTER:                 -10.588
REMARK INTRA:                  -0.691
REMARK UNBOUND:                -0.691
REMARK  Name = 
REMARK  5 active torsions:
REMARK  status: ('A' for Active; 'I' for Inactive)
REMARK    1  A    between atoms: C_2  and  C_3
REMARK    2  A    between atoms: C_7  and  N_8
REMARK    3  A    between atoms: N_8  and  C_9
REMARK    4  A    between atoms: C_9  and  C_10
REMARK    5  A    between atoms: C_14  and  C_15
REMARK                            x       y       z     vdW  Elec       q    Type
REMARK                         _______ _______ _______ _____ _____    ______ ____
ROOT
ATOM      1  C   UNL     1      43.732   4.855  11.480  0.00  0.00    +0.000 C 
ATOM      2  C   UNL     1      42.413   5.335  12.088  0.00  0.00    +0.000 C 
ATOM      3  C   UNL     1      43.109   6.175  11.073  0.00  0.00    +0.000 C 
ENDROOT
BRANCH   1   4
ATOM      4  C   UNL     1      44.947   4.903  12.402  0.00  0.00    +0.000 A 
ATOM      5  C   UNL     1      45.590   3.733  12.827  0.00  0.00    +0.000 A 
ATOM      6  C   UNL     1      46.775   3.792  13.555  0.00  0.00    +0.000 A 
ATOM      7  C   UNL     1      47.352   5.025  13.847  0.00  0.00    +0.000 A 
ATOM      8  C   UNL     1      46.749   6.220  13.441  0.00  0.00    +0.000 A 
ATOM      9  C   UNL     1      45.516   6.136  12.782  0.00  0.00    +0.000 A 
BRANCH   8  10
ATOM     10  C   UNL     1      47.412   7.587  13.583  0.00  0.00    +0.000 C 
ATOM     11  C   UNL     1      47.532   8.318  12.232  0.00  0.00    +0.000 C 
ATOM     12  C   UNL     1      48.708   7.823  11.393  0.00  0.00    +0.000 C 
ATOM     13  C   UNL     1      50.001   7.699  12.203  0.00  0.00    +0.000 C 
ATOM     14  N   UNL     1      49.841   6.989  13.471  0.00  0.00    +0.000 NA
ATOM     15  C   UNL     1      48.775   7.563  14.294  0.00  0.00    +0.000 C 
ATOM     16  H   UNL     1      50.717   7.005  13.993  0.00  0.00    +0.000 HD
ENDBRANCH   8  10
ENDBRANCH   1   4
BRANCH   1  17
ATOM     17  N   UNL     1      43.666   3.636  10.636  0.00  0.00    +0.000 N 
ATOM     18  H   UNL     1      43.544   2.796  11.200  0.00  0.00    +0.000 HD
BRANCH  17  23
ATOM     19  C   UNL     1      45.984   1.975   8.207  0.00  0.00    +0.000 A 
ATOM     20  C   UNL     1      46.440   3.109   7.559  0.00  0.00    +0.000 A 
ATOM     21  N   UNL     1      46.015   4.357   7.847  0.00  0.00    +0.000 NA
ATOM     22  C   UNL     1      45.095   4.466   8.840  0.00  0.00    +0.000 A 
ATOM     23  C   UNL     1      44.547   3.395   9.558  0.00  0.00    +0.000 A 
ATOM     24  C   UNL     1      45.021   2.125   9.212  0.00  0.00    +0.000 A 
BRANCH  19  26
ATOM     25  N   UNL     1      46.941  -0.352   7.600  0.00  0.00    +0.000 NA
ATOM     26  C   UNL     1      46.507   0.691   7.873  0.00  0.00    +0.000 C 
ENDBRANCH  19  26
ENDBRANCH  17  23
ENDBRANCH   1  17
TORSDOF 5
ENDMDL
MODEL 2
REMARK VINA RESULT:    -7.497      1.122      1.486
REMARK INTER + INTRA:         -10.380
REMARK INTER:                  -9.892
REMARK INTRA:                  -0.489
REMARK UNBOUND:                -0.691
REMARK  Name = 
REMARK  5 active torsions:
REMARK  status: ('A' for Active; 'I' for Inactive)
REMARK    1  A    between atoms: C_2  and  C_3
REMARK    2  A    between atoms: C_7  and  N_8
REMARK    3  A    between atoms: N_8  and  C_9
REMARK    4  A    between atoms: C_9  and  C_10
REMARK    5  A    between atoms: C_14  and  C_15
REMARK                            x       y       z     vdW  Elec       q    Type
REMARK                         _______ _______ _______ _____ _____    ______ ____
ROOT
ATOM      1  C   UNL     1      44.006   4.879  11.855  0.00  0.00    +0.000 C 
ATOM      2  C   UNL     1      42.731   5.062  12.680  0.00  0.00    +0.000 C 
ATOM      3  C   UNL     1      42.985   5.945  11.508  0.00  0.00    +0.000 C 
ENDROOT
BRANCH   1   4
ATOM      4  C   UNL     1      45.301   5.335  12.520  0.00  0.00    +0.000 A 
ATOM      5  C   UNL     1      45.946   4.548  13.484  0.00  0.00    +0.000 A 
ATOM      6  C   UNL     1      47.193   4.908  13.985  0.00  0.00    +0.000 A 
ATOM      7  C   UNL     1      47.831   6.050  13.508  0.00  0.00    +0.000 A 
ATOM      8  C   UNL     1      47.228   6.867  12.545  0.00  0.00    +0.000 A 
ATOM      9  C   UNL     1      45.939   6.527  12.119  0.00  0.00    +0.000 A 
BRANCH   8  10
ATOM     10  C   UNL     1      47.942   8.032  11.865  0.00  0.00    +0.000 C 
ATOM     11  C   UNL     1      49.465   7.992  12.093  0.00  0.00    +0.000 C 
ATOM     12  C   UNL     1      49.873   8.529  13.464  0.00  0.00    +0.000 C 
ATOM     13  C   UNL     1      49.178   9.848  13.812  0.00  0.00    +0.000 C 
ATOM     14  N   UNL     1      47.733   9.835  13.590  0.00  0.00    +0.000 NA
ATOM     15  C   UNL     1      47.388   9.419  12.230  0.00  0.00    +0.000 C 
ATOM     16  H   UNL     1      47.344  10.760  13.771  0.00  0.00    +0.000 HD
ENDBRANCH   8  10
ENDBRANCH   1   4
BRANCH   1  17
ATOM     17  N   UNL     1      44.131   3.605  11.104  0.00  0.00    +0.000 N 
ATOM     18  H   UNL     1      44.363   2.828  11.721  0.00  0.00    +0.000 HD
BRANCH  17  23
ATOM     19  C   UNL     1      46.062   2.265   8.187  0.00  0.00    +0.000 A 
ATOM     20  C   UNL     1      46.359   3.470   7.574  0.00  0.00    +0.000 A 
ATOM     21  N   UNL     1      45.942   4.667   8.037  0.00  0.00    +0.000 NA
ATOM     22  C   UNL     1      45.202   4.648   9.175  0.00  0.00    +0.000 A 
ATOM     23  C   UNL     1      44.824   3.497   9.878  0.00  0.00    +0.000 A 
ATOM     24  C   UNL     1      45.280   2.284   9.348  0.00  0.00    +0.000 A 
BRANCH  19  26
ATOM     25  N   UNL     1      46.975   0.041   7.230  0.00  0.00    +0.000 NA
ATOM     26  C   UNL     1      46.569   1.041   7.660  0.00  0.00    +0.000 C 
ENDBRANCH  19  26
ENDBRANCH  17  23
ENDBRANCH   1  17
TORSDOF 5
ENDMDL
MODEL 3
REMARK VINA RESULT:    -6.974      1.319      2.130
REMARK INTER + INTRA:          -9.703
REMARK INTER:                  -8.956
REMARK INTRA:                  -0.748
REMARK UNBOUND:                -0.691
REMARK  Name = 
REMARK  5 active torsions:
REMARK  status: ('A' for Active; 'I' for Inactive)
REMARK    1  A    between atoms: C_2  and  C_3
REMARK    2  A    between atoms: C_7  and  N_8
REMARK    3  A    between atoms: N_8  and  C_9
REMARK    4  A    between atoms: C_9  and  C_10
REMARK    5  A    between atoms: C_14  and  C_15
REMARK                            x       y       z     vdW  Elec       q    Type
REMARK                         _______ _______ _______ _____ _____    ______ ____
ROOT
ATOM      1  C   UNL     1      43.957   5.383  11.836  0.00  0.00    +0.000 C 
ATOM      2  C   UNL     1      42.929   5.150  12.945  0.00  0.00    +0.000 C 
ATOM      3  C   UNL     1      42.470   5.371  11.545  0.00  0.00    +0.000 C 
ENDROOT
BRANCH   1   4
ATOM      4  C   UNL     1      44.661   6.736  11.852  0.00  0.00    +0.000 A 
ATOM      5  C   UNL     1      44.097   7.861  11.237  0.00  0.00    +0.000 A 
ATOM      6  C   UNL     1      44.678   9.119  11.372  0.00  0.00    +0.000 A 
ATOM      7  C   UNL     1      45.823   9.275  12.150  0.00  0.00    +0.000 A 
ATOM      8  C   UNL     1      46.421   8.182  12.786  0.00  0.00    +0.000 A 
ATOM      9  C   UNL     1      45.863   6.917  12.566  0.00  0.00    +0.000 A 
BRANCH   8  10
ATOM     10  C   UNL     1      47.571   8.314  13.780  0.00  0.00    +0.000 C 
ATOM     11  C   UNL     1      48.528   9.463  13.412  0.00  0.00    +0.000 C 
ATOM     12  C   UNL     1      49.513   9.083  12.308  0.00  0.00    +0.000 C 
ATOM     13  C   UNL     1      50.166   7.718  12.543  0.00  0.00    +0.000 C 
ATOM     14  N   UNL     1      49.218   6.657  12.879  0.00  0.00    +0.000 NA
ATOM     15  C   UNL     1      48.365   7.018  14.012  0.00  0.00    +0.000 C 
ATOM     16  H   UNL     1      49.720   5.796  13.093  0.00  0.00    +0.000 HD
ENDBRANCH   8  10
ENDBRANCH   1   4
BRANCH   1  17
ATOM     17  N   UNL     1      44.852   4.243  11.516  0.00  0.00    +0.000 N 
ATOM     18  H   UNL     1      45.680   4.237  12.111  0.00  0.00    +0.000 HD
BRANCH  17  23
ATOM     19  C   UNL     1      45.912   2.276   8.509  0.00  0.00    +0.000 A 
ATOM     20  C   UNL     1      46.022   3.326   7.613  0.00  0.00    +0.000 A 
ATOM     21  N   UNL     1      45.743   4.608   7.926  0.00  0.00    +0.000 NA
ATOM     22  C   UNL     1      45.345   4.844   9.202  0.00  0.00    +0.000 A 
ATOM     23  C   UNL     1      45.181   3.868  10.194  0.00  0.00    +0.000 A 
ATOM     24  C   UNL     1      45.480   2.555   9.811  0.00  0.00    +0.000 A 
BRANCH  19  26
ATOM     25  N   UNL     1      46.549  -0.130   7.801  0.00  0.00    +0.000 NA
ATOM     26  C   UNL     1      46.260   0.950   8.116  0.00  0.00    +0.000 C 
ENDBRANCH  19  26
ENDBRANCH  17  23
ENDBRANCH   1  17
TORSDOF 5
ENDMDL
MODEL 4
REMARK VINA RESULT:    -6.853      2.124      3.081
REMARK INTER + INTRA:          -9.547
REMARK INTER:                  -9.323
REMARK INTRA:                  -0.225
REMARK UNBOUND:                -0.691
REMARK  Name = 
REMARK  5 active torsions:
REMARK  status: ('A' for Active; 'I' for Inactive)
REMARK    1  A    between atoms: C_2  and  C_3
REMARK    2  A    between atoms: C_7  and  N_8
REMARK    3  A    between atoms: N_8  and  C_9
REMARK    4  A    between atoms: C_9  and  C_10
REMARK    5  A    between atoms: C_14  and  C_15
REMARK                            x       y       z     vdW  Elec       q    Type
REMARK                         _______ _______ _______ _____ _____    ______ ____
ROOT
ATOM      1  C   UNL     1      44.666   4.933  12.145  0.00  0.00    +0.000 C 
ATOM      2  C   UNL     1      43.369   5.305  12.864  0.00  0.00    +0.000 C 
ATOM      3  C   UNL     1      43.846   6.137  11.724  0.00  0.00    +0.000 C 
ENDROOT
BRANCH   1   4
ATOM      4  C   UNL     1      45.956   5.195  12.917  0.00  0.00    +0.000 A 
ATOM      5  C   UNL     1      46.919   6.099  12.449  0.00  0.00    +0.000 A 
ATOM      6  C   UNL     1      48.025   6.432  13.225  0.00  0.00    +0.000 A 
ATOM      7  C   UNL     1      48.173   5.884  14.496  0.00  0.00    +0.000 A 
ATOM      8  C   UNL     1      47.236   4.979  15.008  0.00  0.00    +0.000 A 
ATOM      9  C   UNL     1      46.177   4.599  14.175  0.00  0.00    +0.000 A 
BRANCH   8  10
ATOM     10  C   UNL     1      47.254   4.477  16.449  0.00  0.00    +0.000 C 
ATOM     11  C   UNL     1      48.094   5.383  17.369  0.00  0.00    +0.000 C 
ATOM     12  C   UNL     1      49.594   5.120  17.250  0.00  0.00    +0.000 C 
ATOM     13  C   UNL     1      49.937   3.628  17.284  0.00  0.00    +0.000 C 
ATOM     14  N   UNL     1      49.122   2.811  16.387  0.00  0.00    +0.000 NA
ATOM     15  C   UNL     1      47.689   3.012  16.608  0.00  0.00    +0.000 C 
ATOM     16  H   UNL     1      49.349   1.825  16.510  0.00  0.00    +0.000 HD
ENDBRANCH   8  10
ENDBRANCH   1   4
BRANCH   1  17
ATOM     17  N   UNL     1      44.663   3.652  11.395  0.00  0.00    +0.000 N 
ATOM     18  H   UNL     1      44.992   2.879  11.973  0.00  0.00    +0.000 HD
BRANCH  17  23
ATOM     19  C   UNL     1      46.134   2.294   8.229  0.00  0.00    +0.000 A 
ATOM     20  C   UNL     1      46.268   3.489   7.543  0.00  0.00    +0.000 A 
ATOM     21  N   UNL     1      45.882   4.683   8.039  0.00  0.00    +0.000 NA
ATOM     22  C   UNL     1      45.346   4.672   9.286  0.00  0.00    +0.000 A 
ATOM     23  C   UNL     1      45.144   3.531  10.072  0.00  0.00    +0.000 A 
ATOM     24  C   UNL     1      45.558   2.321   9.505  0.00  0.00    +0.000 A 
BRANCH  19  26
ATOM     25  N   UNL     1      46.978   0.084   7.181  0.00  0.00    +0.000 NA
ATOM     26  C   UNL     1      46.599   1.074   7.655  0.00  0.00    +0.000 C 
ENDBRANCH  19  26
ENDBRANCH  17  23
ENDBRANCH   1  17
TORSDOF 5
ENDMDL
MODEL 5
REMARK VINA RESULT:    -6.411      2.717      5.176
REMARK INTER + INTRA:          -8.976
REMARK INTER:                  -8.540
REMARK INTRA:                  -0.436
REMARK UNBOUND:                -0.691
REMARK  Name = 
REMARK  5 active torsions:
REMARK  status: ('A' for Active; 'I' for Inactive)
REMARK    1  A    between atoms: C_2  and  C_3
REMARK    2  A    between atoms: C_7  and  N_8
REMARK    3  A    between atoms: N_8  and  C_9
REMARK    4  A    between atoms: C_9  and  C_10
REMARK    5  A    between atoms: C_14  and  C_15
REMARK                            x       y       z     vdW  Elec       q    Type
REMARK                         _______ _______ _______ _____ _____    ______ ____
ROOT
ATOM      1  C   UNL     1      47.434   7.566  13.159  0.00  0.00    +0.000 C 
ATOM      2  C   UNL     1      47.463   9.045  12.772  0.00  0.00    +0.000 C 
ATOM      3  C   UNL     1      47.979   8.022  11.820  0.00  0.00    +0.000 C 
ENDROOT
BRANCH   1   4
ATOM      4  C   UNL     1      48.441   7.134  14.220  0.00  0.00    +0.000 A 
ATOM      5  C   UNL     1      49.635   7.838  14.424  0.00  0.00    +0.000 A 
ATOM      6  C   UNL     1      50.483   7.519  15.482  0.00  0.00    +0.000 A 
ATOM      7  C   UNL     1      50.135   6.504  16.369  0.00  0.00    +0.000 A 
ATOM      8  C   UNL     1      48.952   5.775  16.207  0.00  0.00    +0.000 A 
ATOM      9  C   UNL     1      48.159   6.061  15.089  0.00  0.00    +0.000 A 
BRANCH   8  10
ATOM     10  C   UNL     1      48.436   4.771  17.234  0.00  0.00    +0.000 C 
ATOM     11  C   UNL     1      49.549   4.289  18.185  0.00  0.00    +0.000 C 
ATOM     12  C   UNL     1      50.434   3.211  17.561  0.00  0.00    +0.000 C 
ATOM     13  C   UNL     1      49.627   2.113  16.865  0.00  0.00    +0.000 C 
ATOM     14  N   UNL     1      48.591   2.617  15.965  0.00  0.00    +0.000 NA
ATOM     15  C   UNL     1      47.696   3.566  16.632  0.00  0.00    +0.000 C 
ATOM     16  H   UNL     1      48.045   1.842  15.592  0.00  0.00    +0.000 HD
ENDBRANCH   8  10
ENDBRANCH   1   4
BRANCH   1  17
ATOM     17  N   UNL     1      46.092   6.950  13.317  0.00  0.00    +0.000 N 
ATOM     18  H   UNL     1      45.802   6.931  14.294  0.00  0.00    +0.000 HD
BRANCH  17  23
ATOM     19  C   UNL     1      45.146   4.471  10.673  0.00  0.00    +0.000 A 
ATOM     20  C   UNL     1      44.714   3.450  11.503  0.00  0.00    +0.000 A 
ATOM     21  N   UNL     1      44.745   3.518  12.850  0.00  0.00    +0.000 NA
ATOM     22  C   UNL     1      45.224   4.670  13.384  0.00  0.00    +0.000 A 
ATOM     23  C   UNL     1      45.704   5.765  12.653  0.00  0.00    +0.000 A 
ATOM     24  C   UNL     1      45.653   5.636  11.261  0.00  0.00    +0.000 A 
BRANCH  19  26
ATOM     25  N   UNL     1      44.973   4.231   8.103  0.00  0.00    +0.000 NA
ATOM     26  C   UNL     1      45.048   4.342   9.256  0.00  0.00    +0.000 C 
ENDBRANCH  19  26
ENDBRANCH  17  23
ENDBRANCH   1  17
TORSDOF 5
ENDMDL
MODEL 6
REMARK VINA RESULT:    -6.274      1.827      6.798
REMARK INTER + INTRA:          -8.800
REMARK INTER:                  -8.081
REMARK INTRA:                  -0.718
REMARK UNBOUND:                -0.691
REMARK  Name = 
REMARK  5 active torsions:
REMARK  status: ('A' for Active; 'I' for Inactive)
REMARK    1  A    between atoms: C_2  and  C_3
REMARK    2  A    between atoms: C_7  and  N_8
REMARK    3  A    between atoms: N_8  and  C_9
REMARK    4  A    between atoms: C_9  and  C_10
REMARK    5  A    between atoms: C_14  and  C_15
REMARK                            x       y       z     vdW  Elec       q    Type
REMARK                         _______ _______ _______ _____ _____    ______ ____
ROOT
ATOM      1  C   UNL     1      46.283   7.230  11.984  0.00  0.00    +0.000 C 
ATOM      2  C   UNL     1      45.221   8.205  11.472  0.00  0.00    +0.000 C 
ATOM      3  C   UNL     1      45.486   8.102  12.934  0.00  0.00    +0.000 C 
ENDROOT
BRANCH   1   4
ATOM      4  C   UNL     1      45.918   5.750  11.913  0.00  0.00    +0.000 A 
ATOM      5  C   UNL     1      45.853   4.957  13.067  0.00  0.00    +0.000 A 
ATOM      6  C   UNL     1      45.389   3.645  13.008  0.00  0.00    +0.000 A 
ATOM      7  C   UNL     1      44.957   3.114  11.796  0.00  0.00    +0.000 A 
ATOM      8  C   UNL     1      45.001   3.868  10.618  0.00  0.00    +0.000 A 
ATOM      9  C   UNL     1      45.548   5.155  10.690  0.00  0.00    +0.000 A 
BRANCH   8  10
ATOM     10  C   UNL     1      44.391   3.403   9.299  0.00  0.00    +0.000 C 
ATOM     11  C   UNL     1      44.635   1.904   9.043  0.00  0.00    +0.000 C 
ATOM     12  C   UNL     1      46.036   1.615   8.507  0.00  0.00    +0.000 C 
ATOM     13  C   UNL     1      46.442   2.562   7.376  0.00  0.00    +0.000 C 
ATOM     14  N   UNL     1      46.203   3.974   7.668  0.00  0.00    +0.000 NA
ATOM     15  C   UNL     1      44.819   4.226   8.073  0.00  0.00    +0.000 C 
ATOM     16  H   UNL     1      46.426   4.542   6.851  0.00  0.00    +0.000 HD
ENDBRANCH   8  10
ENDBRANCH   1   4
BRANCH   1  17
ATOM     17  N   UNL     1      47.687   7.522  11.604  0.00  0.00    +0.000 N 
ATOM     18  H   UNL     1      47.979   6.974  10.795  0.00  0.00    +0.000 HD
BRANCH  17  23
ATOM     19  C   UNL     1      49.733   7.256  14.730  0.00  0.00    +0.000 A 
ATOM     20  C   UNL     1      50.766   8.101  14.365  0.00  0.00    +0.000 A 
ATOM     21  N   UNL     1      50.842   8.714  13.166  0.00  0.00    +0.000 NA
ATOM     22  C   UNL     1      49.826   8.471  12.299  0.00  0.00    +0.000 A 
ATOM     23  C   UNL     1      48.736   7.626  12.545  0.00  0.00    +0.000 A 
ATOM     24  C   UNL     1      48.713   7.014  13.803  0.00  0.00    +0.000 A 
BRANCH  19  26
ATOM     25  N   UNL     1      49.682   6.194  17.090  0.00  0.00    +0.000 NA
ATOM     26  C   UNL     1      49.701   6.672  16.031  0.00  0.00    +0.000 C 
ENDBRANCH  19  26
ENDBRANCH  17  23
ENDBRANCH   1  17
TORSDOF 5
ENDMDL
MODEL 7
REMARK VINA RESULT:    -6.245      2.836      5.532
REMARK INTER + INTRA:          -8.762
REMARK INTER:                  -8.125
REMARK INTRA:                  -0.637
REMARK UNBOUND:                -0.691
REMARK  Name = 
REMARK  5 active torsions:
REMARK  status: ('A' for Active; 'I' for Inactive)
REMARK    1  A    between atoms: C_2  and  C_3
REMARK    2  A    between atoms: C_7  and  N_8
REMARK    3  A    between atoms: N_8  and  C_9
REMARK    4  A    between atoms: C_9  and  C_10
REMARK    5  A    between atoms: C_14  and  C_15
REMARK                            x       y       z     vdW  Elec       q    Type
REMARK                         _______ _______ _______ _____ _____    ______ ____
ROOT
ATOM      1  C   UNL     1      48.090   7.633  13.403  0.00  0.00    +0.000 C 
ATOM      2  C   UNL     1      48.843   8.508  12.398  0.00  0.00    +0.000 C 
ATOM      3  C   UNL     1      49.223   7.077  12.563  0.00  0.00    +0.000 C 
ENDROOT
BRANCH   1   4
ATOM      4  C   UNL     1      48.375   7.912  14.875  0.00  0.00    +0.000 A 
ATOM      5  C   UNL     1      48.146   9.175  15.439  0.00  0.00    +0.000 A 
ATOM      6  C   UNL     1      48.280   9.382  16.808  0.00  0.00    +0.000 A 
ATOM      7  C   UNL     1      48.621   8.320  17.642  0.00  0.00    +0.000 A 
ATOM      8  C   UNL     1      48.857   7.042  17.127  0.00  0.00    +0.000 A 
ATOM      9  C   UNL     1      48.796   6.879  15.737  0.00  0.00    +0.000 A 
BRANCH   8  10
ATOM     10  C   UNL     1      49.069   5.809  18.000  0.00  0.00    +0.000 C 
ATOM     11  C   UNL     1      49.428   4.563  17.169  0.00  0.00    +0.000 C 
ATOM     12  C   UNL     1      48.207   3.908  16.525  0.00  0.00    +0.000 C 
ATOM     13  C   UNL     1      47.039   3.748  17.501  0.00  0.00    +0.000 C 
ATOM     14  N   UNL     1      46.728   4.959  18.259  0.00  0.00    +0.000 NA
ATOM     15  C   UNL     1      47.902   5.493  18.950  0.00  0.00    +0.000 C 
ATOM     16  H   UNL     1      45.993   4.765  18.939  0.00  0.00    +0.000 HD
ENDBRANCH   8  10
ENDBRANCH   1   4
BRANCH   1  17
ATOM     17  N   UNL     1      46.660   7.369  13.106  0.00  0.00    +0.000 N 
ATOM     18  H   UNL     1      46.049   7.768  13.818  0.00  0.00    +0.000 HD
BRANCH  17  23
ATOM     19  C   UNL     1      45.207   4.597  11.047  0.00  0.00    +0.000 A 
ATOM     20  C   UNL     1      45.054   3.660  12.054  0.00  0.00    +0.000 A 
ATOM     21  N   UNL     1      45.423   3.871  13.334  0.00  0.00    +0.000 NA
ATOM     22  C   UNL     1      45.960   5.086  13.614  0.00  0.00    +0.000 A 
ATOM     23  C   UNL     1      46.180   6.109  12.682  0.00  0.00    +0.000 A 
ATOM     24  C   UNL     1      45.783   5.831  11.369  0.00  0.00    +0.000 A 
BRANCH  19  26
ATOM     25  N   UNL     1      44.402   4.090   8.640  0.00  0.00    +0.000 NA
ATOM     26  C   UNL     1      44.760   4.316   9.722  0.00  0.00    +0.000 C 
ENDBRANCH  19  26
ENDBRANCH  17  23
ENDBRANCH   1  17
TORSDOF 5
ENDMDL
MODEL 8
REMARK VINA RESULT:    -6.154      3.001      7.184
REMARK INTER + INTRA:          -8.644
REMARK INTER:                  -8.150
REMARK INTRA:                  -0.494
REMARK UNBOUND:                -0.691
REMARK  Name = 
REMARK  5 active torsions:
REMARK  status: ('A' for Active; 'I' for Inactive)
REMARK    1  A    between atoms: C_2  and  C_3
REMARK    2  A    between atoms: C_7  and  N_8
REMARK    3  A    between atoms: N_8  and  C_9
REMARK    4  A    between atoms: C_9  and  C_10
REMARK    5  A    between atoms: C_14  and  C_15
REMARK                            x       y       z     vdW  Elec       q    Type
REMARK                         _______ _______ _______ _____ _____    ______ ____
ROOT
ATOM      1  C   UNL     1      48.837   8.182  12.857  0.00  0.00    +0.000 C 
ATOM      2  C   UNL     1      49.811   7.303  12.070  0.00  0.00    +0.000 C 
ATOM      3  C   UNL     1      49.783   8.773  11.831  0.00  0.00    +0.000 C 
ENDROOT
BRANCH   1   4
ATOM      4  C   UNL     1      47.367   8.058  12.471  0.00  0.00    +0.000 A 
ATOM      5  C   UNL     1      46.565   9.190  12.274  0.00  0.00    +0.000 A 
ATOM      6  C   UNL     1      45.264   9.071  11.791  0.00  0.00    +0.000 A 
ATOM      7  C   UNL     1      44.754   7.816  11.472  0.00  0.00    +0.000 A 
ATOM      8  C   UNL     1      45.517   6.657  11.650  0.00  0.00    +0.000 A 
ATOM      9  C   UNL     1      46.791   6.798  12.213  0.00  0.00    +0.000 A 
BRANCH   8  10
ATOM     10  C   UNL     1      45.078   5.279  11.165  0.00  0.00    +0.000 C 
ATOM     11  C   UNL     1      43.567   5.221  10.871  0.00  0.00    +0.000 C 
ATOM     12  C   UNL     1      42.724   5.056  12.134  0.00  0.00    +0.000 C 
ATOM     13  C   UNL     1      43.266   3.971  13.069  0.00  0.00    +0.000 C 
ATOM     14  N   UNL     1      44.701   4.073  13.327  0.00  0.00    +0.000 NA
ATOM     15  C   UNL     1      45.482   4.119  12.089  0.00  0.00    +0.000 C 
ATOM     16  H   UNL     1      45.011   3.284  13.894  0.00  0.00    +0.000 HD
ENDBRANCH   8  10
ENDBRANCH   1   4
BRANCH   1  17
ATOM     17  N   UNL     1      49.070   8.279  14.320  0.00  0.00    +0.000 N 
ATOM     18  H   UNL     1      49.734   9.019  14.545  0.00  0.00    +0.000 HD
BRANCH  17  23
ATOM     19  C   UNL     1      48.514   5.210  16.395  0.00  0.00    +0.000 A 
ATOM     20  C   UNL     1      49.779   5.114  16.951  0.00  0.00    +0.000 A 
ATOM     21  N   UNL     1      50.788   5.962  16.663  0.00  0.00    +0.000 NA
ATOM     22  C   UNL     1      50.507   6.957  15.784  0.00  0.00    +0.000 A 
ATOM     23  C   UNL     1      49.275   7.151  15.145  0.00  0.00    +0.000 A 
ATOM     24  C   UNL     1      48.268   6.238  15.478  0.00  0.00    +0.000 A 
BRANCH  19  26
ATOM     25  N   UNL     1      46.643   3.561  17.082  0.00  0.00    +0.000 NA
ATOM     26  C   UNL     1      47.486   4.299  16.776  0.00  0.00    +0.000 C 
ENDBRANCH  19  26
ENDBRANCH  17  23
ENDBRANCH   1  17
TORSDOF 5
ENDMDL
MODEL 9
REMARK VINA RESULT:    -6.035      2.949      8.024
REMARK INTER + INTRA:          -8.490
REMARK INTER:                  -7.451
REMARK INTRA:                  -1.039
REMARK UNBOUND:                -0.691
REMARK  Name = 
REMARK  5 active torsions:
REMARK  status: ('A' for Active; 'I' for Inactive)
REMARK    1  A    between atoms: C_2  and  C_3
REMARK    2  A    between atoms: C_7  and  N_8
REMARK    3  A    between atoms: N_8  and  C_9
REMARK    4  A    between atoms: C_9  and  C_10
REMARK    5  A    between atoms: C_14  and  C_15
REMARK                            x       y       z     vdW  Elec       q    Type
REMARK                         _______ _______ _______ _____ _____    ______ ____
ROOT
ATOM      1  C   UNL     1      49.107   7.826  12.638  0.00  0.00    +0.000 C 
ATOM      2  C   UNL     1      50.012   7.754  11.407  0.00  0.00    +0.000 C 
ATOM      3  C   UNL     1      49.882   9.036  12.154  0.00  0.00    +0.000 C 
ENDROOT
BRANCH   1   4
ATOM      4  C   UNL     1      47.606   7.795  12.366  0.00  0.00    +0.000 A 
ATOM      5  C   UNL     1      46.855   8.975  12.276  0.00  0.00    +0.000 A 
ATOM      6  C   UNL     1      45.517   8.944  11.894  0.00  0.00    +0.000 A 
ATOM      7  C   UNL     1      44.914   7.731  11.570  0.00  0.00    +0.000 A 
ATOM      8  C   UNL     1      45.624   6.527  11.642  0.00  0.00    +0.000 A 
ATOM      9  C   UNL     1      46.944   6.578  12.108  0.00  0.00    +0.000 A 
BRANCH   8  10
ATOM     10  C   UNL     1      45.074   5.195  11.142  0.00  0.00    +0.000 C 
ATOM     11  C   UNL     1      43.553   5.250  10.898  0.00  0.00    +0.000 C 
ATOM     12  C   UNL     1      42.742   5.113  12.186  0.00  0.00    +0.000 C 
ATOM     13  C   UNL     1      43.236   3.971  13.077  0.00  0.00    +0.000 C 
ATOM     14  N   UNL     1      44.683   3.966  13.289  0.00  0.00    +0.000 NA
ATOM     15  C   UNL     1      45.425   3.988  12.027  0.00  0.00    +0.000 C 
ATOM     16  H   UNL     1      44.953   3.144  13.827  0.00  0.00    +0.000 HD
ENDBRANCH   8  10
ENDBRANCH   1   4
BRANCH   1  17
ATOM     17  N   UNL     1      49.523   7.017  13.812  0.00  0.00    +0.000 N 
ATOM     18  H   UNL     1      49.475   6.018  13.614  0.00  0.00    +0.000 HD
BRANCH  17  23
ATOM     19  C   UNL     1      48.442   8.784  16.933  0.00  0.00    +0.000 A 
ATOM     20  C   UNL     1      48.474   7.702  17.796  0.00  0.00    +0.000 A 
ATOM     21  N   UNL     1      48.792   6.449  17.411  0.00  0.00    +0.000 NA
ATOM     22  C   UNL     1      49.101   6.281  16.100  0.00  0.00    +0.000 A 
ATOM     23  C   UNL     1      49.091   7.290  15.129  0.00  0.00    +0.000 A 
ATOM     24  C   UNL     1      48.748   8.569  15.584  0.00  0.00    +0.000 A 
BRANCH  19  26
ATOM     25  N   UNL     1      47.874  11.150  17.813  0.00  0.00    +0.000 NA
ATOM     26  C   UNL     1      48.133  10.088  17.420  0.00  0.00    +0.000 C 
ENDBRANCH  19  26
ENDBRANCH  17  23
ENDBRANCH   1  17
TORSDOF 5
ENDMDL
