MODEL 1
REMARK VINA RESULT:    -6.418      0.000      0.000
REMARK INTER + INTRA:          -8.451
REMARK INTER:                  -8.106
REMARK INTRA:                  -0.345
REMARK UNBOUND:                -0.345
REMARK  Name = 
REMARK  5 active torsions:
REMARK  status: ('A' for Active; 'I' for Inactive)
REMARK    1  A    between atoms: N_1  and  C_2
REMARK    2  A    between atoms: C_2  and  C_3
REMARK    3  A    between atoms: C_7  and  C_8
REMARK    4  A    between atoms: C_9  and  N_10
REMARK    5  A    between atoms: C_14  and  C_15
REMARK                            x       y       z     vdW  Elec       q    Type
REMARK                         _______ _______ _______ _____ _____    ______ ____
ROOT
ATOM      1  N   UNL     1      45.488   6.768  11.487  0.00  0.00    +0.000 N 
ATOM      2  C   UNL     1      46.607   7.380  12.082  0.00  0.00    +0.000 A 
ATOM      3  C   UNL     1      47.883   7.323  11.532  0.00  0.00    +0.000 A 
ATOM      4  C   UNL     1      48.956   7.916  12.194  0.00  0.00    +0.000 A 
ATOM      5  C   UNL     1      48.745   8.576  13.400  0.00  0.00    +0.000 A 
ATOM      6  C   UNL     1      47.442   8.616  13.870  0.00  0.00    +0.000 A 
ATOM      7  N   UNL     1      46.378   8.037  13.242  0.00  0.00    +0.000 NA
ATOM      8  H   UNL     1      44.734   6.842  12.170  0.00  0.00    +0.000 HD
ENDROOT
BRANCH   5   9
ATOM      9  C   UNL     1      49.916   9.171  14.089  0.00  0.00    +0.000 C 
ATOM     10  N   UNL     1      50.915   8.358  14.534  0.00  0.00    +0.000 N 
ATOM     11  O   UNL     1      50.002  10.383  14.255  0.00  0.00    +0.000 OA
ATOM     12  H   UNL     1      50.958   7.357  14.430  0.00  0.00    +0.000 HD
ATOM     13  H   UNL     1      51.699   8.819  14.978  0.00  0.00    +0.000 HD
ENDBRANCH   5   9
BRANCH   1  15
ATOM     14  C   UNL     1      45.462   5.359   9.476  0.00  0.00    +0.000 C 
ATOM     15  C   UNL     1      45.517   5.572  10.799  0.00  0.00    +0.000 C 
BRANCH  14  20
ATOM     16  C   UNL     1      46.617   2.755   6.995  0.00  0.00    +0.000 A 
ATOM     17  C   UNL     1      46.152   1.580   7.599  0.00  0.00    +0.000 A 
ATOM     18  C   UNL     1      45.438   1.636   8.795  0.00  0.00    +0.000 A 
ATOM     19  C   UNL     1      45.182   2.865   9.403  0.00  0.00    +0.000 A 
ATOM     20  C   UNL     1      45.623   4.057   8.814  0.00  0.00    +0.000 A 
ATOM     21  C   UNL     1      46.346   3.988   7.614  0.00  0.00    +0.000 A 
BRANCH  16  22
ATOM     22  C   UNL     1      47.380   2.699   5.696  0.00  0.00    +0.000 C 
BRANCH  22  23
ATOM     23  N   UNL     1      48.533   1.812   5.783  0.00  0.00    +0.000 NA
ATOM     24  H   UNL     1      48.318   0.939   5.306  0.00  0.00    +0.000 HD
ATOM     25  H   UNL     1      48.691   1.574   6.761  0.00  0.00    +0.000 HD
ENDBRANCH  22  23
ENDBRANCH  16  22
ENDBRANCH  14  20
ENDBRANCH   1  15
TORSDOF 5
ENDMDL
MODEL 2
REMARK VINA RESULT:    -6.124      5.273      9.422
REMARK INTER + INTRA:          -8.081
REMARK INTER:                  -7.761
REMARK INTRA:                  -0.320
REMARK UNBOUND:                -0.345
REMARK  Name = 
REMARK  5 active torsions:
REMARK  status: ('A' for Active; 'I' for Inactive)
REMARK    1  A    between atoms: N_1  and  C_2
REMARK    2  A    between atoms: C_2  and  C_3
REMARK    3  A    between atoms: C_7  and  C_8
REMARK    4  A    between atoms: C_9  and  N_10
REMARK    5  A    between atoms: C_14  and  C_15
REMARK                            x       y       z     vdW  Elec       q    Type
REMARK                         _______ _______ _______ _____ _____    ______ ____
ROOT
ATOM      1  N   UNL     1      47.262   3.458  14.675  0.00  0.00    +0.000 N 
ATOM      2  C   UNL     1      46.422   3.893  13.632  0.00  0.00    +0.000 A 
ATOM      3  C   UNL     1      46.202   5.236  13.346  0.00  0.00    +0.000 A 
ATOM      4  C   UNL     1      45.326   5.599  12.325  0.00  0.00    +0.000 A 
ATOM      5  C   UNL     1      44.681   4.613  11.584  0.00  0.00    +0.000 A 
ATOM      6  C   UNL     1      44.973   3.298  11.909  0.00  0.00    +0.000 A 
ATOM      7  N   UNL     1      45.823   2.920  12.908  0.00  0.00    +0.000 NA
ATOM      8  H   UNL     1      47.118   2.451  14.747  0.00  0.00    +0.000 HD
ENDROOT
BRANCH   5   9
ATOM      9  C   UNL     1      43.736   5.038  10.524  0.00  0.00    +0.000 C 
ATOM     10  N   UNL     1      43.911   4.586   9.251  0.00  0.00    +0.000 N 
ATOM     11  O   UNL     1      42.795   5.783  10.779  0.00  0.00    +0.000 OA
ATOM     12  H   UNL     1      44.631   3.955   8.937  0.00  0.00    +0.000 HD
ATOM     13  H   UNL     1      43.224   4.891   8.572  0.00  0.00    +0.000 HD
ENDBRANCH   5   9
BRANCH   1  15
ATOM     14  C   UNL     1      47.954   3.642  17.023  0.00  0.00    +0.000 C 
ATOM     15  C   UNL     1      47.408   4.100  15.887  0.00  0.00    +0.000 C 
BRANCH  14  20
ATOM     16  C   UNL     1      47.897   6.557  19.425  0.00  0.00    +0.000 A 
ATOM     17  C   UNL     1      48.394   5.958  20.590  0.00  0.00    +0.000 A 
ATOM     18  C   UNL     1      48.775   4.617  20.588  0.00  0.00    +0.000 A 
ATOM     19  C   UNL     1      48.663   3.858  19.422  0.00  0.00    +0.000 A 
ATOM     20  C   UNL     1      48.182   4.434  18.240  0.00  0.00    +0.000 A 
ATOM     21  C   UNL     1      47.796   5.783  18.256  0.00  0.00    +0.000 A 
BRANCH  16  22
ATOM     22  C   UNL     1      47.494   8.010  19.423  0.00  0.00    +0.000 C 
BRANCH  22  23
ATOM     23  N   UNL     1      47.556   8.587  18.086  0.00  0.00    +0.000 NA
ATOM     24  H   UNL     1      48.362   9.207  18.029  0.00  0.00    +0.000 HD
ATOM     25  H   UNL     1      46.733   9.171  17.943  0.00  0.00    +0.000 HD
ENDBRANCH  22  23
ENDBRANCH  16  22
ENDBRANCH  14  20
ENDBRANCH   1  15
TORSDOF 5
ENDMDL
MODEL 3
REMARK VINA RESULT:    -6.122      5.509      9.605
REMARK INTER + INTRA:          -8.078
REMARK INTER:                  -7.794
REMARK INTRA:                  -0.284
REMARK UNBOUND:                -0.345
REMARK  Name = 
REMARK  5 active torsions:
REMARK  status: ('A' for Active; 'I' for Inactive)
REMARK    1  A    between atoms: N_1  and  C_2
REMARK    2  A    between atoms: C_2  and  C_3
REMARK    3  A    between atoms: C_7  and  C_8
REMARK    4  A    between atoms: C_9  and  N_10
REMARK    5  A    between atoms: C_14  and  C_15
REMARK                            x       y       z     vdW  Elec       q    Type
REMARK                         _______ _______ _______ _____ _____    ______ ____
ROOT
ATOM      1  N   UNL     1      47.236   3.538  14.728  0.00  0.00    +0.000 N 
ATOM      2  C   UNL     1      46.402   3.945  13.669  0.00  0.00    +0.000 A 
ATOM      3  C   UNL     1      46.154   5.281  13.371  0.00  0.00    +0.000 A 
ATOM      4  C   UNL     1      45.286   5.615  12.334  0.00  0.00    +0.000 A 
ATOM      5  C   UNL     1      44.678   4.609  11.589  0.00  0.00    +0.000 A 
ATOM      6  C   UNL     1      44.997   3.304  11.927  0.00  0.00    +0.000 A 
ATOM      7  N   UNL     1      45.839   2.953  12.942  0.00  0.00    +0.000 NA
ATOM      8  H   UNL     1      47.115   2.528  14.805  0.00  0.00    +0.000 HD
ENDROOT
BRANCH   5   9
ATOM      9  C   UNL     1      43.739   5.004  10.512  0.00  0.00    +0.000 C 
ATOM     10  N   UNL     1      43.945   4.546   9.245  0.00  0.00    +0.000 N 
ATOM     11  O   UNL     1      42.777   5.728  10.745  0.00  0.00    +0.000 OA
ATOM     12  H   UNL     1      44.684   3.930   8.947  0.00  0.00    +0.000 HD
ATOM     13  H   UNL     1      43.261   4.830   8.553  0.00  0.00    +0.000 HD
ENDBRANCH   5   9
BRANCH   1  15
ATOM     14  C   UNL     1      47.804   3.724  17.110  0.00  0.00    +0.000 C 
ATOM     15  C   UNL     1      47.346   4.191  15.939  0.00  0.00    +0.000 C 
BRANCH  14  20
ATOM     16  C   UNL     1      49.487   5.199  20.153  0.00  0.00    +0.000 A 
ATOM     17  C   UNL     1      48.548   6.162  20.542  0.00  0.00    +0.000 A 
ATOM     18  C   UNL     1      47.356   6.312  19.836  0.00  0.00    +0.000 A 
ATOM     19  C   UNL     1      47.089   5.503  18.731  0.00  0.00    +0.000 A 
ATOM     20  C   UNL     1      48.004   4.523  18.327  0.00  0.00    +0.000 A 
ATOM     21  C   UNL     1      49.203   4.386  19.042  0.00  0.00    +0.000 A 
BRANCH  16  22
ATOM     22  C   UNL     1      50.773   5.028  20.921  0.00  0.00    +0.000 C 
BRANCH  22  23
ATOM     23  N   UNL     1      51.758   4.261  20.168  0.00  0.00    +0.000 NA
ATOM     24  H   UNL     1      51.951   3.392  20.662  0.00  0.00    +0.000 HD
ATOM     25  H   UNL     1      52.633   4.782  20.148  0.00  0.00    +0.000 HD
ENDBRANCH  22  23
ENDBRANCH  16  22
ENDBRANCH  14  20
ENDBRANCH   1  15
TORSDOF 5
ENDMDL
MODEL 4
REMARK VINA RESULT:    -6.116      5.281      6.938
REMARK INTER + INTRA:          -8.071
REMARK INTER:                  -7.743
REMARK INTRA:                  -0.328
REMARK UNBOUND:                -0.345
REMARK  Name = 
REMARK  5 active torsions:
REMARK  status: ('A' for Active; 'I' for Inactive)
REMARK    1  A    between atoms: N_1  and  C_2
REMARK    2  A    between atoms: C_2  and  C_3
REMARK    3  A    between atoms: C_7  and  C_8
REMARK    4  A    between atoms: C_9  and  N_10
REMARK    5  A    between atoms: C_14  and  C_15
REMARK                            x       y       z     vdW  Elec       q    Type
REMARK                         _______ _______ _______ _____ _____    ______ ____
ROOT
ATOM      1  N   UNL     1      47.482   3.239  16.037  0.00  0.00    +0.000 N 
ATOM      2  C   UNL     1      48.766   3.237  16.614  0.00  0.00    +0.000 A 
ATOM      3  C   UNL     1      49.387   4.388  17.087  0.00  0.00    +0.000 A 
ATOM      4  C   UNL     1      50.676   4.321  17.610  0.00  0.00    +0.000 A 
ATOM      5  C   UNL     1      51.336   3.098  17.671  0.00  0.00    +0.000 A 
ATOM      6  C   UNL     1      50.642   1.992  17.208  0.00  0.00    +0.000 A 
ATOM      7  N   UNL     1      49.381   2.034  16.687  0.00  0.00    +0.000 NA
ATOM      8  H   UNL     1      47.347   2.304  15.653  0.00  0.00    +0.000 HD
ENDROOT
BRANCH   5   9
ATOM      9  C   UNL     1      52.717   3.072  18.209  0.00  0.00    +0.000 C 
ATOM     10  N   UNL     1      53.155   1.966  18.874  0.00  0.00    +0.000 N 
ATOM     11  O   UNL     1      53.473   4.026  18.057  0.00  0.00    +0.000 OA
ATOM     12  H   UNL     1      52.631   1.121  19.035  0.00  0.00    +0.000 HD
ATOM     13  H   UNL     1      54.113   1.995  19.202  0.00  0.00    +0.000 HD
ENDBRANCH   5   9
BRANCH   1  15
ATOM     14  C   UNL     1      47.071   4.424  13.926  0.00  0.00    +0.000 C 
ATOM     15  C   UNL     1      46.974   4.255  15.253  0.00  0.00    +0.000 C 
BRANCH  14  20
ATOM     16  C   UNL     1      44.469   6.145  11.797  0.00  0.00    +0.000 A 
ATOM     17  C   UNL     1      44.935   7.465  11.812  0.00  0.00    +0.000 A 
ATOM     18  C   UNL     1      46.109   7.792  12.490  0.00  0.00    +0.000 A 
ATOM     19  C   UNL     1      46.830   6.803  13.159  0.00  0.00    +0.000 A 
ATOM     20  C   UNL     1      46.395   5.472  13.148  0.00  0.00    +0.000 A 
ATOM     21  C   UNL     1      45.208   5.157  12.470  0.00  0.00    +0.000 A 
BRANCH  16  22
ATOM     22  C   UNL     1      43.204   5.788  11.057  0.00  0.00    +0.000 C 
BRANCH  22  23
ATOM     23  N   UNL     1      42.012   6.166  11.806  0.00  0.00    +0.000 NA
ATOM     24  H   UNL     1      41.237   5.573  11.519  0.00  0.00    +0.000 HD
ATOM     25  H   UNL     1      41.755   7.119  11.552  0.00  0.00    +0.000 HD
ENDBRANCH  22  23
ENDBRANCH  16  22
ENDBRANCH  14  20
ENDBRANCH   1  15
TORSDOF 5
ENDMDL
MODEL 5
REMARK VINA RESULT:    -6.008      4.910      8.506
REMARK INTER + INTRA:          -7.934
REMARK INTER:                  -7.561
REMARK INTRA:                  -0.373
REMARK UNBOUND:                -0.345
REMARK  Name = 
REMARK  5 active torsions:
REMARK  status: ('A' for Active; 'I' for Inactive)
REMARK    1  A    between atoms: N_1  and  C_2
REMARK    2  A    between atoms: C_2  and  C_3
REMARK    3  A    between atoms: C_7  and  C_8
REMARK    4  A    between atoms: C_9  and  N_10
REMARK    5  A    between atoms: C_14  and  C_15
REMARK                            x       y       z     vdW  Elec       q    Type
REMARK                         _______ _______ _______ _____ _____    ______ ____
ROOT
ATOM      1  N   UNL     1      47.509   6.829  13.987  0.00  0.00    +0.000 N 
ATOM      2  C   UNL     1      46.584   6.161  13.162  0.00  0.00    +0.000 A 
ATOM      3  C   UNL     1      45.897   5.021  13.564  0.00  0.00    +0.000 A 
ATOM      4  C   UNL     1      45.024   4.385  12.683  0.00  0.00    +0.000 A 
ATOM      5  C   UNL     1      44.831   4.902  11.406  0.00  0.00    +0.000 A 
ATOM      6  C   UNL     1      45.528   6.057  11.090  0.00  0.00    +0.000 A 
ATOM      7  N   UNL     1      46.392   6.693  11.934  0.00  0.00    +0.000 NA
ATOM      8  H   UNL     1      47.959   7.525  13.393  0.00  0.00    +0.000 HD
ENDROOT
BRANCH   5   9
ATOM      9  C   UNL     1      43.916   4.182  10.489  0.00  0.00    +0.000 C 
ATOM     10  N   UNL     1      43.914   4.497   9.163  0.00  0.00    +0.000 N 
ATOM     11  O   UNL     1      43.168   3.304  10.904  0.00  0.00    +0.000 OA
ATOM     12  H   UNL     1      44.501   5.181   8.712  0.00  0.00    +0.000 HD
ATOM     13  H   UNL     1      43.284   3.960   8.579  0.00  0.00    +0.000 HD
ENDBRANCH   5   9
BRANCH   1  15
ATOM     14  C   UNL     1      48.582   6.498  16.170  0.00  0.00    +0.000 C 
ATOM     15  C   UNL     1      48.358   6.208  14.880  0.00  0.00    +0.000 C 
BRANCH  14  20
ATOM     16  C   UNL     1      50.474   3.566  17.618  0.00  0.00    +0.000 A 
ATOM     17  C   UNL     1      51.154   4.179  18.678  0.00  0.00    +0.000 A 
ATOM     18  C   UNL     1      50.977   5.537  18.940  0.00  0.00    +0.000 A 
ATOM     19  C   UNL     1      50.119   6.298  18.146  0.00  0.00    +0.000 A 
ATOM     20  C   UNL     1      49.414   5.708  17.089  0.00  0.00    +0.000 A 
ATOM     21  C   UNL     1      49.606   4.343  16.831  0.00  0.00    +0.000 A 
BRANCH  16  22
ATOM     22  C   UNL     1      50.656   2.096  17.339  0.00  0.00    +0.000 C 
BRANCH  22  23
ATOM     23  N   UNL     1      49.853   1.655  16.205  0.00  0.00    +0.000 NA
ATOM     24  H   UNL     1      50.280   0.826  15.797  0.00  0.00    +0.000 HD
ATOM     25  H   UNL     1      49.878   2.376  15.487  0.00  0.00    +0.000 HD
ENDBRANCH  22  23
ENDBRANCH  16  22
ENDBRANCH  14  20
ENDBRANCH   1  15
TORSDOF 5
ENDMDL
MODEL 6
REMARK VINA RESULT:    -5.989      4.422      8.338
REMARK INTER + INTRA:          -7.910
REMARK INTER:                  -7.611
REMARK INTRA:                  -0.300
REMARK UNBOUND:                -0.345
REMARK  Name = 
REMARK  5 active torsions:
REMARK  status: ('A' for Active; 'I' for Inactive)
REMARK    1  A    between atoms: N_1  and  C_2
REMARK    2  A    between atoms: C_2  and  C_3
REMARK    3  A    between atoms: C_7  and  C_8
REMARK    4  A    between atoms: C_9  and  N_10
REMARK    5  A    between atoms: C_14  and  C_15
REMARK                            x       y       z     vdW  Elec       q    Type
REMARK                         _______ _______ _______ _____ _____    ______ ____
ROOT
ATOM      1  N   UNL     1      44.401   5.001  10.983  0.00  0.00    +0.000 N 
ATOM      2  C   UNL     1      45.035   4.389   9.884  0.00  0.00    +0.000 A 
ATOM      3  C   UNL     1      45.905   5.068   9.038  0.00  0.00    +0.000 A 
ATOM      4  C   UNL     1      46.469   4.413   7.945  0.00  0.00    +0.000 A 
ATOM      5  C   UNL     1      46.169   3.075   7.710  0.00  0.00    +0.000 A 
ATOM      6  C   UNL     1      45.319   2.459   8.614  0.00  0.00    +0.000 A 
ATOM      7  N   UNL     1      44.751   3.082   9.687  0.00  0.00    +0.000 NA
ATOM      8  H   UNL     1      43.720   4.322  11.324  0.00  0.00    +0.000 HD
ENDROOT
BRANCH   5   9
ATOM      9  C   UNL     1      46.767   2.421   6.522  0.00  0.00    +0.000 C 
ATOM     10  N   UNL     1      46.970   3.149   5.388  0.00  0.00    +0.000 N 
ATOM     11  O   UNL     1      47.089   1.238   6.547  0.00  0.00    +0.000 OA
ATOM     12  H   UNL     1      46.766   4.128   5.265  0.00  0.00    +0.000 HD
ATOM     13  H   UNL     1      47.400   2.657   4.614  0.00  0.00    +0.000 HD
ENDBRANCH   5   9
BRANCH   1  15
ATOM     14  C   UNL     1      44.646   7.421  11.314  0.00  0.00    +0.000 C 
ATOM     15  C   UNL     1      43.962   6.309  11.009  0.00  0.00    +0.000 C 
BRANCH  14  20
ATOM     16  C   UNL     1      42.221  10.282  10.859  0.00  0.00    +0.000 A 
ATOM     17  C   UNL     1      43.036  11.379  11.164  0.00  0.00    +0.000 A 
ATOM     18  C   UNL     1      44.379  11.193  11.490  0.00  0.00    +0.000 A 
ATOM     19  C   UNL     1      44.923   9.909  11.514  0.00  0.00    +0.000 A 
ATOM     20  C   UNL     1      44.135   8.794  11.199  0.00  0.00    +0.000 A 
ATOM     21  C   UNL     1      42.784   8.994  10.880  0.00  0.00    +0.000 A 
BRANCH  16  22
ATOM     22  C   UNL     1      40.771  10.481  10.497  0.00  0.00    +0.000 C 
BRANCH  22  23
ATOM     23  N   UNL     1      39.888   9.682  11.337  0.00  0.00    +0.000 NA
ATOM     24  H   UNL     1      39.247   9.160  10.743  0.00  0.00    +0.000 HD
ATOM     25  H   UNL     1      39.314  10.310  11.898  0.00  0.00    +0.000 HD
ENDBRANCH  22  23
ENDBRANCH  16  22
ENDBRANCH  14  20
ENDBRANCH   1  15
TORSDOF 5
ENDMDL
MODEL 7
REMARK VINA RESULT:    -5.777      4.763      9.094
REMARK INTER + INTRA:          -7.642
REMARK INTER:                  -7.336
REMARK INTRA:                  -0.306
REMARK UNBOUND:                -0.345
REMARK  Name = 
REMARK  5 active torsions:
REMARK  status: ('A' for Active; 'I' for Inactive)
REMARK    1  A    between atoms: N_1  and  C_2
REMARK    2  A    between atoms: C_2  and  C_3
REMARK    3  A    between atoms: C_7  and  C_8
REMARK    4  A    between atoms: C_9  and  N_10
REMARK    5  A    between atoms: C_14  and  C_15
REMARK                            x       y       z     vdW  Elec       q    Type
REMARK                         _______ _______ _______ _____ _____    ______ ____
ROOT
ATOM      1  N   UNL     1      47.574   6.945  13.577  0.00  0.00    +0.000 N 
ATOM      2  C   UNL     1      46.675   6.232  12.761  0.00  0.00    +0.000 A 
ATOM      3  C   UNL     1      45.861   5.213  13.242  0.00  0.00    +0.000 A 
ATOM      4  C   UNL     1      45.022   4.519  12.371  0.00  0.00    +0.000 A 
ATOM      5  C   UNL     1      44.992   4.859  11.023  0.00  0.00    +0.000 A 
ATOM      6  C   UNL     1      45.810   5.904  10.624  0.00  0.00    +0.000 A 
ATOM      7  N   UNL     1      46.643   6.593  11.458  0.00  0.00    +0.000 NA
ATOM      8  H   UNL     1      48.134   7.514  12.942  0.00  0.00    +0.000 HD
ENDROOT
BRANCH   5   9
ATOM      9  C   UNL     1      44.107   4.080  10.123  0.00  0.00    +0.000 C 
ATOM     10  N   UNL     1      44.052   4.399   8.799  0.00  0.00    +0.000 N 
ATOM     11  O   UNL     1      43.433   3.150  10.551  0.00  0.00    +0.000 OA
ATOM     12  H   UNL     1      44.578   5.124   8.339  0.00  0.00    +0.000 HD
ATOM     13  H   UNL     1      43.447   3.822   8.228  0.00  0.00    +0.000 HD
ENDBRANCH   5   9
BRANCH   1  15
ATOM     14  C   UNL     1      48.796   7.015  15.705  0.00  0.00    +0.000 C 
ATOM     15  C   UNL     1      48.282   6.401  14.629  0.00  0.00    +0.000 C 
BRANCH  14  20
ATOM     16  C   UNL     1      49.205   5.366  19.079  0.00  0.00    +0.000 A 
ATOM     17  C   UNL     1      50.516   4.883  18.988  0.00  0.00    +0.000 A 
ATOM     18  C   UNL     1      51.277   5.118  17.843  0.00  0.00    +0.000 A 
ATOM     19  C   UNL     1      50.737   5.836  16.777  0.00  0.00    +0.000 A 
ATOM     20  C   UNL     1      49.433   6.343  16.847  0.00  0.00    +0.000 A 
ATOM     21  C   UNL     1      48.675   6.095  18.001  0.00  0.00    +0.000 A 
BRANCH  16  22
ATOM     22  C   UNL     1      48.383   5.122  20.320  0.00  0.00    +0.000 C 
BRANCH  22  23
ATOM     23  N   UNL     1      48.354   3.710  20.681  0.00  0.00    +0.000 NA
ATOM     24  H   UNL     1      48.436   3.624  21.692  0.00  0.00    +0.000 HD
ATOM     25  H   UNL     1      49.174   3.253  20.286  0.00  0.00    +0.000 HD
ENDBRANCH  22  23
ENDBRANCH  16  22
ENDBRANCH  14  20
ENDBRANCH   1  15
TORSDOF 5
ENDMDL
MODEL 8
REMARK VINA RESULT:    -5.641      4.478      5.486
REMARK INTER + INTRA:          -7.470
REMARK INTER:                  -7.184
REMARK INTRA:                  -0.286
REMARK UNBOUND:                -0.345
REMARK  Name = 
REMARK  5 active torsions:
REMARK  status: ('A' for Active; 'I' for Inactive)
REMARK    1  A    between atoms: N_1  and  C_2
REMARK    2  A    between atoms: C_2  and  C_3
REMARK    3  A    between atoms: C_7  and  C_8
REMARK    4  A    between atoms: C_9  and  N_10
REMARK    5  A    between atoms: C_14  and  C_15
REMARK                            x       y       z     vdW  Elec       q    Type
REMARK                         _______ _______ _______ _____ _____    ______ ____
ROOT
ATOM      1  N   UNL     1      48.173   6.106  14.747  0.00  0.00    +0.000 N 
ATOM      2  C   UNL     1      48.470   5.729  16.071  0.00  0.00    +0.000 A 
ATOM      3  C   UNL     1      48.215   4.456  16.571  0.00  0.00    +0.000 A 
ATOM      4  C   UNL     1      48.496   4.160  17.903  0.00  0.00    +0.000 A 
ATOM      5  C   UNL     1      49.046   5.137  18.728  0.00  0.00    +0.000 A 
ATOM      6  C   UNL     1      49.299   6.371  18.150  0.00  0.00    +0.000 A 
ATOM      7  N   UNL     1      49.026   6.684  16.850  0.00  0.00    +0.000 NA
ATOM      8  H   UNL     1      48.323   7.114  14.705  0.00  0.00    +0.000 HD
ENDROOT
BRANCH   5   9
ATOM      9  C   UNL     1      49.306   4.793  20.146  0.00  0.00    +0.000 C 
ATOM     10  N   UNL     1      48.493   3.899  20.778  0.00  0.00    +0.000 N 
ATOM     11  O   UNL     1      50.245   5.293  20.756  0.00  0.00    +0.000 OA
ATOM     12  H   UNL     1      47.711   3.413  20.368  0.00  0.00    +0.000 HD
ATOM     13  H   UNL     1      48.729   3.686  21.739  0.00  0.00    +0.000 HD
ENDBRANCH   5   9
BRANCH   1  15
ATOM     14  C   UNL     1      46.218   6.369  13.286  0.00  0.00    +0.000 C 
ATOM     15  C   UNL     1      47.082   5.662  14.029  0.00  0.00    +0.000 C 
BRANCH  14  20
ATOM     16  C   UNL     1      44.511   4.664  10.379  0.00  0.00    +0.000 A 
ATOM     17  C   UNL     1      43.209   4.520  10.876  0.00  0.00    +0.000 A 
ATOM     18  C   UNL     1      42.879   5.002  12.142  0.00  0.00    +0.000 A 
ATOM     19  C   UNL     1      43.845   5.633  12.926  0.00  0.00    +0.000 A 
ATOM     20  C   UNL     1      45.150   5.803  12.449  0.00  0.00    +0.000 A 
ATOM     21  C   UNL     1      45.473   5.308  11.177  0.00  0.00    +0.000 A 
BRANCH  16  22
ATOM     22  C   UNL     1      44.868   4.153   9.007  0.00  0.00    +0.000 C 
BRANCH  22  23
ATOM     23  N   UNL     1      45.826   5.023   8.336  0.00  0.00    +0.000 NA
ATOM     24  H   UNL     1      46.444   5.436   9.032  0.00  0.00    +0.000 HD
ATOM     25  H   UNL     1      45.321   5.795   7.904  0.00  0.00    +0.000 HD
ENDBRANCH  22  23
ENDBRANCH  16  22
ENDBRANCH  14  20
ENDBRANCH   1  15
TORSDOF 5
ENDMDL
MODEL 9
REMARK VINA RESULT:    -5.578      2.817      3.585
REMARK INTER + INTRA:          -7.391
REMARK INTER:                  -7.489
REMARK INTRA:                   0.098
REMARK UNBOUND:                -0.345
REMARK  Name = 
REMARK  5 active torsions:
REMARK  status: ('A' for Active; 'I' for Inactive)
REMARK    1  A    between atoms: N_1  and  C_2
REMARK    2  A    between atoms: C_2  and  C_3
REMARK    3  A    between atoms: C_7  and  C_8
REMARK    4  A    between atoms: C_9  and  N_10
REMARK    5  A    between atoms: C_14  and  C_15
REMARK                            x       y       z     vdW  Elec       q    Type
REMARK                         _______ _______ _______ _____ _____    ______ ____
ROOT
ATOM      1  N   UNL     1      45.370   6.461  12.547  0.00  0.00    +0.000 N 
ATOM      2  C   UNL     1      45.099   7.787  12.157  0.00  0.00    +0.000 A 
ATOM      3  C   UNL     1      44.238   8.109  11.113  0.00  0.00    +0.000 A 
ATOM      4  C   UNL     1      44.046   9.440  10.752  0.00  0.00    +0.000 A 
ATOM      5  C   UNL     1      44.706  10.448  11.447  0.00  0.00    +0.000 A 
ATOM      6  C   UNL     1      45.524  10.051  12.493  0.00  0.00    +0.000 A 
ATOM      7  N   UNL     1      45.732   8.753  12.860  0.00  0.00    +0.000 NA
ATOM      8  H   UNL     1      46.133   6.520  13.221  0.00  0.00    +0.000 HD
ENDROOT
BRANCH   5   9
ATOM      9  C   UNL     1      44.497  11.851  11.016  0.00  0.00    +0.000 C 
ATOM     10  N   UNL     1      44.006  12.758  11.907  0.00  0.00    +0.000 N 
ATOM     11  O   UNL     1      44.766  12.208   9.874  0.00  0.00    +0.000 OA
ATOM     12  H   UNL     1      43.774  12.581  12.871  0.00  0.00    +0.000 HD
ATOM     13  H   UNL     1      43.902  13.706  11.565  0.00  0.00    +0.000 HD
ENDBRANCH   5   9
BRANCH   1  15
ATOM     14  C   UNL     1      44.849   5.210  10.500  0.00  0.00    +0.000 C 
ATOM     15  C   UNL     1      45.455   5.389  11.683  0.00  0.00    +0.000 C 
BRANCH  14  20
ATOM     16  C   UNL     1      46.170   3.260   7.546  0.00  0.00    +0.000 A 
ATOM     17  C   UNL     1      45.767   1.960   7.877  0.00  0.00    +0.000 A 
ATOM     18  C   UNL     1      45.041   1.721   9.043  0.00  0.00    +0.000 A 
ATOM     19  C   UNL     1      44.711   2.777   9.893  0.00  0.00    +0.000 A 
ATOM     20  C   UNL     1      45.089   4.089   9.580  0.00  0.00    +0.000 A 
ATOM     21  C   UNL     1      45.825   4.316   8.408  0.00  0.00    +0.000 A 
BRANCH  16  22
ATOM     22  C   UNL     1      46.946   3.523   6.281  0.00  0.00    +0.000 C 
BRANCH  22  23
ATOM     23  N   UNL     1      48.229   2.830   6.278  0.00  0.00    +0.000 NA
ATOM     24  H   UNL     1      48.774   3.143   5.477  0.00  0.00    +0.000 HD
ATOM     25  H   UNL     1      48.063   1.835   6.141  0.00  0.00    +0.000 HD
ENDBRANCH  22  23
ENDBRANCH  16  22
ENDBRANCH  14  20
ENDBRANCH   1  15
TORSDOF 5
ENDMDL
