MODEL 1
REMARK VINA RESULT:    -7.997      0.000      0.000
REMARK INTER + INTRA:         -14.671
REMARK INTER:                 -13.373
REMARK INTRA:                  -1.299
REMARK UNBOUND:                -1.299
REMARK  Name = 
REMARK  13 active torsions:
REMARK  status: ('A' for Active; 'I' for Inactive)
REMARK    1  A    between atoms: C_1  and  O_2
REMARK    2  A    between atoms: O_2  and  C_3
REMARK    3  A    between atoms: C_7  and  C_8
REMARK    4  A    between atoms: C_8  and  N_9
REMARK    5  A    between atoms: N_9  and  C_10
REMARK    6  A    between atoms: C_10  and  C_11
REMARK    7  A    between atoms: C_14  and  C_15
REMARK    8  A    between atoms: C_15  and  N_16
REMARK    9  A    between atoms: N_16  and  C_17
REMARK   10  A    between atoms: N_16  and  C_20
REMARK   11  A    between atoms: C_17  and  C_18
REMARK   12  A    between atoms: C_18  and  O_19
REMARK   13  A    between atoms: C_20  and  C_21
REMARK                            x       y       z     vdW  Elec       q    Type
REMARK                         _______ _______ _______ _____ _____    ______ ____
ROOT
ATOM      1  C   UNL     1      48.081   6.556  13.757  0.00  0.00    +0.000 A 
ATOM      2  C   UNL     1      47.274   5.414  13.850  0.00  0.00    +0.000 A 
ATOM      3  C   UNL     1      46.306   5.155  12.884  0.00  0.00    +0.000 A 
ATOM      4  C   UNL     1      46.105   6.055  11.831  0.00  0.00    +0.000 A 
ATOM      5  C   UNL     1      46.974   7.143  11.683  0.00  0.00    +0.000 A 
ATOM      6  C   UNL     1      47.955   7.394  12.642  0.00  0.00    +0.000 A 
ENDROOT
BRANCH   1   7
ATOM      7  C   UNL     1      49.049   6.890  14.867  0.00  0.00    +0.000 C 
BRANCH   7   8
ATOM      8  N   UNL     1      48.397   7.226  16.128  0.00  0.00    +0.000 NA
ATOM      9  H   UNL     1      48.474   8.229  16.282  0.00  0.00    +0.000 HD
BRANCH   8  10
ATOM     10  C   UNL     1      49.001   6.518  17.255  0.00  0.00    +0.000 C 
BRANCH  10  15
ATOM     11  C   UNL     1      49.135   2.723  17.098  0.00  0.00    +0.000 A 
ATOM     12  C   UNL     1      47.775   2.472  17.218  0.00  0.00    +0.000 A 
ATOM     13  N   UNL     1      46.825   3.427  17.375  0.00  0.00    +0.000 NA
ATOM     14  C   UNL     1      47.262   4.706  17.397  0.00  0.00    +0.000 A 
ATOM     15  C   UNL     1      48.594   5.075  17.251  0.00  0.00    +0.000 A 
ATOM     16  C   UNL     1      49.544   4.055  17.117  0.00  0.00    +0.000 A 
BRANCH  11  18
ATOM     17  C   UNL     1      51.311   1.812  17.330  0.00  0.00    +0.000 C 
ATOM     18  O   UNL     1      49.948   1.636  16.957  0.00  0.00    +0.000 OA
ENDBRANCH  11  18
ENDBRANCH  10  15
ENDBRANCH   8  10
ENDBRANCH   7   8
ENDBRANCH   1   7
BRANCH   4  19
ATOM     19  C   UNL     1      44.918   5.894  10.910  0.00  0.00    +0.000 C 
BRANCH  19  20
ATOM     20  N   UNL     1      44.553   4.473  10.663  0.00  0.00    +0.000 NA
BRANCH  20  21
ATOM     21  C   UNL     1      43.344   4.089  11.435  0.00  0.00    +0.000 C 
BRANCH  21  22
ATOM     22  C   UNL     1      42.480   5.262  11.941  0.00  0.00    +0.000 C 
BRANCH  22  23
ATOM     23  O   UNL     1      42.592   5.394  13.357  0.00  0.00    +0.000 OA
ATOM     24  H   UNL     1      42.136   6.215  13.608  0.00  0.00    +0.000 HD
ENDBRANCH  22  23
ENDBRANCH  21  22
ENDBRANCH  20  21
BRANCH  20  25
ATOM     25  C   UNL     1      44.323   4.275   9.219  0.00  0.00    +0.000 C 
BRANCH  25  26
ATOM     26  C   UNL     1      45.337   3.379   8.543  0.00  0.00    +0.000 A 
ATOM     27  C   UNL     1      45.398   2.009   8.843  0.00  0.00    +0.000 A 
ATOM     28  C   UNL     1      46.272   1.174   8.149  0.00  0.00    +0.000 A 
ATOM     29  C   UNL     1      47.099   1.700   7.156  0.00  0.00    +0.000 A 
ATOM     30  C   UNL     1      47.070   3.064   6.873  0.00  0.00    +0.000 A 
ATOM     31  C   UNL     1      46.194   3.901   7.563  0.00  0.00    +0.000 A 
ENDBRANCH  25  26
ENDBRANCH  20  25
ENDBRANCH  19  20
ENDBRANCH   4  19
TORSDOF 12
ENDMDL
MODEL 2
REMARK VINA RESULT:    -7.220      1.865      2.205
REMARK INTER + INTRA:         -13.373
REMARK INTER:                 -11.628
REMARK INTRA:                  -1.744
REMARK UNBOUND:                -1.299
REMARK  Name = 
REMARK  13 active torsions:
REMARK  status: ('A' for Active; 'I' for Inactive)
REMARK    1  A    between atoms: C_1  and  O_2
REMARK    2  A    between atoms: O_2  and  C_3
REMARK    3  A    between atoms: C_7  and  C_8
REMARK    4  A    between atoms: C_8  and  N_9
REMARK    5  A    between atoms: N_9  and  C_10
REMARK    6  A    between atoms: C_10  and  C_11
REMARK    7  A    between atoms: C_14  and  C_15
REMARK    8  A    between atoms: C_15  and  N_16
REMARK    9  A    between atoms: N_16  and  C_17
REMARK   10  A    between atoms: N_16  and  C_20
REMARK   11  A    between atoms: C_17  and  C_18
REMARK   12  A    between atoms: C_18  and  O_19
REMARK   13  A    between atoms: C_20  and  C_21
REMARK                            x       y       z     vdW  Elec       q    Type
REMARK                         _______ _______ _______ _____ _____    ______ ____
ROOT
ATOM      1  C   UNL     1      47.751   8.130  12.968  0.00  0.00    +0.000 A 
ATOM      2  C   UNL     1      47.798   6.897  12.304  0.00  0.00    +0.000 A 
ATOM      3  C   UNL     1      46.660   6.386  11.686  0.00  0.00    +0.000 A 
ATOM      4  C   UNL     1      45.449   7.084  11.756  0.00  0.00    +0.000 A 
ATOM      5  C   UNL     1      45.425   8.360  12.334  0.00  0.00    +0.000 A 
ATOM      6  C   UNL     1      46.568   8.879  12.938  0.00  0.00    +0.000 A 
ENDROOT
BRANCH   1   7
ATOM      7  C   UNL     1      48.957   8.624  13.732  0.00  0.00    +0.000 C 
BRANCH   7   8
ATOM      8  N   UNL     1      49.690   7.562  14.414  0.00  0.00    +0.000 NA
ATOM      9  H   UNL     1      49.308   6.663  14.126  0.00  0.00    +0.000 HD
BRANCH   8  10
ATOM     10  C   UNL     1      49.591   7.683  15.867  0.00  0.00    +0.000 C 
BRANCH  10  15
ATOM     11  C   UNL     1      47.521   4.510  16.178  0.00  0.00    +0.000 A 
ATOM     12  C   UNL     1      47.421   4.474  17.562  0.00  0.00    +0.000 A 
ATOM     13  N   UNL     1      47.992   5.374  18.400  0.00  0.00    +0.000 NA
ATOM     14  C   UNL     1      48.690   6.374  17.818  0.00  0.00    +0.000 A 
ATOM     15  C   UNL     1      48.827   6.528  16.442  0.00  0.00    +0.000 A 
ATOM     16  C   UNL     1      48.242   5.562  15.615  0.00  0.00    +0.000 A 
BRANCH  11  18
ATOM     17  C   UNL     1      47.025   3.535  14.075  0.00  0.00    +0.000 C 
ATOM     18  O   UNL     1      46.889   3.514  15.492  0.00  0.00    +0.000 OA
ENDBRANCH  11  18
ENDBRANCH  10  15
ENDBRANCH   8  10
ENDBRANCH   7   8
ENDBRANCH   1   7
BRANCH   4  19
ATOM     19  C   UNL     1      44.170   6.436  11.281  0.00  0.00    +0.000 C 
BRANCH  19  20
ATOM     20  N   UNL     1      44.280   4.960  11.127  0.00  0.00    +0.000 NA
BRANCH  20  21
ATOM     21  C   UNL     1      43.423   4.253  12.111  0.00  0.00    +0.000 C 
BRANCH  21  22
ATOM     22  C   UNL     1      43.789   2.778  12.370  0.00  0.00    +0.000 C 
BRANCH  22  23
ATOM     23  O   UNL     1      42.843   1.909  11.747  0.00  0.00    +0.000 OA
ATOM     24  H   UNL     1      43.344   1.292  11.187  0.00  0.00    +0.000 HD
ENDBRANCH  22  23
ENDBRANCH  21  22
ENDBRANCH  20  21
BRANCH  20  25
ATOM     25  C   UNL     1      43.898   4.586   9.752  0.00  0.00    +0.000 C 
BRANCH  25  26
ATOM     26  C   UNL     1      44.961   3.823   8.994  0.00  0.00    +0.000 A 
ATOM     27  C   UNL     1      45.073   2.430   9.121  0.00  0.00    +0.000 A 
ATOM     28  C   UNL     1      45.995   1.724   8.349  0.00  0.00    +0.000 A 
ATOM     29  C   UNL     1      46.818   2.402   7.451  0.00  0.00    +0.000 A 
ATOM     30  C   UNL     1      46.737   3.789   7.341  0.00  0.00    +0.000 A 
ATOM     31  C   UNL     1      45.815   4.497   8.108  0.00  0.00    +0.000 A 
ENDBRANCH  25  26
ENDBRANCH  20  25
ENDBRANCH  19  20
ENDBRANCH   4  19
TORSDOF 12
ENDMDL
MODEL 3
REMARK VINA RESULT:    -7.219      1.377      2.101
REMARK INTER + INTRA:         -13.371
REMARK INTER:                 -12.217
REMARK INTRA:                  -1.154
REMARK UNBOUND:                -1.299
REMARK  Name = 
REMARK  13 active torsions:
REMARK  status: ('A' for Active; 'I' for Inactive)
REMARK    1  A    between atoms: C_1  and  O_2
REMARK    2  A    between atoms: O_2  and  C_3
REMARK    3  A    between atoms: C_7  and  C_8
REMARK    4  A    between atoms: C_8  and  N_9
REMARK    5  A    between atoms: N_9  and  C_10
REMARK    6  A    between atoms: C_10  and  C_11
REMARK    7  A    between atoms: C_14  and  C_15
REMARK    8  A    between atoms: C_15  and  N_16
REMARK    9  A    between atoms: N_16  and  C_17
REMARK   10  A    between atoms: N_16  and  C_20
REMARK   11  A    between atoms: C_17  and  C_18
REMARK   12  A    between atoms: C_18  and  O_19
REMARK   13  A    between atoms: C_20  and  C_21
REMARK                            x       y       z     vdW  Elec       q    Type
REMARK                         _______ _______ _______ _____ _____    ______ ____
ROOT
ATOM      1  C   UNL     1      47.394   8.112  13.678  0.00  0.00    +0.000 A 
ATOM      2  C   UNL     1      46.126   8.560  13.282  0.00  0.00    +0.000 A 
ATOM      3  C   UNL     1      45.382   7.836  12.354  0.00  0.00    +0.000 A 
ATOM      4  C   UNL     1      45.911   6.674  11.782  0.00  0.00    +0.000 A 
ATOM      5  C   UNL     1      47.133   6.174  12.248  0.00  0.00    +0.000 A 
ATOM      6  C   UNL     1      47.872   6.890  13.189  0.00  0.00    +0.000 A 
ENDROOT
BRANCH   1   7
ATOM      7  C   UNL     1      48.242   8.959  14.597  0.00  0.00    +0.000 C 
BRANCH   7   8
ATOM      8  N   UNL     1      47.678   9.112  15.934  0.00  0.00    +0.000 NA
ATOM      9  H   UNL     1      47.322  10.061  16.033  0.00  0.00    +0.000 HD
BRANCH   8  10
ATOM     10  C   UNL     1      48.673   8.860  16.974  0.00  0.00    +0.000 C 
BRANCH  10  15
ATOM     11  C   UNL     1      48.826   5.078  17.320  0.00  0.00    +0.000 A 
ATOM     12  C   UNL     1      48.198   4.967  18.553  0.00  0.00    +0.000 A 
ATOM     13  N   UNL     1      47.756   6.015  19.291  0.00  0.00    +0.000 NA
ATOM     14  C   UNL     1      47.942   7.242  18.757  0.00  0.00    +0.000 A 
ATOM     15  C   UNL     1      48.528   7.469  17.516  0.00  0.00    +0.000 A 
ATOM     16  C   UNL     1      48.992   6.360  16.799  0.00  0.00    +0.000 A 
BRANCH  11  18
ATOM     17  C   UNL     1      48.205   2.925  16.546  0.00  0.00    +0.000 C 
ATOM     18  O   UNL     1      49.214   3.914  16.724  0.00  0.00    +0.000 OA
ENDBRANCH  11  18
ENDBRANCH  10  15
ENDBRANCH   8  10
ENDBRANCH   7   8
ENDBRANCH   1   7
BRANCH   4  19
ATOM     19  C   UNL     1      45.207   6.011  10.621  0.00  0.00    +0.000 C 
BRANCH  19  20
ATOM     20  N   UNL     1      45.017   4.547  10.806  0.00  0.00    +0.000 NA
BRANCH  20  21
ATOM     21  C   UNL     1      44.230   4.259  12.031  0.00  0.00    +0.000 C 
BRANCH  21  22
ATOM     22  C   UNL     1      42.834   4.912  12.091  0.00  0.00    +0.000 C 
BRANCH  22  23
ATOM     23  O   UNL     1      42.636   5.559  13.347  0.00  0.00    +0.000 OA
ATOM     24  H   UNL     1      42.182   6.400  13.170  0.00  0.00    +0.000 HD
ENDBRANCH  22  23
ENDBRANCH  21  22
ENDBRANCH  20  21
BRANCH  20  25
ATOM     25  C   UNL     1      44.340   3.991   9.619  0.00  0.00    +0.000 C 
BRANCH  25  26
ATOM     26  C   UNL     1      45.254   3.251   8.668  0.00  0.00    +0.000 A 
ATOM     27  C   UNL     1      45.929   3.932   7.644  0.00  0.00    +0.000 A 
ATOM     28  C   UNL     1      46.839   3.258   6.830  0.00  0.00    +0.000 A 
ATOM     29  C   UNL     1      47.075   1.897   7.025  0.00  0.00    +0.000 A 
ATOM     30  C   UNL     1      46.384   1.204   8.017  0.00  0.00    +0.000 A 
ATOM     31  C   UNL     1      45.478   1.875   8.835  0.00  0.00    +0.000 A 
ENDBRANCH  25  26
ENDBRANCH  20  25
ENDBRANCH  19  20
ENDBRANCH   4  19
TORSDOF 12
ENDMDL
MODEL 4
REMARK VINA RESULT:    -6.856      1.809      2.427
REMARK INTER + INTRA:         -12.764
REMARK INTER:                 -12.157
REMARK INTRA:                  -0.608
REMARK UNBOUND:                -1.299
REMARK  Name = 
REMARK  13 active torsions:
REMARK  status: ('A' for Active; 'I' for Inactive)
REMARK    1  A    between atoms: C_1  and  O_2
REMARK    2  A    between atoms: O_2  and  C_3
REMARK    3  A    between atoms: C_7  and  C_8
REMARK    4  A    between atoms: C_8  and  N_9
REMARK    5  A    between atoms: N_9  and  C_10
REMARK    6  A    between atoms: C_10  and  C_11
REMARK    7  A    between atoms: C_14  and  C_15
REMARK    8  A    between atoms: C_15  and  N_16
REMARK    9  A    between atoms: N_16  and  C_17
REMARK   10  A    between atoms: N_16  and  C_20
REMARK   11  A    between atoms: C_17  and  C_18
REMARK   12  A    between atoms: C_18  and  O_19
REMARK   13  A    between atoms: C_20  and  C_21
REMARK                            x       y       z     vdW  Elec       q    Type
REMARK                         _______ _______ _______ _____ _____    ______ ____
ROOT
ATOM      1  C   UNL     1      47.684   5.884  14.265  0.00  0.00    +0.000 A 
ATOM      2  C   UNL     1      46.950   4.725  13.976  0.00  0.00    +0.000 A 
ATOM      3  C   UNL     1      46.191   4.644  12.813  0.00  0.00    +0.000 A 
ATOM      4  C   UNL     1      46.125   5.736  11.939  0.00  0.00    +0.000 A 
ATOM      5  C   UNL     1      46.933   6.855  12.177  0.00  0.00    +0.000 A 
ATOM      6  C   UNL     1      47.706   6.930  13.334  0.00  0.00    +0.000 A 
ENDROOT
BRANCH   1   7
ATOM      7  C   UNL     1      48.413   6.009  15.582  0.00  0.00    +0.000 C 
BRANCH   7   8
ATOM      8  N   UNL     1      48.606   4.733  16.264  0.00  0.00    +0.000 NA
ATOM      9  H   UNL     1      47.806   4.134  16.071  0.00  0.00    +0.000 HD
BRANCH   8  10
ATOM     10  C   UNL     1      48.740   4.906  17.709  0.00  0.00    +0.000 C 
BRANCH  10  15
ATOM     11  C   UNL     1      52.121   3.227  18.154  0.00  0.00    +0.000 A 
ATOM     12  C   UNL     1      52.693   4.157  19.011  0.00  0.00    +0.000 A 
ATOM     13  N   UNL     1      52.085   5.294  19.431  0.00  0.00    +0.000 NA
ATOM     14  C   UNL     1      50.829   5.502  18.979  0.00  0.00    +0.000 A 
ATOM     15  C   UNL     1      50.147   4.622  18.146  0.00  0.00    +0.000 A 
ATOM     16  C   UNL     1      50.821   3.474  17.715  0.00  0.00    +0.000 A 
BRANCH  11  18
ATOM     17  C   UNL     1      52.184   0.944  17.518  0.00  0.00    +0.000 C 
ATOM     18  O   UNL     1      52.885   2.144  17.828  0.00  0.00    +0.000 OA
ENDBRANCH  11  18
ENDBRANCH  10  15
ENDBRANCH   8  10
ENDBRANCH   7   8
ENDBRANCH   1   7
BRANCH   4  19
ATOM     19  C   UNL     1      45.136   5.735  10.796  0.00  0.00    +0.000 C 
BRANCH  19  20
ATOM     20  N   UNL     1      44.753   4.369  10.350  0.00  0.00    +0.000 NA
BRANCH  20  21
ATOM     21  C   UNL     1      43.451   3.959  10.933  0.00  0.00    +0.000 C 
BRANCH  21  22
ATOM     22  C   UNL     1      43.524   2.856  12.008  0.00  0.00    +0.000 C 
BRANCH  22  23
ATOM     23  O   UNL     1      42.773   1.712  11.606  0.00  0.00    +0.000 OA
ATOM     24  H   UNL     1      42.799   1.077  12.342  0.00  0.00    +0.000 HD
ENDBRANCH  22  23
ENDBRANCH  21  22
ENDBRANCH  20  21
BRANCH  20  25
ATOM     25  C   UNL     1      44.686   4.342   8.876  0.00  0.00    +0.000 C 
BRANCH  25  26
ATOM     26  C   UNL     1      45.588   3.316   8.227  0.00  0.00    +0.000 A 
ATOM     27  C   UNL     1      46.562   3.704   7.295  0.00  0.00    +0.000 A 
ATOM     28  C   UNL     1      47.449   2.764   6.771  0.00  0.00    +0.000 A 
ATOM     29  C   UNL     1      47.366   1.429   7.166  0.00  0.00    +0.000 A 
ATOM     30  C   UNL     1      46.381   1.028   8.067  0.00  0.00    +0.000 A 
ATOM     31  C   UNL     1      45.495   1.965   8.595  0.00  0.00    +0.000 A 
ENDBRANCH  25  26
ENDBRANCH  20  25
ENDBRANCH  19  20
ENDBRANCH   4  19
TORSDOF 12
ENDMDL
MODEL 5
REMARK VINA RESULT:    -6.426      3.541      7.920
REMARK INTER + INTRA:         -12.045
REMARK INTER:                 -10.529
REMARK INTRA:                  -1.516
REMARK UNBOUND:                -1.299
REMARK  Name = 
REMARK  13 active torsions:
REMARK  status: ('A' for Active; 'I' for Inactive)
REMARK    1  A    between atoms: C_1  and  O_2
REMARK    2  A    between atoms: O_2  and  C_3
REMARK    3  A    between atoms: C_7  and  C_8
REMARK    4  A    between atoms: C_8  and  N_9
REMARK    5  A    between atoms: N_9  and  C_10
REMARK    6  A    between atoms: C_10  and  C_11
REMARK    7  A    between atoms: C_14  and  C_15
REMARK    8  A    between atoms: C_15  and  N_16
REMARK    9  A    between atoms: N_16  and  C_17
REMARK   10  A    between atoms: N_16  and  C_20
REMARK   11  A    between atoms: C_17  and  C_18
REMARK   12  A    between atoms: C_18  and  O_19
REMARK   13  A    between atoms: C_20  and  C_21
REMARK                            x       y       z     vdW  Elec       q    Type
REMARK                         _______ _______ _______ _____ _____    ______ ____
ROOT
ATOM      1  C   UNL     1      44.826   5.386  12.776  0.00  0.00    +0.000 A 
ATOM      2  C   UNL     1      44.785   6.703  12.298  0.00  0.00    +0.000 A 
ATOM      3  C   UNL     1      45.951   7.457  12.212  0.00  0.00    +0.000 A 
ATOM      4  C   UNL     1      47.170   6.918  12.638  0.00  0.00    +0.000 A 
ATOM      5  C   UNL     1      47.229   5.573  13.024  0.00  0.00    +0.000 A 
ATOM      6  C   UNL     1      46.063   4.811  13.095  0.00  0.00    +0.000 A 
ENDROOT
BRANCH   1   7
ATOM      7  C   UNL     1      43.544   4.612  12.974  0.00  0.00    +0.000 C 
BRANCH   7   8
ATOM      8  N   UNL     1      42.908   4.210  11.724  0.00  0.00    +0.000 NA
ATOM      9  H   UNL     1      41.900   4.174  11.864  0.00  0.00    +0.000 HD
BRANCH   8  10
ATOM     10  C   UNL     1      43.377   2.901  11.275  0.00  0.00    +0.000 C 
BRANCH  10  15
ATOM     11  C   UNL     1      45.795   2.118   8.448  0.00  0.00    +0.000 A 
ATOM     12  C   UNL     1      45.839   3.380   7.871  0.00  0.00    +0.000 A 
ATOM     13  N   UNL     1      45.130   4.451   8.304  0.00  0.00    +0.000 NA
ATOM     14  C   UNL     1      44.344   4.251   9.385  0.00  0.00    +0.000 A 
ATOM     15  C   UNL     1      44.249   3.040  10.062  0.00  0.00    +0.000 A 
ATOM     16  C   UNL     1      44.978   1.953   9.566  0.00  0.00    +0.000 A 
BRANCH  11  18
ATOM     17  C   UNL     1      47.603   1.605   7.003  0.00  0.00    +0.000 C 
ATOM     18  O   UNL     1      46.569   1.154   7.872  0.00  0.00    +0.000 OA
ENDBRANCH  11  18
ENDBRANCH  10  15
ENDBRANCH   8  10
ENDBRANCH   7   8
ENDBRANCH   1   7
BRANCH   4  19
ATOM     19  C   UNL     1      48.392   7.800  12.753  0.00  0.00    +0.000 C 
BRANCH  19  20
ATOM     20  N   UNL     1      48.251   8.870  13.777  0.00  0.00    +0.000 NA
BRANCH  20  21
ATOM     21  C   UNL     1      48.788   8.430  15.089  0.00  0.00    +0.000 C 
BRANCH  21  22
ATOM     22  C   UNL     1      48.672   9.459  16.232  0.00  0.00    +0.000 C 
BRANCH  22  23
ATOM     23  O   UNL     1      47.596   9.119  17.105  0.00  0.00    +0.000 OA
ATOM     24  H   UNL     1      47.516   8.151  17.101  0.00  0.00    +0.000 HD
ENDBRANCH  22  23
ENDBRANCH  21  22
ENDBRANCH  20  21
BRANCH  20  25
ATOM     25  C   UNL     1      48.957  10.080  13.314  0.00  0.00    +0.000 C 
BRANCH  25  26
ATOM     26  C   UNL     1      48.353  10.724  12.085  0.00  0.00    +0.000 A 
ATOM     27  C   UNL     1      46.992  11.059  12.045  0.00  0.00    +0.000 A 
ATOM     28  C   UNL     1      46.465  11.735  10.945  0.00  0.00    +0.000 A 
ATOM     29  C   UNL     1      47.289  12.072   9.872  0.00  0.00    +0.000 A 
ATOM     30  C   UNL     1      48.636  11.714   9.887  0.00  0.00    +0.000 A 
ATOM     31  C   UNL     1      49.167  11.042  10.987  0.00  0.00    +0.000 A 
ENDBRANCH  25  26
ENDBRANCH  20  25
ENDBRANCH  19  20
ENDBRANCH   4  19
TORSDOF 12
ENDMDL
MODEL 6
REMARK VINA RESULT:    -6.390      2.412      3.345
REMARK INTER + INTRA:         -11.984
REMARK INTER:                 -11.091
REMARK INTRA:                  -0.894
REMARK UNBOUND:                -1.299
REMARK  Name = 
REMARK  13 active torsions:
REMARK  status: ('A' for Active; 'I' for Inactive)
REMARK    1  A    between atoms: C_1  and  O_2
REMARK    2  A    between atoms: O_2  and  C_3
REMARK    3  A    between atoms: C_7  and  C_8
REMARK    4  A    between atoms: C_8  and  N_9
REMARK    5  A    between atoms: N_9  and  C_10
REMARK    6  A    between atoms: C_10  and  C_11
REMARK    7  A    between atoms: C_14  and  C_15
REMARK    8  A    between atoms: C_15  and  N_16
REMARK    9  A    between atoms: N_16  and  C_17
REMARK   10  A    between atoms: N_16  and  C_20
REMARK   11  A    between atoms: C_17  and  C_18
REMARK   12  A    between atoms: C_18  and  O_19
REMARK   13  A    between atoms: C_20  and  C_21
REMARK                            x       y       z     vdW  Elec       q    Type
REMARK                         _______ _______ _______ _____ _____    ______ ____
ROOT
ATOM      1  C   UNL     1      47.545   5.826  14.365  0.00  0.00    +0.000 A 
ATOM      2  C   UNL     1      47.486   6.929  13.501  0.00  0.00    +0.000 A 
ATOM      3  C   UNL     1      46.806   6.838  12.290  0.00  0.00    +0.000 A 
ATOM      4  C   UNL     1      46.205   5.633  11.909  0.00  0.00    +0.000 A 
ATOM      5  C   UNL     1      46.179   4.563  12.813  0.00  0.00    +0.000 A 
ATOM      6  C   UNL     1      46.848   4.658  14.033  0.00  0.00    +0.000 A 
ENDROOT
BRANCH   1   7
ATOM      7  C   UNL     1      48.380   5.894  15.622  0.00  0.00    +0.000 C 
BRANCH   7   8
ATOM      8  N   UNL     1      47.745   5.269  16.777  0.00  0.00    +0.000 NA
ATOM      9  H   UNL     1      46.996   5.874  17.108  0.00  0.00    +0.000 HD
BRANCH   8  10
ATOM     10  C   UNL     1      48.696   5.043  17.863  0.00  0.00    +0.000 C 
BRANCH  10  15
ATOM     11  C   UNL     1      49.096   8.176  19.978  0.00  0.00    +0.000 A 
ATOM     12  C   UNL     1      48.162   7.873  20.959  0.00  0.00    +0.000 A 
ATOM     13  N   UNL     1      47.396   6.754  20.975  0.00  0.00    +0.000 NA
ATOM     14  C   UNL     1      47.587   5.884  19.959  0.00  0.00    +0.000 A 
ATOM     15  C   UNL     1      48.518   6.069  18.942  0.00  0.00    +0.000 A 
ATOM     16  C   UNL     1      49.270   7.250  18.951  0.00  0.00    +0.000 A 
BRANCH  11  18
ATOM     17  C   UNL     1      49.264  10.466  19.388  0.00  0.00    +0.000 C 
ATOM     18  O   UNL     1      49.771   9.354  20.118  0.00  0.00    +0.000 OA
ENDBRANCH  11  18
ENDBRANCH  10  15
ENDBRANCH   8  10
ENDBRANCH   7   8
ENDBRANCH   1   7
BRANCH   4  19
ATOM     19  C   UNL     1      45.659   5.465  10.510  0.00  0.00    +0.000 C 
BRANCH  19  20
ATOM     20  N   UNL     1      44.337   4.784  10.473  0.00  0.00    +0.000 NA
BRANCH  20  21
ATOM     21  C   UNL     1      43.254   5.690  10.930  0.00  0.00    +0.000 C 
BRANCH  21  22
ATOM     22  C   UNL     1      42.436   5.190  12.138  0.00  0.00    +0.000 C 
BRANCH  22  23
ATOM     23  O   UNL     1      42.932   5.756  13.350  0.00  0.00    +0.000 OA
ATOM     24  H   UNL     1      42.218   5.702  14.007  0.00  0.00    +0.000 HD
ENDBRANCH  22  23
ENDBRANCH  21  22
ENDBRANCH  20  21
BRANCH  20  25
ATOM     25  C   UNL     1      44.070   4.319   9.099  0.00  0.00    +0.000 C 
BRANCH  25  26
ATOM     26  C   UNL     1      45.156   3.443   8.513  0.00  0.00    +0.000 A 
ATOM     27  C   UNL     1      45.251   2.088   8.861  0.00  0.00    +0.000 A 
ATOM     28  C   UNL     1      46.197   1.268   8.247  0.00  0.00    +0.000 A 
ATOM     29  C   UNL     1      47.061   1.795   7.288  0.00  0.00    +0.000 A 
ATOM     30  C   UNL     1      46.996   3.148   6.959  0.00  0.00    +0.000 A 
ATOM     31  C   UNL     1      46.050   3.969   7.568  0.00  0.00    +0.000 A 
ENDBRANCH  25  26
ENDBRANCH  20  25
ENDBRANCH  19  20
ENDBRANCH   4  19
TORSDOF 12
ENDMDL
MODEL 7
REMARK VINA RESULT:    -6.346      2.548      8.419
REMARK INTER + INTRA:         -11.911
REMARK INTER:                 -10.790
REMARK INTRA:                  -1.121
REMARK UNBOUND:                -1.299
REMARK  Name = 
REMARK  13 active torsions:
REMARK  status: ('A' for Active; 'I' for Inactive)
REMARK    1  A    between atoms: C_1  and  O_2
REMARK    2  A    between atoms: O_2  and  C_3
REMARK    3  A    between atoms: C_7  and  C_8
REMARK    4  A    between atoms: C_8  and  N_9
REMARK    5  A    between atoms: N_9  and  C_10
REMARK    6  A    between atoms: C_10  and  C_11
REMARK    7  A    between atoms: C_14  and  C_15
REMARK    8  A    between atoms: C_15  and  N_16
REMARK    9  A    between atoms: N_16  and  C_17
REMARK   10  A    between atoms: N_16  and  C_20
REMARK   11  A    between atoms: C_17  and  C_18
REMARK   12  A    between atoms: C_18  and  O_19
REMARK   13  A    between atoms: C_20  and  C_21
REMARK                            x       y       z     vdW  Elec       q    Type
REMARK                         _______ _______ _______ _____ _____    ______ ____
ROOT
ATOM      1  C   UNL     1      45.752   7.128  12.555  0.00  0.00    +0.000 A 
ATOM      2  C   UNL     1      46.651   6.053  12.522  0.00  0.00    +0.000 A 
ATOM      3  C   UNL     1      47.923   6.182  13.071  0.00  0.00    +0.000 A 
ATOM      4  C   UNL     1      48.328   7.400  13.629  0.00  0.00    +0.000 A 
ATOM      5  C   UNL     1      47.400   8.442  13.751  0.00  0.00    +0.000 A 
ATOM      6  C   UNL     1      46.120   8.308  13.215  0.00  0.00    +0.000 A 
ENDROOT
BRANCH   1   7
ATOM      7  C   UNL     1      44.416   7.020  11.858  0.00  0.00    +0.000 C 
BRANCH   7   8
ATOM      8  N   UNL     1      44.480   6.310  10.585  0.00  0.00    +0.000 NA
ATOM      9  H   UNL     1      43.964   6.841   9.886  0.00  0.00    +0.000 HD
BRANCH   8  10
ATOM     10  C   UNL     1      43.911   4.967  10.684  0.00  0.00    +0.000 C 
BRANCH  10  15
ATOM     11  C   UNL     1      45.931   3.623   7.758  0.00  0.00    +0.000 A 
ATOM     12  C   UNL     1      45.782   2.268   8.021  0.00  0.00    +0.000 A 
ATOM     13  N   UNL     1      45.108   1.758   9.081  0.00  0.00    +0.000 NA
ATOM     14  C   UNL     1      44.539   2.656   9.916  0.00  0.00    +0.000 A 
ATOM     15  C   UNL     1      44.595   4.033   9.731  0.00  0.00    +0.000 A 
ATOM     16  C   UNL     1      45.322   4.517   8.638  0.00  0.00    +0.000 A 
BRANCH  11  18
ATOM     17  C   UNL     1      46.904   2.908   5.718  0.00  0.00    +0.000 C 
ATOM     18  O   UNL     1      46.652   3.956   6.649  0.00  0.00    +0.000 OA
ENDBRANCH  11  18
ENDBRANCH  10  15
ENDBRANCH   8  10
ENDBRANCH   7   8
ENDBRANCH   1   7
BRANCH   4  19
ATOM     19  C   UNL     1      49.771   7.612  14.024  0.00  0.00    +0.000 C 
BRANCH  19  20
ATOM     20  N   UNL     1      50.185   6.797  15.198  0.00  0.00    +0.000 NA
BRANCH  20  21
ATOM     21  C   UNL     1      51.439   7.318  15.796  0.00  0.00    +0.000 C 
BRANCH  21  22
ATOM     22  C   UNL     1      52.368   8.082  14.831  0.00  0.00    +0.000 C 
BRANCH  22  23
ATOM     23  O   UNL     1      53.300   7.191  14.220  0.00  0.00    +0.000 OA
ATOM     24  H   UNL     1      54.171   7.373  14.609  0.00  0.00    +0.000 HD
ENDBRANCH  22  23
ENDBRANCH  21  22
ENDBRANCH  20  21
BRANCH  20  25
ATOM     25  C   UNL     1      49.100   6.800  16.197  0.00  0.00    +0.000 C 
BRANCH  25  26
ATOM     26  C   UNL     1      48.757   5.435  16.751  0.00  0.00    +0.000 A 
ATOM     27  C   UNL     1      49.534   4.855  17.765  0.00  0.00    +0.000 A 
ATOM     28  C   UNL     1      49.157   3.638  18.332  0.00  0.00    +0.000 A 
ATOM     29  C   UNL     1      48.007   2.986  17.887  0.00  0.00    +0.000 A 
ATOM     30  C   UNL     1      47.247   3.537  16.857  0.00  0.00    +0.000 A 
ATOM     31  C   UNL     1      47.619   4.755  16.291  0.00  0.00    +0.000 A 
ENDBRANCH  25  26
ENDBRANCH  20  25
ENDBRANCH  19  20
ENDBRANCH   4  19
TORSDOF 12
ENDMDL
MODEL 8
REMARK VINA RESULT:    -6.166      3.186      5.822
REMARK INTER + INTRA:         -11.610
REMARK INTER:                 -10.399
REMARK INTRA:                  -1.211
REMARK UNBOUND:                -1.299
REMARK  Name = 
REMARK  13 active torsions:
REMARK  status: ('A' for Active; 'I' for Inactive)
REMARK    1  A    between atoms: C_1  and  O_2
REMARK    2  A    between atoms: O_2  and  C_3
REMARK    3  A    between atoms: C_7  and  C_8
REMARK    4  A    between atoms: C_8  and  N_9
REMARK    5  A    between atoms: N_9  and  C_10
REMARK    6  A    between atoms: C_10  and  C_11
REMARK    7  A    between atoms: C_14  and  C_15
REMARK    8  A    between atoms: C_15  and  N_16
REMARK    9  A    between atoms: N_16  and  C_17
REMARK   10  A    between atoms: N_16  and  C_20
REMARK   11  A    between atoms: C_17  and  C_18
REMARK   12  A    between atoms: C_18  and  O_19
REMARK   13  A    between atoms: C_20  and  C_21
REMARK                            x       y       z     vdW  Elec       q    Type
REMARK                         _______ _______ _______ _____ _____    ______ ____
ROOT
ATOM      1  C   UNL     1      47.874   6.722  13.081  0.00  0.00    +0.000 A 
ATOM      2  C   UNL     1      47.645   7.191  11.780  0.00  0.00    +0.000 A 
ATOM      3  C   UNL     1      46.451   6.898  11.127  0.00  0.00    +0.000 A 
ATOM      4  C   UNL     1      45.485   6.101  11.751  0.00  0.00    +0.000 A 
ATOM      5  C   UNL     1      45.671   5.714  13.085  0.00  0.00    +0.000 A 
ATOM      6  C   UNL     1      46.860   6.021  13.745  0.00  0.00    +0.000 A 
ENDROOT
BRANCH   1   7
ATOM      7  C   UNL     1      49.215   6.946  13.741  0.00  0.00    +0.000 C 
BRANCH   7   8
ATOM      8  N   UNL     1      49.467   8.341  14.087  0.00  0.00    +0.000 NA
ATOM      9  H   UNL     1      48.586   8.850  14.061  0.00  0.00    +0.000 HD
BRANCH   8  10
ATOM     10  C   UNL     1      50.411   8.966  13.163  0.00  0.00    +0.000 C 
BRANCH  10  15
ATOM     11  C   UNL     1      48.902  11.500  10.766  0.00  0.00    +0.000 A 
ATOM     12  C   UNL     1      48.838  12.581  11.635  0.00  0.00    +0.000 A 
ATOM     13  N   UNL     1      49.216  12.547  12.937  0.00  0.00    +0.000 NA
ATOM     14  C   UNL     1      49.698  11.368  13.389  0.00  0.00    +0.000 A 
ATOM     15  C   UNL     1      49.838  10.232  12.599  0.00  0.00    +0.000 A 
ATOM     16  C   UNL     1      49.412  10.304  11.268  0.00  0.00    +0.000 A 
BRANCH  11  18
ATOM     17  C   UNL     1      47.198  12.344   9.349  0.00  0.00    +0.000 C 
ATOM     18  O   UNL     1      48.468  11.714   9.491  0.00  0.00    +0.000 OA
ENDBRANCH  11  18
ENDBRANCH  10  15
ENDBRANCH   8  10
ENDBRANCH   7   8
ENDBRANCH   1   7
BRANCH   4  19
ATOM     19  C   UNL     1      44.292   5.600  10.970  0.00  0.00    +0.000 C 
BRANCH  19  20
ATOM     20  N   UNL     1      44.441   4.195  10.505  0.00  0.00    +0.000 NA
BRANCH  20  21
ATOM     21  C   UNL     1      43.378   3.328  11.071  0.00  0.00    +0.000 C 
BRANCH  21  22
ATOM     22  C   UNL     1      43.667   2.753  12.473  0.00  0.00    +0.000 C 
BRANCH  22  23
ATOM     23  O   UNL     1      45.053   2.444  12.613  0.00  0.00    +0.000 OA
ATOM     24  H   UNL     1      45.113   1.580  13.055  0.00  0.00    +0.000 HD
ENDBRANCH  22  23
ENDBRANCH  21  22
ENDBRANCH  20  21
BRANCH  20  25
ATOM     25  C   UNL     1      44.397   4.165   9.031  0.00  0.00    +0.000 C 
BRANCH  25  26
ATOM     26  C   UNL     1      45.441   3.277   8.392  0.00  0.00    +0.000 A 
ATOM     27  C   UNL     1      45.541   1.921   8.739  0.00  0.00    +0.000 A 
ATOM     28  C   UNL     1      46.445   1.089   8.079  0.00  0.00    +0.000 A 
ATOM     29  C   UNL     1      47.263   1.605   7.075  0.00  0.00    +0.000 A 
ATOM     30  C   UNL     1      47.195   2.958   6.746  0.00  0.00    +0.000 A 
ATOM     31  C   UNL     1      46.290   3.791   7.400  0.00  0.00    +0.000 A 
ENDBRANCH  25  26
ENDBRANCH  20  25
ENDBRANCH  19  20
ENDBRANCH   4  19
TORSDOF 12
ENDMDL
MODEL 9
REMARK VINA RESULT:    -5.985      3.409      8.519
REMARK INTER + INTRA:         -11.307
REMARK INTER:                  -9.361
REMARK INTRA:                  -1.946
REMARK UNBOUND:                -1.299
REMARK  Name = 
REMARK  13 active torsions:
REMARK  status: ('A' for Active; 'I' for Inactive)
REMARK    1  A    between atoms: C_1  and  O_2
REMARK    2  A    between atoms: O_2  and  C_3
REMARK    3  A    between atoms: C_7  and  C_8
REMARK    4  A    between atoms: C_8  and  N_9
REMARK    5  A    between atoms: N_9  and  C_10
REMARK    6  A    between atoms: C_10  and  C_11
REMARK    7  A    between atoms: C_14  and  C_15
REMARK    8  A    between atoms: C_15  and  N_16
REMARK    9  A    between atoms: N_16  and  C_17
REMARK   10  A    between atoms: N_16  and  C_20
REMARK   11  A    between atoms: C_17  and  C_18
REMARK   12  A    between atoms: C_18  and  O_19
REMARK   13  A    between atoms: C_20  and  C_21
REMARK                            x       y       z     vdW  Elec       q    Type
REMARK                         _______ _______ _______ _____ _____    ______ ____
ROOT
ATOM      1  C   UNL     1      45.770   7.226  12.442  0.00  0.00    +0.000 A 
ATOM      2  C   UNL     1      46.897   6.581  11.914  0.00  0.00    +0.000 A 
ATOM      3  C   UNL     1      48.100   7.267  11.772  0.00  0.00    +0.000 A 
ATOM      4  C   UNL     1      48.183   8.619  12.122  0.00  0.00    +0.000 A 
ATOM      5  C   UNL     1      47.087   9.237  12.740  0.00  0.00    +0.000 A 
ATOM      6  C   UNL     1      45.887   8.545  12.897  0.00  0.00    +0.000 A 
ENDROOT
BRANCH   1   7
ATOM      7  C   UNL     1      44.441   6.510  12.487  0.00  0.00    +0.000 C 
BRANCH   7   8
ATOM      8  N   UNL     1      43.829   6.335  11.173  0.00  0.00    +0.000 NA
ATOM      9  H   UNL     1      43.113   7.047  11.047  0.00  0.00    +0.000 HD
BRANCH   8  10
ATOM     10  C   UNL     1      43.224   5.013  11.030  0.00  0.00    +0.000 C 
BRANCH  10  15
ATOM     11  C   UNL     1      45.578   3.890   8.264  0.00  0.00    +0.000 A 
ATOM     12  C   UNL     1      45.487   2.521   8.471  0.00  0.00    +0.000 A 
ATOM     13  N   UNL     1      44.752   1.935   9.448  0.00  0.00    +0.000 NA
ATOM     14  C   UNL     1      44.056   2.769  10.253  0.00  0.00    +0.000 A 
ATOM     15  C   UNL     1      44.046   4.153  10.116  0.00  0.00    +0.000 A 
ATOM     16  C   UNL     1      44.840   4.716   9.110  0.00  0.00    +0.000 A 
BRANCH  11  18
ATOM     17  C   UNL     1      46.936   3.281   6.419  0.00  0.00    +0.000 C 
ATOM     18  O   UNL     1      46.376   4.303   7.237  0.00  0.00    +0.000 OA
ENDBRANCH  11  18
ENDBRANCH  10  15
ENDBRANCH   8  10
ENDBRANCH   7   8
ENDBRANCH   1   7
BRANCH   4  19
ATOM     19  C   UNL     1      49.413   9.422  11.768  0.00  0.00    +0.000 C 
BRANCH  19  20
ATOM     20  N   UNL     1      50.675   8.817  12.271  0.00  0.00    +0.000 NA
BRANCH  20  21
ATOM     21  C   UNL     1      51.796   9.053  11.327  0.00  0.00    +0.000 C 
BRANCH  21  22
ATOM     22  C   UNL     1      53.192   8.644  11.839  0.00  0.00    +0.000 C 
BRANCH  22  23
ATOM     23  O   UNL     1      53.469   7.284  11.508  0.00  0.00    +0.000 OA
ATOM     24  H   UNL     1      54.423   7.146  11.634  0.00  0.00    +0.000 HD
ENDBRANCH  22  23
ENDBRANCH  21  22
ENDBRANCH  20  21
BRANCH  20  25
ATOM     25  C   UNL     1      50.992   9.386  13.595  0.00  0.00    +0.000 C 
BRANCH  25  26
ATOM     26  C   UNL     1      50.234   8.757  14.743  0.00  0.00    +0.000 A 
ATOM     27  C   UNL     1      49.490   9.549  15.631  0.00  0.00    +0.000 A 
ATOM     28  C   UNL     1      48.721   8.954  16.631  0.00  0.00    +0.000 A 
ATOM     29  C   UNL     1      48.696   7.565  16.758  0.00  0.00    +0.000 A 
ATOM     30  C   UNL     1      49.457   6.772  15.902  0.00  0.00    +0.000 A 
ATOM     31  C   UNL     1      50.223   7.363  14.900  0.00  0.00    +0.000 A 
ENDBRANCH  25  26
ENDBRANCH  20  25
ENDBRANCH  19  20
ENDBRANCH   4  19
TORSDOF 12
ENDMDL
