MODEL 1
REMARK VINA RESULT:    -7.546      0.000      0.000
REMARK INTER + INTRA:         -11.016
REMARK INTER:                  -9.972
REMARK INTRA:                  -1.044
REMARK UNBOUND:                -1.044
REMARK  Name = 
REMARK  6 active torsions:
REMARK  status: ('A' for Active; 'I' for Inactive)
REMARK    1  A    between atoms: C_2  and  O_3
REMARK    2  A    between atoms: C_2  and  C_4
REMARK    3  A    between atoms: C_8  and  O_9
REMARK    4  A    between atoms: O_9  and  C_10
REMARK    5  A    between atoms: C_10  and  C_11
REMARK    6  A    between atoms: C_15  and  N_16
REMARK                            x       y       z     vdW  Elec       q    Type
REMARK                         _______ _______ _______ _____ _____    ______ ____
ROOT
ATOM      1  C   UNL     1      45.671   6.200  12.182  0.00  0.00    +0.000 C 
ATOM      2  C   UNL     1      45.214   7.470  11.452  0.00  0.00    +0.000 C 
ATOM      3  C   UNL     1      44.718   7.186  12.827  0.00  0.00    +0.000 C 
ENDROOT
BRANCH   1   4
ATOM      4  C   UNL     1      45.116   4.878  11.678  0.00  0.00    +0.000 A 
ATOM      5  C   UNL     1      44.039   4.233  12.294  0.00  0.00    +0.000 A 
ATOM      6  C   UNL     1      43.467   3.094  11.729  0.00  0.00    +0.000 A 
ATOM      7  C   UNL     1      43.955   2.588  10.521  0.00  0.00    +0.000 A 
ATOM      8  C   UNL     1      45.042   3.180   9.871  0.00  0.00    +0.000 A 
ATOM      9  C   UNL     1      45.627   4.289  10.506  0.00  0.00    +0.000 A 
BRANCH   8  10
ATOM     10  N   UNL     1      45.566   2.719   8.672  0.00  0.00    +0.000 N 
ATOM     11  C   UNL     1      45.708   1.290   8.396  0.00  0.00    +0.000 C 
ATOM     12  C   UNL     1      46.970   1.093   7.552  0.00  0.00    +0.000 C 
ATOM     13  C   UNL     1      46.955   1.959   6.291  0.00  0.00    +0.000 C 
ATOM     14  C   UNL     1      46.658   3.422   6.616  0.00  0.00    +0.000 C 
ATOM     15  C   UNL     1      45.399   3.551   7.471  0.00  0.00    +0.000 C 
ENDBRANCH   8  10
ENDBRANCH   1   4
BRANCH   1  16
ATOM     16  O   UNL     1      47.090   6.276  12.434  0.00  0.00    +0.000 OA
BRANCH  16  21
ATOM     17  C   UNL     1      47.806   4.818  15.666  0.00  0.00    +0.000 A 
ATOM     18  C   UNL     1      48.546   5.811  16.308  0.00  0.00    +0.000 A 
ATOM     19  C   UNL     1      48.826   7.005  15.638  0.00  0.00    +0.000 A 
ATOM     20  C   UNL     1      48.367   7.209  14.330  0.00  0.00    +0.000 A 
ATOM     21  C   UNL     1      47.602   6.232  13.701  0.00  0.00    +0.000 A 
ATOM     22  C   UNL     1      47.316   5.043  14.377  0.00  0.00    +0.000 A 
BRANCH  17  24
ATOM     23  O   UNL     1      46.589   3.390  17.118  0.00  0.00    +0.000 OA
ATOM     24  C   UNL     1      47.545   3.549  16.375  0.00  0.00    +0.000 C 
BRANCH  24  25
ATOM     25  O   UNL     1      48.492   2.607  16.176  0.00  0.00    +0.000 OA
ATOM     26  H   UNL     1      48.293   1.967  15.467  0.00  0.00    +0.000 HD
ENDBRANCH  24  25
ENDBRANCH  17  24
ENDBRANCH  16  21
ENDBRANCH   1  16
TORSDOF 6
ENDMDL
MODEL 2
REMARK VINA RESULT:    -7.197      2.975      5.372
REMARK INTER + INTRA:         -10.556
REMARK INTER:                  -9.406
REMARK INTRA:                  -1.150
REMARK UNBOUND:                -1.044
REMARK  Name = 
REMARK  6 active torsions:
REMARK  status: ('A' for Active; 'I' for Inactive)
REMARK    1  A    between atoms: C_2  and  O_3
REMARK    2  A    between atoms: C_2  and  C_4
REMARK    3  A    between atoms: C_8  and  O_9
REMARK    4  A    between atoms: O_9  and  C_10
REMARK    5  A    between atoms: C_10  and  C_11
REMARK    6  A    between atoms: C_15  and  N_16
REMARK                            x       y       z     vdW  Elec       q    Type
REMARK                         _______ _______ _______ _____ _____    ______ ____
ROOT
ATOM      1  C   UNL     1      46.165   7.200  12.506  0.00  0.00    +0.000 C 
ATOM      2  C   UNL     1      47.365   6.898  13.414  0.00  0.00    +0.000 C 
ATOM      3  C   UNL     1      47.588   7.273  11.990  0.00  0.00    +0.000 C 
ENDROOT
BRANCH   1   4
ATOM      4  C   UNL     1      45.302   6.020  12.091  0.00  0.00    +0.000 A 
ATOM      5  C   UNL     1      44.086   5.724  12.714  0.00  0.00    +0.000 A 
ATOM      6  C   UNL     1      43.254   4.719  12.223  0.00  0.00    +0.000 A 
ATOM      7  C   UNL     1      43.620   4.000  11.081  0.00  0.00    +0.000 A 
ATOM      8  C   UNL     1      44.833   4.240  10.429  0.00  0.00    +0.000 A 
ATOM      9  C   UNL     1      45.668   5.218  10.993  0.00  0.00    +0.000 A 
BRANCH   8  10
ATOM     10  N   UNL     1      45.244   3.555   9.295  0.00  0.00    +0.000 N 
ATOM     11  C   UNL     1      44.868   2.162   9.060  0.00  0.00    +0.000 C 
ATOM     12  C   UNL     1      46.031   1.470   8.344  0.00  0.00    +0.000 C 
ATOM     13  C   UNL     1      46.442   2.213   7.072  0.00  0.00    +0.000 C 
ATOM     14  C   UNL     1      46.684   3.698   7.340  0.00  0.00    +0.000 C 
ATOM     15  C   UNL     1      45.498   4.326   8.068  0.00  0.00    +0.000 C 
ENDBRANCH   8  10
ENDBRANCH   1   4
BRANCH   1  16
ATOM     16  O   UNL     1      45.493   8.386  12.979  0.00  0.00    +0.000 OA
BRANCH  16  21
ATOM     17  C   UNL     1      43.378  10.397  10.842  0.00  0.00    +0.000 A 
ATOM     18  C   UNL     1      44.223  11.432  10.440  0.00  0.00    +0.000 A 
ATOM     19  C   UNL     1      45.540  11.469  10.904  0.00  0.00    +0.000 A 
ATOM     20  C   UNL     1      46.015  10.473  11.768  0.00  0.00    +0.000 A 
ATOM     21  C   UNL     1      45.184   9.423  12.143  0.00  0.00    +0.000 A 
ATOM     22  C   UNL     1      43.869   9.384  11.670  0.00  0.00    +0.000 A 
BRANCH  17  24
ATOM     23  O   UNL     1      41.568  11.153   9.508  0.00  0.00    +0.000 OA
ATOM     24  C   UNL     1      41.979  10.389  10.368  0.00  0.00    +0.000 C 
BRANCH  24  25
ATOM     25  O   UNL     1      41.188   9.508  11.015  0.00  0.00    +0.000 OA
ATOM     26  H   UNL     1      40.488   9.104  10.467  0.00  0.00    +0.000 HD
ENDBRANCH  24  25
ENDBRANCH  17  24
ENDBRANCH  16  21
ENDBRANCH   1  16
TORSDOF 6
ENDMDL
MODEL 3
REMARK VINA RESULT:    -6.804      2.334      4.112
REMARK INTER + INTRA:         -10.036
REMARK INTER:                  -8.740
REMARK INTRA:                  -1.297
REMARK UNBOUND:                -1.044
REMARK  Name = 
REMARK  6 active torsions:
REMARK  status: ('A' for Active; 'I' for Inactive)
REMARK    1  A    between atoms: C_2  and  O_3
REMARK    2  A    between atoms: C_2  and  C_4
REMARK    3  A    between atoms: C_8  and  O_9
REMARK    4  A    between atoms: O_9  and  C_10
REMARK    5  A    between atoms: C_10  and  C_11
REMARK    6  A    between atoms: C_15  and  N_16
REMARK                            x       y       z     vdW  Elec       q    Type
REMARK                         _______ _______ _______ _____ _____    ______ ____
ROOT
ATOM      1  C   UNL     1      49.079   7.622  13.808  0.00  0.00    +0.000 C 
ATOM      2  C   UNL     1      50.129   7.774  12.700  0.00  0.00    +0.000 C 
ATOM      3  C   UNL     1      49.886   8.895  13.650  0.00  0.00    +0.000 C 
ENDROOT
BRANCH   1   4
ATOM      4  C   UNL     1      47.621   7.630  13.381  0.00  0.00    +0.000 A 
ATOM      5  C   UNL     1      46.837   8.788  13.410  0.00  0.00    +0.000 A 
ATOM      6  C   UNL     1      45.546   8.794  12.886  0.00  0.00    +0.000 A 
ATOM      7  C   UNL     1      45.019   7.638  12.303  0.00  0.00    +0.000 A 
ATOM      8  C   UNL     1      45.750   6.447  12.263  0.00  0.00    +0.000 A 
ATOM      9  C   UNL     1      47.023   6.469  12.857  0.00  0.00    +0.000 A 
BRANCH   8  10
ATOM     10  N   UNL     1      45.276   5.272  11.697  0.00  0.00    +0.000 N 
ATOM     11  C   UNL     1      45.282   5.060  10.250  0.00  0.00    +0.000 C 
ATOM     12  C   UNL     1      44.046   4.232   9.887  0.00  0.00    +0.000 C 
ATOM     13  C   UNL     1      43.970   2.934  10.692  0.00  0.00    +0.000 C 
ATOM     14  C   UNL     1      44.115   3.193  12.192  0.00  0.00    +0.000 C 
ATOM     15  C   UNL     1      45.354   4.035  12.488  0.00  0.00    +0.000 C 
ENDBRANCH   8  10
ENDBRANCH   1   4
BRANCH   1  16
ATOM     16  O   UNL     1      49.499   6.594  14.729  0.00  0.00    +0.000 OA
BRANCH  16  21
ATOM     17  C   UNL     1      47.990   4.930  17.564  0.00  0.00    +0.000 A 
ATOM     18  C   UNL     1      47.882   5.949  18.512  0.00  0.00    +0.000 A 
ATOM     19  C   UNL     1      48.336   7.233  18.201  0.00  0.00    +0.000 A 
ATOM     20  C   UNL     1      48.897   7.502  16.945  0.00  0.00    +0.000 A 
ATOM     21  C   UNL     1      48.976   6.495  15.989  0.00  0.00    +0.000 A 
ATOM     22  C   UNL     1      48.512   5.213  16.300  0.00  0.00    +0.000 A 
BRANCH  17  24
ATOM     23  O   UNL     1      46.592   3.024  17.367  0.00  0.00    +0.000 OA
ATOM     24  C   UNL     1      47.534   3.571  17.919  0.00  0.00    +0.000 C 
BRANCH  24  25
ATOM     25  O   UNL     1      48.211   3.019  18.949  0.00  0.00    +0.000 OA
ATOM     26  H   UNL     1      48.675   3.656  19.524  0.00  0.00    +0.000 HD
ENDBRANCH  24  25
ENDBRANCH  17  24
ENDBRANCH  16  21
ENDBRANCH   1  16
TORSDOF 6
ENDMDL
MODEL 4
REMARK VINA RESULT:    -6.636      3.245      7.550
REMARK INTER + INTRA:          -9.814
REMARK INTER:                  -8.882
REMARK INTRA:                  -0.932
REMARK UNBOUND:                -1.044
REMARK  Name = 
REMARK  6 active torsions:
REMARK  status: ('A' for Active; 'I' for Inactive)
REMARK    1  A    between atoms: C_2  and  O_3
REMARK    2  A    between atoms: C_2  and  C_4
REMARK    3  A    between atoms: C_8  and  O_9
REMARK    4  A    between atoms: O_9  and  C_10
REMARK    5  A    between atoms: C_10  and  C_11
REMARK    6  A    between atoms: C_15  and  N_16
REMARK                            x       y       z     vdW  Elec       q    Type
REMARK                         _______ _______ _______ _____ _____    ______ ____
ROOT
ATOM      1  C   UNL     1      47.937   7.885  12.738  0.00  0.00    +0.000 C 
ATOM      2  C   UNL     1      48.505   9.014  11.868  0.00  0.00    +0.000 C 
ATOM      3  C   UNL     1      49.034   7.629  11.725  0.00  0.00    +0.000 C 
ENDROOT
BRANCH   1   4
ATOM      4  C   UNL     1      48.301   7.902  14.213  0.00  0.00    +0.000 A 
ATOM      5  C   UNL     1      48.244   9.066  14.986  0.00  0.00    +0.000 A 
ATOM      6  C   UNL     1      48.453   9.024  16.363  0.00  0.00    +0.000 A 
ATOM      7  C   UNL     1      48.707   7.804  16.998  0.00  0.00    +0.000 A 
ATOM      8  C   UNL     1      48.794   6.612  16.273  0.00  0.00    +0.000 A 
ATOM      9  C   UNL     1      48.638   6.710  14.880  0.00  0.00    +0.000 A 
BRANCH   8  10
ATOM     10  N   UNL     1      49.044   5.377  16.852  0.00  0.00    +0.000 N 
ATOM     11  C   UNL     1      50.186   5.162  17.740  0.00  0.00    +0.000 C 
ATOM     12  C   UNL     1      50.695   3.734  17.521  0.00  0.00    +0.000 C 
ATOM     13  C   UNL     1      49.585   2.698  17.696  0.00  0.00    +0.000 C 
ATOM     14  C   UNL     1      48.354   3.045  16.859  0.00  0.00    +0.000 C 
ATOM     15  C   UNL     1      47.905   4.482  17.109  0.00  0.00    +0.000 C 
ENDBRANCH   8  10
ENDBRANCH   1   4
BRANCH   1  16
ATOM     16  O   UNL     1      46.552   7.665  12.394  0.00  0.00    +0.000 OA
BRANCH  16  21
ATOM     17  C   UNL     1      45.311   4.891  10.433  0.00  0.00    +0.000 A 
ATOM     18  C   UNL     1      45.056   3.910  11.392  0.00  0.00    +0.000 A 
ATOM     19  C   UNL     1      45.315   4.178  12.739  0.00  0.00    +0.000 A 
ATOM     20  C   UNL     1      45.827   5.422  13.129  0.00  0.00    +0.000 A 
ATOM     21  C   UNL     1      46.052   6.411  12.177  0.00  0.00    +0.000 A 
ATOM     22  C   UNL     1      45.783   6.144  10.831  0.00  0.00    +0.000 A 
BRANCH  17  24
ATOM     23  O   UNL     1      45.945   4.584   8.167  0.00  0.00    +0.000 OA
ATOM     24  C   UNL     1      45.061   4.583   9.010  0.00  0.00    +0.000 C 
BRANCH  24  25
ATOM     25  O   UNL     1      43.761   4.364   8.718  0.00  0.00    +0.000 OA
ATOM     26  H   UNL     1      43.241   3.962   9.438  0.00  0.00    +0.000 HD
ENDBRANCH  24  25
ENDBRANCH  17  24
ENDBRANCH  16  21
ENDBRANCH   1  16
TORSDOF 6
ENDMDL
MODEL 5
REMARK VINA RESULT:    -6.319      3.304      7.204
REMARK INTER + INTRA:          -9.396
REMARK INTER:                  -8.509
REMARK INTRA:                  -0.887
REMARK UNBOUND:                -1.044
REMARK  Name = 
REMARK  6 active torsions:
REMARK  status: ('A' for Active; 'I' for Inactive)
REMARK    1  A    between atoms: C_2  and  O_3
REMARK    2  A    between atoms: C_2  and  C_4
REMARK    3  A    between atoms: C_8  and  O_9
REMARK    4  A    between atoms: O_9  and  C_10
REMARK    5  A    between atoms: C_10  and  C_11
REMARK    6  A    between atoms: C_15  and  N_16
REMARK                            x       y       z     vdW  Elec       q    Type
REMARK                         _______ _______ _______ _____ _____    ______ ____
ROOT
ATOM      1  C   UNL     1      48.081   8.010  12.793  0.00  0.00    +0.000 C 
ATOM      2  C   UNL     1      48.845   9.063  11.979  0.00  0.00    +0.000 C 
ATOM      3  C   UNL     1      49.164   7.619  11.808  0.00  0.00    +0.000 C 
ENDROOT
BRANCH   1   4
ATOM      4  C   UNL     1      48.390   7.931  14.279  0.00  0.00    +0.000 A 
ATOM      5  C   UNL     1      48.339   9.051  15.116  0.00  0.00    +0.000 A 
ATOM      6  C   UNL     1      48.495   8.923  16.495  0.00  0.00    +0.000 A 
ATOM      7  C   UNL     1      48.688   7.662  17.066  0.00  0.00    +0.000 A 
ATOM      8  C   UNL     1      48.767   6.511  16.277  0.00  0.00    +0.000 A 
ATOM      9  C   UNL     1      48.666   6.693  14.887  0.00  0.00    +0.000 A 
BRANCH   8  10
ATOM     10  N   UNL     1      48.958   5.237  16.791  0.00  0.00    +0.000 N 
ATOM     11  C   UNL     1      50.005   4.954  17.773  0.00  0.00    +0.000 C 
ATOM     12  C   UNL     1      50.535   3.542  17.509  0.00  0.00    +0.000 C 
ATOM     13  C   UNL     1      49.413   2.503  17.499  0.00  0.00    +0.000 C 
ATOM     14  C   UNL     1      48.273   2.914  16.567  0.00  0.00    +0.000 C 
ATOM     15  C   UNL     1      47.800   4.334  16.869  0.00  0.00    +0.000 C 
ENDBRANCH   8  10
ENDBRANCH   1   4
BRANCH   1  16
ATOM     16  O   UNL     1      46.693   8.013  12.399  0.00  0.00    +0.000 OA
BRANCH  16  21
ATOM     17  C   UNL     1      44.479   5.158  12.223  0.00  0.00    +0.000 A 
ATOM     18  C   UNL     1      44.694   4.665  10.935  0.00  0.00    +0.000 A 
ATOM     19  C   UNL     1      45.601   5.312  10.091  0.00  0.00    +0.000 A 
ATOM     20  C   UNL     1      46.293   6.448  10.531  0.00  0.00    +0.000 A 
ATOM     21  C   UNL     1      46.103   6.920  11.825  0.00  0.00    +0.000 A 
ATOM     22  C   UNL     1      45.203   6.266  12.671  0.00  0.00    +0.000 A 
BRANCH  17  24
ATOM     23  O   UNL     1      43.535   3.285  13.332  0.00  0.00    +0.000 OA
ATOM     24  C   UNL     1      43.495   4.482  13.092  0.00  0.00    +0.000 C 
BRANCH  24  25
ATOM     25  O   UNL     1      42.514   5.294  13.542  0.00  0.00    +0.000 OA
ATOM     26  H   UNL     1      41.807   4.846  14.041  0.00  0.00    +0.000 HD
ENDBRANCH  24  25
ENDBRANCH  17  24
ENDBRANCH  16  21
ENDBRANCH   1  16
TORSDOF 6
ENDMDL
MODEL 6
REMARK VINA RESULT:    -6.121      4.357      9.218
REMARK INTER + INTRA:          -9.134
REMARK INTER:                  -8.008
REMARK INTRA:                  -1.126
REMARK UNBOUND:                -1.044
REMARK  Name = 
REMARK  6 active torsions:
REMARK  status: ('A' for Active; 'I' for Inactive)
REMARK    1  A    between atoms: C_2  and  O_3
REMARK    2  A    between atoms: C_2  and  C_4
REMARK    3  A    between atoms: C_8  and  O_9
REMARK    4  A    between atoms: O_9  and  C_10
REMARK    5  A    between atoms: C_10  and  C_11
REMARK    6  A    between atoms: C_15  and  N_16
REMARK                            x       y       z     vdW  Elec       q    Type
REMARK                         _______ _______ _______ _____ _____    ______ ____
ROOT
ATOM      1  C   UNL     1      48.012   4.576  16.372  0.00  0.00    +0.000 C 
ATOM      2  C   UNL     1      48.297   3.202  16.995  0.00  0.00    +0.000 C 
ATOM      3  C   UNL     1      46.998   3.880  17.258  0.00  0.00    +0.000 C 
ENDROOT
BRANCH   1   4
ATOM      4  C   UNL     1      48.778   5.760  16.938  0.00  0.00    +0.000 A 
ATOM      5  C   UNL     1      49.926   6.273  16.326  0.00  0.00    +0.000 A 
ATOM      6  C   UNL     1      50.527   7.440  16.793  0.00  0.00    +0.000 A 
ATOM      7  C   UNL     1      49.976   8.130  17.876  0.00  0.00    +0.000 A 
ATOM      8  C   UNL     1      48.840   7.654  18.538  0.00  0.00    +0.000 A 
ATOM      9  C   UNL     1      48.303   6.442  18.074  0.00  0.00    +0.000 A 
BRANCH   8  10
ATOM     10  N   UNL     1      48.253   8.298  19.617  0.00  0.00    +0.000 N 
ATOM     11  C   UNL     1      48.516   7.884  20.995  0.00  0.00    +0.000 C 
ATOM     12  C   UNL     1      47.235   8.095  21.807  0.00  0.00    +0.000 C 
ATOM     13  C   UNL     1      46.713   9.527  21.691  0.00  0.00    +0.000 C 
ATOM     14  C   UNL     1      46.593   9.966  20.232  0.00  0.00    +0.000 C 
ATOM     15  C   UNL     1      47.894   9.717  19.473  0.00  0.00    +0.000 C 
ENDBRANCH   8  10
ENDBRANCH   1   4
BRANCH   1  16
ATOM     16  O   UNL     1      47.946   4.447  14.937  0.00  0.00    +0.000 OA
BRANCH  16  21
ATOM     17  C   UNL     1      44.872   5.305  13.234  0.00  0.00    +0.000 A 
ATOM     18  C   UNL     1      45.145   6.564  12.697  0.00  0.00    +0.000 A 
ATOM     19  C   UNL     1      46.392   7.153  12.918  0.00  0.00    +0.000 A 
ATOM     20  C   UNL     1      47.368   6.487  13.672  0.00  0.00    +0.000 A 
ATOM     21  C   UNL     1      47.108   5.219  14.180  0.00  0.00    +0.000 A 
ATOM     22  C   UNL     1      45.862   4.628  13.950  0.00  0.00    +0.000 A 
BRANCH  17  24
ATOM     23  O   UNL     1      43.379   3.609  12.511  0.00  0.00    +0.000 OA
ATOM     24  C   UNL     1      43.538   4.709  13.018  0.00  0.00    +0.000 C 
BRANCH  24  25
ATOM     25  O   UNL     1      42.515   5.515  13.374  0.00  0.00    +0.000 OA
ATOM     26  H   UNL     1      41.750   5.499  12.769  0.00  0.00    +0.000 HD
ENDBRANCH  24  25
ENDBRANCH  17  24
ENDBRANCH  16  21
ENDBRANCH   1  16
TORSDOF 6
ENDMDL
MODEL 7
REMARK VINA RESULT:    -6.099      2.693      4.995
REMARK INTER + INTRA:          -9.105
REMARK INTER:                  -8.082
REMARK INTRA:                  -1.022
REMARK UNBOUND:                -1.044
REMARK  Name = 
REMARK  6 active torsions:
REMARK  status: ('A' for Active; 'I' for Inactive)
REMARK    1  A    between atoms: C_2  and  O_3
REMARK    2  A    between atoms: C_2  and  C_4
REMARK    3  A    between atoms: C_8  and  O_9
REMARK    4  A    between atoms: O_9  and  C_10
REMARK    5  A    between atoms: C_10  and  C_11
REMARK    6  A    between atoms: C_15  and  N_16
REMARK                            x       y       z     vdW  Elec       q    Type
REMARK                         _______ _______ _______ _____ _____    ______ ____
ROOT
ATOM      1  C   UNL     1      49.112   8.403  15.655  0.00  0.00    +0.000 C 
ATOM      2  C   UNL     1      49.408   9.856  16.052  0.00  0.00    +0.000 C 
ATOM      3  C   UNL     1      48.112   9.230  16.438  0.00  0.00    +0.000 C 
ENDROOT
BRANCH   1   4
ATOM      4  C   UNL     1      48.838   8.133  14.185  0.00  0.00    +0.000 A 
ATOM      5  C   UNL     1      49.677   8.598  13.168  0.00  0.00    +0.000 A 
ATOM      6  C   UNL     1      49.474   8.221  11.842  0.00  0.00    +0.000 A 
ATOM      7  C   UNL     1      48.430   7.352  11.510  0.00  0.00    +0.000 A 
ATOM      8  C   UNL     1      47.549   6.872  12.483  0.00  0.00    +0.000 A 
ATOM      9  C   UNL     1      47.753   7.325  13.797  0.00  0.00    +0.000 A 
BRANCH   8  10
ATOM     10  N   UNL     1      46.497   6.009  12.210  0.00  0.00    +0.000 N 
ATOM     11  C   UNL     1      45.923   5.147  13.242  0.00  0.00    +0.000 C 
ATOM     12  C   UNL     1      45.494   3.834  12.580  0.00  0.00    +0.000 C 
ATOM     13  C   UNL     1      44.558   4.071  11.394  0.00  0.00    +0.000 C 
ATOM     14  C   UNL     1      45.137   5.091  10.414  0.00  0.00    +0.000 C 
ATOM     15  C   UNL     1      45.560   6.369  11.135  0.00  0.00    +0.000 C 
ENDBRANCH   8  10
ENDBRANCH   1   4
BRANCH   1  16
ATOM     16  O   UNL     1      50.033   7.524  16.335  0.00  0.00    +0.000 OA
BRANCH  16  21
ATOM     17  C   UNL     1      48.318   4.512  17.368  0.00  0.00    +0.000 A 
ATOM     18  C   UNL     1      48.594   4.439  18.734  0.00  0.00    +0.000 A 
ATOM     19  C   UNL     1      49.387   5.421  19.331  0.00  0.00    +0.000 A 
ATOM     20  C   UNL     1      49.904   6.477  18.568  0.00  0.00    +0.000 A 
ATOM     21  C   UNL     1      49.603   6.567  17.213  0.00  0.00    +0.000 A 
ATOM     22  C   UNL     1      48.801   5.588  16.620  0.00  0.00    +0.000 A 
BRANCH  17  24
ATOM     23  O   UNL     1      47.647   3.099  15.584  0.00  0.00    +0.000 OA
ATOM     24  C   UNL     1      47.503   3.448  16.745  0.00  0.00    +0.000 C 
BRANCH  24  25
ATOM     25  O   UNL     1      46.547   2.946  17.555  0.00  0.00    +0.000 OA
ATOM     26  H   UNL     1      46.302   3.520  18.305  0.00  0.00    +0.000 HD
ENDBRANCH  24  25
ENDBRANCH  17  24
ENDBRANCH  16  21
ENDBRANCH   1  16
TORSDOF 6
ENDMDL
MODEL 8
REMARK VINA RESULT:    -5.881      3.355      8.206
REMARK INTER + INTRA:          -8.817
REMARK INTER:                  -8.092
REMARK INTRA:                  -0.724
REMARK UNBOUND:                -1.044
REMARK  Name = 
REMARK  6 active torsions:
REMARK  status: ('A' for Active; 'I' for Inactive)
REMARK    1  A    between atoms: C_2  and  O_3
REMARK    2  A    between atoms: C_2  and  C_4
REMARK    3  A    between atoms: C_8  and  O_9
REMARK    4  A    between atoms: O_9  and  C_10
REMARK    5  A    between atoms: C_10  and  C_11
REMARK    6  A    between atoms: C_15  and  N_16
REMARK                            x       y       z     vdW  Elec       q    Type
REMARK                         _______ _______ _______ _____ _____    ______ ____
ROOT
ATOM      1  C   UNL     1      48.173   7.578  12.834  0.00  0.00    +0.000 C 
ATOM      2  C   UNL     1      48.270   8.908  12.076  0.00  0.00    +0.000 C 
ATOM      3  C   UNL     1      48.757   7.654  11.438  0.00  0.00    +0.000 C 
ENDROOT
BRANCH   1   4
ATOM      4  C   UNL     1      49.119   7.383  14.007  0.00  0.00    +0.000 A 
ATOM      5  C   UNL     1      50.470   7.738  13.947  0.00  0.00    +0.000 A 
ATOM      6  C   UNL     1      51.280   7.673  15.080  0.00  0.00    +0.000 A 
ATOM      7  C   UNL     1      50.743   7.265  16.305  0.00  0.00    +0.000 A 
ATOM      8  C   UNL     1      49.404   6.879  16.419  0.00  0.00    +0.000 A 
ATOM      9  C   UNL     1      48.640   6.902  15.240  0.00  0.00    +0.000 A 
BRANCH   8  10
ATOM     10  N   UNL     1      48.822   6.466  17.608  0.00  0.00    +0.000 N 
ATOM     11  C   UNL     1      47.997   5.261  17.681  0.00  0.00    +0.000 C 
ATOM     12  C   UNL     1      46.886   5.508  18.706  0.00  0.00    +0.000 C 
ATOM     13  C   UNL     1      47.445   5.945  20.060  0.00  0.00    +0.000 C 
ATOM     14  C   UNL     1      48.416   7.116  19.916  0.00  0.00    +0.000 C 
ATOM     15  C   UNL     1      49.488   6.817  18.871  0.00  0.00    +0.000 C 
ENDBRANCH   8  10
ENDBRANCH   1   4
BRANCH   1  16
ATOM     16  O   UNL     1      46.784   7.240  13.034  0.00  0.00    +0.000 OA
BRANCH  16  21
ATOM     17  C   UNL     1      45.373   4.830  10.735  0.00  0.00    +0.000 A 
ATOM     18  C   UNL     1      45.215   3.690  11.524  0.00  0.00    +0.000 A 
ATOM     19  C   UNL     1      45.602   3.720  12.866  0.00  0.00    +0.000 A 
ATOM     20  C   UNL     1      46.143   4.887  13.422  0.00  0.00    +0.000 A 
ATOM     21  C   UNL     1      46.271   6.034  12.644  0.00  0.00    +0.000 A 
ATOM     22  C   UNL     1      45.875   6.003  11.304  0.00  0.00    +0.000 A 
BRANCH  17  24
ATOM     23  O   UNL     1      45.798   4.884   8.401  0.00  0.00    +0.000 OA
ATOM     24  C   UNL     1      44.989   4.773   9.310  0.00  0.00    +0.000 C 
BRANCH  24  25
ATOM     25  O   UNL     1      43.660   4.652   9.106  0.00  0.00    +0.000 OA
ATOM     26  H   UNL     1      43.400   4.476   8.183  0.00  0.00    +0.000 HD
ENDBRANCH  24  25
ENDBRANCH  17  24
ENDBRANCH  16  21
ENDBRANCH   1  16
TORSDOF 6
ENDMDL
MODEL 9
REMARK VINA RESULT:    -5.673      3.996      8.694
REMARK INTER + INTRA:          -8.542
REMARK INTER:                  -7.480
REMARK INTRA:                  -1.062
REMARK UNBOUND:                -1.044
REMARK  Name = 
REMARK  6 active torsions:
REMARK  status: ('A' for Active; 'I' for Inactive)
REMARK    1  A    between atoms: C_2  and  O_3
REMARK    2  A    between atoms: C_2  and  C_4
REMARK    3  A    between atoms: C_8  and  O_9
REMARK    4  A    between atoms: O_9  and  C_10
REMARK    5  A    between atoms: C_10  and  C_11
REMARK    6  A    between atoms: C_15  and  N_16
REMARK                            x       y       z     vdW  Elec       q    Type
REMARK                         _______ _______ _______ _____ _____    ______ ____
ROOT
ATOM      1  C   UNL     1      47.900   8.088  12.980  0.00  0.00    +0.000 C 
ATOM      2  C   UNL     1      47.908   9.358  12.118  0.00  0.00    +0.000 C 
ATOM      3  C   UNL     1      48.603   8.131  11.638  0.00  0.00    +0.000 C 
ENDROOT
BRANCH   1   4
ATOM      4  C   UNL     1      48.745   8.108  14.243  0.00  0.00    +0.000 A 
ATOM      5  C   UNL     1      50.064   7.642  14.270  0.00  0.00    +0.000 A 
ATOM      6  C   UNL     1      50.856   7.797  15.406  0.00  0.00    +0.000 A 
ATOM      7  C   UNL     1      50.345   8.442  16.536  0.00  0.00    +0.000 A 
ATOM      8  C   UNL     1      49.028   8.910  16.572  0.00  0.00    +0.000 A 
ATOM      9  C   UNL     1      48.246   8.679  15.429  0.00  0.00    +0.000 A 
BRANCH   8  10
ATOM     10  N   UNL     1      48.471   9.556  17.667  0.00  0.00    +0.000 N 
ATOM     11  C   UNL     1      48.306   8.881  18.953  0.00  0.00    +0.000 C 
ATOM     12  C   UNL     1      47.022   9.406  19.603  0.00  0.00    +0.000 C 
ATOM     13  C   UNL     1      47.018  10.931  19.710  0.00  0.00    +0.000 C 
ATOM     14  C   UNL     1      47.341  11.591  18.370  0.00  0.00    +0.000 C 
ATOM     15  C   UNL     1      48.620  11.015  17.767  0.00  0.00    +0.000 C 
ENDBRANCH   8  10
ENDBRANCH   1   4
BRANCH   1  16
ATOM     16  O   UNL     1      46.549   7.591  13.088  0.00  0.00    +0.000 OA
BRANCH  16  21
ATOM     17  C   UNL     1      44.771   4.672  11.905  0.00  0.00    +0.000 A 
ATOM     18  C   UNL     1      45.435   3.617  12.531  0.00  0.00    +0.000 A 
ATOM     19  C   UNL     1      46.521   3.885  13.370  0.00  0.00    +0.000 A 
ATOM     20  C   UNL     1      46.942   5.205  13.584  0.00  0.00    +0.000 A 
ATOM     21  C   UNL     1      46.260   6.259  12.985  0.00  0.00    +0.000 A 
ATOM     22  C   UNL     1      45.169   5.988  12.154  0.00  0.00    +0.000 A 
BRANCH  17  24
ATOM     23  O   UNL     1      43.162   3.255  10.890  0.00  0.00    +0.000 OA
ATOM     24  C   UNL     1      43.645   4.371  10.997  0.00  0.00    +0.000 C 
BRANCH  24  25
ATOM     25  O   UNL     1      43.246   5.424  10.253  0.00  0.00    +0.000 OA
ATOM     26  H   UNL     1      43.944   6.078  10.058  0.00  0.00    +0.000 HD
ENDBRANCH  24  25
ENDBRANCH  17  24
ENDBRANCH  16  21
ENDBRANCH   1  16
TORSDOF 6
ENDMDL
