MODEL 1
REMARK VINA RESULT:    -9.016      0.000      0.000
REMARK INTER + INTRA:         -13.804
REMARK INTER:                 -12.706
REMARK INTRA:                  -1.098
REMARK UNBOUND:                -1.098
REMARK  Name = 
REMARK  8 active torsions:
REMARK  status: ('A' for Active; 'I' for Inactive)
REMARK    1  A    between atoms: C_1  and  C_2
REMARK    2  A    between atoms: C_2  and  N_3
REMARK    3  A    between atoms: C_2  and  C_25
REMARK    4  A    between atoms: N_3  and  C_4
REMARK    5  A    between atoms: C_4  and  C_5
REMARK    6  A    between atoms: C_9  and  C_10
REMARK    7  A    between atoms: C_10  and  N_11
REMARK    8  A    between atoms: C_12  and  C_14
REMARK                            x       y       z     vdW  Elec       q    Type
REMARK                         _______ _______ _______ _____ _____    ______ ____
ROOT
ATOM      1  C   UNL     1      45.046   5.279  11.166  0.00  0.00    +0.000 A 
ATOM      2  C   UNL     1      46.015   6.255  10.888  0.00  0.00    +0.000 A 
ATOM      3  C   UNL     1      47.015   6.543  11.816  0.00  0.00    +0.000 A 
ATOM      4  C   UNL     1      47.039   5.884  13.046  0.00  0.00    +0.000 A 
ATOM      5  C   UNL     1      46.058   4.935  13.363  0.00  0.00    +0.000 A 
ATOM      6  C   UNL     1      45.092   4.608  12.398  0.00  0.00    +0.000 A 
ENDROOT
BRANCH   1   7
ATOM      7  C   UNL     1      43.886   5.066  10.225  0.00  0.00    +0.000 C 
BRANCH   7   8
ATOM      8  N   UNL     1      44.254   4.323   9.021  0.00  0.00    +0.000 NA
ATOM      9  H   UNL     1      44.813   4.931   8.421  0.00  0.00    +0.000 HD
BRANCH   8  11
ATOM     10  C   UNL     1      44.167   1.912   9.697  0.00  0.00    +0.000 C 
ATOM     11  C   UNL     1      45.044   3.118   9.324  0.00  0.00    +0.000 C 
BRANCH  11  12
ATOM     12  C   UNL     1      45.929   2.758   8.139  0.00  0.00    +0.000 A 
ATOM     13  C   UNL     1      46.490   1.476   8.034  0.00  0.00    +0.000 A 
ATOM     14  C   UNL     1      47.256   1.121   6.921  0.00  0.00    +0.000 A 
ATOM     15  C   UNL     1      47.472   2.043   5.898  0.00  0.00    +0.000 A 
ATOM     16  C   UNL     1      46.937   3.326   5.995  0.00  0.00    +0.000 A 
ATOM     17  C   UNL     1      46.175   3.682   7.109  0.00  0.00    +0.000 A 
ENDBRANCH  11  12
ENDBRANCH   8  11
ENDBRANCH   7   8
ENDBRANCH   1   7
BRANCH   5  18
ATOM     18  C   UNL     1      46.009   4.309  14.731  0.00  0.00    +0.000 C 
BRANCH  18  19
ATOM     19  N   UNL     1      47.211   4.547  15.482  0.00  0.00    +0.000 N 
ATOM     20  C   UNL     1      47.394   3.976  16.716  0.00  0.00    +0.000 C 
ATOM     21  O   UNL     1      46.579   3.202  17.206  0.00  0.00    +0.000 OA
ATOM     22  H   UNL     1      47.752   5.369  15.228  0.00  0.00    +0.000 HD
BRANCH  20  23
ATOM     23  C   UNL     1      48.659   4.285  17.393  0.00  0.00    +0.000 A 
ATOM     24  C   UNL     1      48.806   5.489  18.069  0.00  0.00    +0.000 A 
ATOM     25  S   UNL     1      50.321   5.662  18.834  0.00  0.00    +0.000 S 
ATOM     26  C   UNL     1      50.853   4.157  18.243  0.00  0.00    +0.000 A 
ATOM     27  N   UNL     1      52.106   3.702  18.513  0.00  0.00    +0.000 NA
ATOM     28  C   UNL     1      52.385   2.562  17.978  0.00  0.00    +0.000 A 
ATOM     29  N   UNL     1      51.522   1.830  17.202  0.00  0.00    +0.000 N 
ATOM     30  C   UNL     1      50.237   2.234  16.928  0.00  0.00    +0.000 A 
ATOM     31  O   UNL     1      49.477   1.533  16.274  0.00  0.00    +0.000 OA
ATOM     32  C   UNL     1      49.879   3.522  17.494  0.00  0.00    +0.000 A 
ATOM     33  H   UNL     1      51.796   0.936  16.824  0.00  0.00    +0.000 HD
ENDBRANCH  20  23
ENDBRANCH  18  19
ENDBRANCH   5  18
TORSDOF 7
ENDMDL
MODEL 2
REMARK VINA RESULT:    -8.121      2.085      3.100
REMARK INTER + INTRA:         -12.543
REMARK INTER:                 -11.200
REMARK INTRA:                  -1.343
REMARK UNBOUND:                -1.098
REMARK  Name = 
REMARK  8 active torsions:
REMARK  status: ('A' for Active; 'I' for Inactive)
REMARK    1  A    between atoms: C_1  and  C_2
REMARK    2  A    between atoms: C_2  and  N_3
REMARK    3  A    between atoms: C_2  and  C_25
REMARK    4  A    between atoms: N_3  and  C_4
REMARK    5  A    between atoms: C_4  and  C_5
REMARK    6  A    between atoms: C_9  and  C_10
REMARK    7  A    between atoms: C_10  and  N_11
REMARK    8  A    between atoms: C_12  and  C_14
REMARK                            x       y       z     vdW  Elec       q    Type
REMARK                         _______ _______ _______ _____ _____    ______ ____
ROOT
ATOM      1  C   UNL     1      45.423   6.819  11.405  0.00  0.00    +0.000 A 
ATOM      2  C   UNL     1      44.786   8.061  11.549  0.00  0.00    +0.000 A 
ATOM      3  C   UNL     1      45.509   9.186  11.942  0.00  0.00    +0.000 A 
ATOM      4  C   UNL     1      46.871   9.076  12.230  0.00  0.00    +0.000 A 
ATOM      5  C   UNL     1      47.520   7.839  12.134  0.00  0.00    +0.000 A 
ATOM      6  C   UNL     1      46.797   6.725  11.678  0.00  0.00    +0.000 A 
ENDROOT
BRANCH   1   7
ATOM      7  C   UNL     1      44.617   5.576  11.116  0.00  0.00    +0.000 C 
BRANCH   7   8
ATOM      8  N   UNL     1      44.940   4.973   9.825  0.00  0.00    +0.000 NA
ATOM      9  H   UNL     1      45.780   5.421   9.455  0.00  0.00    +0.000 HD
BRANCH   8  11
ATOM     10  C   UNL     1      43.930   2.723  10.269  0.00  0.00    +0.000 C 
ATOM     11  C   UNL     1      45.195   3.527   9.929  0.00  0.00    +0.000 C 
BRANCH  11  12
ATOM     12  C   UNL     1      45.798   3.004   8.632  0.00  0.00    +0.000 A 
ATOM     13  C   UNL     1      46.068   3.881   7.570  0.00  0.00    +0.000 A 
ATOM     14  C   UNL     1      46.674   3.418   6.399  0.00  0.00    +0.000 A 
ATOM     15  C   UNL     1      47.018   2.074   6.274  0.00  0.00    +0.000 A 
ATOM     16  C   UNL     1      46.741   1.187   7.313  0.00  0.00    +0.000 A 
ATOM     17  C   UNL     1      46.132   1.647   8.481  0.00  0.00    +0.000 A 
ENDBRANCH  11  12
ENDBRANCH   8  11
ENDBRANCH   7   8
ENDBRANCH   1   7
BRANCH   5  18
ATOM     18  C   UNL     1      48.958   7.691  12.558  0.00  0.00    +0.000 C 
BRANCH  18  19
ATOM     19  N   UNL     1      49.098   6.866  13.727  0.00  0.00    +0.000 N 
ATOM     20  C   UNL     1      48.969   7.401  14.984  0.00  0.00    +0.000 C 
ATOM     21  O   UNL     1      48.678   8.579  15.167  0.00  0.00    +0.000 OA
ATOM     22  H   UNL     1      49.591   5.986  13.608  0.00  0.00    +0.000 HD
BRANCH  20  23
ATOM     23  C   UNL     1      49.129   6.469  16.106  0.00  0.00    +0.000 A 
ATOM     24  C   UNL     1      50.078   6.723  17.087  0.00  0.00    +0.000 A 
ATOM     25  S   UNL     1      50.095   5.562  18.337  0.00  0.00    +0.000 S 
ATOM     26  C   UNL     1      48.873   4.650  17.581  0.00  0.00    +0.000 A 
ATOM     27  N   UNL     1      48.428   3.486  18.128  0.00  0.00    +0.000 NA
ATOM     28  C   UNL     1      47.521   2.885  17.434  0.00  0.00    +0.000 A 
ATOM     29  N   UNL     1      47.011   3.345  16.246  0.00  0.00    +0.000 N 
ATOM     30  C   UNL     1      47.407   4.530  15.672  0.00  0.00    +0.000 A 
ATOM     31  O   UNL     1      46.896   4.935  14.638  0.00  0.00    +0.000 OA
ATOM     32  C   UNL     1      48.441   5.237  16.406  0.00  0.00    +0.000 A 
ATOM     33  H   UNL     1      46.291   2.835  15.760  0.00  0.00    +0.000 HD
ENDBRANCH  20  23
ENDBRANCH  18  19
ENDBRANCH   5  18
TORSDOF 7
ENDMDL
MODEL 3
REMARK VINA RESULT:    -7.890      2.280      2.876
REMARK INTER + INTRA:         -12.217
REMARK INTER:                 -11.513
REMARK INTRA:                  -0.704
REMARK UNBOUND:                -1.098
REMARK  Name = 
REMARK  8 active torsions:
REMARK  status: ('A' for Active; 'I' for Inactive)
REMARK    1  A    between atoms: C_1  and  C_2
REMARK    2  A    between atoms: C_2  and  N_3
REMARK    3  A    between atoms: C_2  and  C_25
REMARK    4  A    between atoms: N_3  and  C_4
REMARK    5  A    between atoms: C_4  and  C_5
REMARK    6  A    between atoms: C_9  and  C_10
REMARK    7  A    between atoms: C_10  and  N_11
REMARK    8  A    between atoms: C_12  and  C_14
REMARK                            x       y       z     vdW  Elec       q    Type
REMARK                         _______ _______ _______ _____ _____    ______ ____
ROOT
ATOM      1  C   UNL     1      45.319   5.127  12.135  0.00  0.00    +0.000 A 
ATOM      2  C   UNL     1      44.726   6.368  11.859  0.00  0.00    +0.000 A 
ATOM      3  C   UNL     1      45.343   7.552  12.259  0.00  0.00    +0.000 A 
ATOM      4  C   UNL     1      46.543   7.510  12.971  0.00  0.00    +0.000 A 
ATOM      5  C   UNL     1      47.133   6.282  13.295  0.00  0.00    +0.000 A 
ATOM      6  C   UNL     1      46.536   5.098  12.834  0.00  0.00    +0.000 A 
ENDROOT
BRANCH   1   7
ATOM      7  C   UNL     1      44.587   3.845  11.826  0.00  0.00    +0.000 C 
BRANCH   7   8
ATOM      8  N   UNL     1      45.293   2.999  10.866  0.00  0.00    +0.000 NA
ATOM      9  H   UNL     1      45.321   2.045  11.231  0.00  0.00    +0.000 HD
BRANCH   8  11
ATOM     10  C   UNL     1      43.916   4.290   9.219  0.00  0.00    +0.000 C 
ATOM     11  C   UNL     1      44.634   2.973   9.550  0.00  0.00    +0.000 C 
BRANCH  11  12
ATOM     12  C   UNL     1      45.650   2.657   8.460  0.00  0.00    +0.000 A 
ATOM     13  C   UNL     1      46.147   1.353   8.308  0.00  0.00    +0.000 A 
ATOM     14  C   UNL     1      47.035   1.045   7.274  0.00  0.00    +0.000 A 
ATOM     15  C   UNL     1      47.437   2.034   6.379  0.00  0.00    +0.000 A 
ATOM     16  C   UNL     1      46.966   3.337   6.527  0.00  0.00    +0.000 A 
ATOM     17  C   UNL     1      46.082   3.648   7.562  0.00  0.00    +0.000 A 
ENDBRANCH  11  12
ENDBRANCH   8  11
ENDBRANCH   7   8
ENDBRANCH   1   7
BRANCH   5  18
ATOM     18  C   UNL     1      48.362   6.225  14.164  0.00  0.00    +0.000 C 
BRANCH  18  19
ATOM     19  N   UNL     1      48.074   6.549  15.535  0.00  0.00    +0.000 N 
ATOM     20  C   UNL     1      49.003   6.328  16.519  0.00  0.00    +0.000 C 
ATOM     21  O   UNL     1      50.127   5.903  16.275  0.00  0.00    +0.000 OA
ATOM     22  H   UNL     1      47.094   6.639  15.786  0.00  0.00    +0.000 HD
BRANCH  20  23
ATOM     23  C   UNL     1      48.604   6.697  17.883  0.00  0.00    +0.000 A 
ATOM     24  C   UNL     1      48.257   8.011  18.171  0.00  0.00    +0.000 A 
ATOM     25  S   UNL     1      47.778   8.251  19.790  0.00  0.00    +0.000 S 
ATOM     26  C   UNL     1      48.069   6.618  20.176  0.00  0.00    +0.000 A 
ATOM     27  N   UNL     1      47.880   6.153  21.440  0.00  0.00    +0.000 NA
ATOM     28  C   UNL     1      48.167   4.905  21.596  0.00  0.00    +0.000 A 
ATOM     29  N   UNL     1      48.619   4.075  20.601  0.00  0.00    +0.000 N 
ATOM     30  C   UNL     1      48.794   4.492  19.303  0.00  0.00    +0.000 A 
ATOM     31  O   UNL     1      49.150   3.715  18.429  0.00  0.00    +0.000 OA
ATOM     32  C   UNL     1      48.501   5.897  19.078  0.00  0.00    +0.000 A 
ATOM     33  H   UNL     1      48.811   3.103  20.784  0.00  0.00    +0.000 HD
ENDBRANCH  20  23
ENDBRANCH  18  19
ENDBRANCH   5  18
TORSDOF 7
ENDMDL
MODEL 4
REMARK VINA RESULT:    -7.816      2.559      3.681
REMARK INTER + INTRA:         -12.112
REMARK INTER:                 -10.940
REMARK INTRA:                  -1.173
REMARK UNBOUND:                -1.098
REMARK  Name = 
REMARK  8 active torsions:
REMARK  status: ('A' for Active; 'I' for Inactive)
REMARK    1  A    between atoms: C_1  and  C_2
REMARK    2  A    between atoms: C_2  and  N_3
REMARK    3  A    between atoms: C_2  and  C_25
REMARK    4  A    between atoms: N_3  and  C_4
REMARK    5  A    between atoms: C_4  and  C_5
REMARK    6  A    between atoms: C_9  and  C_10
REMARK    7  A    between atoms: C_10  and  N_11
REMARK    8  A    between atoms: C_12  and  C_14
REMARK                            x       y       z     vdW  Elec       q    Type
REMARK                         _______ _______ _______ _____ _____    ______ ____
ROOT
ATOM      1  C   UNL     1      45.543   5.601  11.873  0.00  0.00    +0.000 A 
ATOM      2  C   UNL     1      46.338   6.730  11.621  0.00  0.00    +0.000 A 
ATOM      3  C   UNL     1      47.443   7.010  12.423  0.00  0.00    +0.000 A 
ATOM      4  C   UNL     1      47.747   6.186  13.508  0.00  0.00    +0.000 A 
ATOM      5  C   UNL     1      46.944   5.078  13.806  0.00  0.00    +0.000 A 
ATOM      6  C   UNL     1      45.870   4.769  12.955  0.00  0.00    +0.000 A 
ENDROOT
BRANCH   1   7
ATOM      7  C   UNL     1      44.271   5.374  11.095  0.00  0.00    +0.000 C 
BRANCH   7   8
ATOM      8  N   UNL     1      44.497   4.728   9.804  0.00  0.00    +0.000 NA
ATOM      9  H   UNL     1      45.165   5.288   9.271  0.00  0.00    +0.000 HD
BRANCH   8  11
ATOM     10  C   UNL     1      43.973   2.338  10.340  0.00  0.00    +0.000 C 
ATOM     11  C   UNL     1      45.042   3.368   9.944  0.00  0.00    +0.000 C 
BRANCH  11  12
ATOM     12  C   UNL     1      45.713   2.934   8.648  0.00  0.00    +0.000 A 
ATOM     13  C   UNL     1      46.024   3.879   7.657  0.00  0.00    +0.000 A 
ATOM     14  C   UNL     1      46.691   3.496   6.491  0.00  0.00    +0.000 A 
ATOM     15  C   UNL     1      47.056   2.165   6.299  0.00  0.00    +0.000 A 
ATOM     16  C   UNL     1      46.740   1.212   7.265  0.00  0.00    +0.000 A 
ATOM     17  C   UNL     1      46.070   1.592   8.428  0.00  0.00    +0.000 A 
ENDBRANCH  11  12
ENDBRANCH   8  11
ENDBRANCH   7   8
ENDBRANCH   1   7
BRANCH   5  18
ATOM     18  C   UNL     1      47.196   4.256  15.042  0.00  0.00    +0.000 C 
BRANCH  18  19
ATOM     19  N   UNL     1      47.152   5.049  16.240  0.00  0.00    +0.000 N 
ATOM     20  C   UNL     1      48.289   5.281  16.972  0.00  0.00    +0.000 C 
ATOM     21  O   UNL     1      49.391   4.875  16.615  0.00  0.00    +0.000 OA
ATOM     22  H   UNL     1      46.244   5.157  16.683  0.00  0.00    +0.000 HD
BRANCH  20  23
ATOM     23  C   UNL     1      48.130   6.105  18.175  0.00  0.00    +0.000 A 
ATOM     24  C   UNL     1      47.896   5.500  19.403  0.00  0.00    +0.000 A 
ATOM     25  S   UNL     1      47.782   6.604  20.698  0.00  0.00    +0.000 S 
ATOM     26  C   UNL     1      47.988   7.934  19.654  0.00  0.00    +0.000 A 
ATOM     27  N   UNL     1      47.963   9.208  20.130  0.00  0.00    +0.000 NA
ATOM     28  C   UNL     1      48.103  10.117  19.225  0.00  0.00    +0.000 A 
ATOM     29  N   UNL     1      48.273   9.868  17.886  0.00  0.00    +0.000 N 
ATOM     30  C   UNL     1      48.336   8.598  17.364  0.00  0.00    +0.000 A 
ATOM     31  O   UNL     1      48.539   8.411  16.173  0.00  0.00    +0.000 OA
ATOM     32  C   UNL     1      48.166   7.538  18.341  0.00  0.00    +0.000 A 
ATOM     33  H   UNL     1      48.392  10.624  17.230  0.00  0.00    +0.000 HD
ENDBRANCH  20  23
ENDBRANCH  18  19
ENDBRANCH   5  18
TORSDOF 7
ENDMDL
MODEL 5
REMARK VINA RESULT:    -7.673      3.400      8.970
REMARK INTER + INTRA:         -11.911
REMARK INTER:                 -10.723
REMARK INTRA:                  -1.188
REMARK UNBOUND:                -1.098
REMARK  Name = 
REMARK  8 active torsions:
REMARK  status: ('A' for Active; 'I' for Inactive)
REMARK    1  A    between atoms: C_1  and  C_2
REMARK    2  A    between atoms: C_2  and  N_3
REMARK    3  A    between atoms: C_2  and  C_25
REMARK    4  A    between atoms: N_3  and  C_4
REMARK    5  A    between atoms: C_4  and  C_5
REMARK    6  A    between atoms: C_9  and  C_10
REMARK    7  A    between atoms: C_10  and  N_11
REMARK    8  A    between atoms: C_12  and  C_14
REMARK                            x       y       z     vdW  Elec       q    Type
REMARK                         _______ _______ _______ _____ _____    ______ ____
ROOT
ATOM      1  C   UNL     1      49.249   7.040  15.285  0.00  0.00    +0.000 A 
ATOM      2  C   UNL     1      50.560   7.519  15.139  0.00  0.00    +0.000 A 
ATOM      3  C   UNL     1      50.955   8.157  13.964  0.00  0.00    +0.000 A 
ATOM      4  C   UNL     1      50.053   8.293  12.907  0.00  0.00    +0.000 A 
ATOM      5  C   UNL     1      48.752   7.786  13.012  0.00  0.00    +0.000 A 
ATOM      6  C   UNL     1      48.347   7.201  14.222  0.00  0.00    +0.000 A 
ENDROOT
BRANCH   1   7
ATOM      7  C   UNL     1      48.863   6.230  16.497  0.00  0.00    +0.000 C 
BRANCH   7   8
ATOM      8  N   UNL     1      49.019   4.790  16.297  0.00  0.00    +0.000 NA
ATOM      9  H   UNL     1      49.888   4.624  15.787  0.00  0.00    +0.000 HD
BRANCH   8  11
ATOM     10  C   UNL     1      47.914   3.064  17.738  0.00  0.00    +0.000 C 
ATOM     11  C   UNL     1      49.080   4.050  17.568  0.00  0.00    +0.000 C 
BRANCH  11  12
ATOM     12  C   UNL     1      50.402   3.302  17.678  0.00  0.00    +0.000 A 
ATOM     13  C   UNL     1      51.520   3.917  18.263  0.00  0.00    +0.000 A 
ATOM     14  C   UNL     1      52.719   3.216  18.419  0.00  0.00    +0.000 A 
ATOM     15  C   UNL     1      52.816   1.893  17.993  0.00  0.00    +0.000 A 
ATOM     16  C   UNL     1      51.720   1.274  17.395  0.00  0.00    +0.000 A 
ATOM     17  C   UNL     1      50.524   1.974  17.235  0.00  0.00    +0.000 A 
ENDBRANCH  11  12
ENDBRANCH   8  11
ENDBRANCH   7   8
ENDBRANCH   1   7
BRANCH   5  18
ATOM     18  C   UNL     1      47.815   7.824  11.833  0.00  0.00    +0.000 C 
BRANCH  18  19
ATOM     19  N   UNL     1      47.079   6.598  11.685  0.00  0.00    +0.000 N 
ATOM     20  C   UNL     1      45.707   6.595  11.702  0.00  0.00    +0.000 C 
ATOM     21  O   UNL     1      45.052   7.628  11.788  0.00  0.00    +0.000 OA
ATOM     22  H   UNL     1      47.582   5.737  11.882  0.00  0.00    +0.000 HD
BRANCH  20  23
ATOM     23  C   UNL     1      45.059   5.288  11.540  0.00  0.00    +0.000 A 
ATOM     24  C   UNL     1      44.384   4.713  12.609  0.00  0.00    +0.000 A 
ATOM     25  S   UNL     1      43.653   3.219  12.230  0.00  0.00    +0.000 S 
ATOM     26  C   UNL     1      44.260   3.263  10.640  0.00  0.00    +0.000 A 
ATOM     27  N   UNL     1      44.019   2.245   9.771  0.00  0.00    +0.000 NA
ATOM     28  C   UNL     1      44.563   2.396   8.610  0.00  0.00    +0.000 A 
ATOM     29  N   UNL     1      45.320   3.477   8.236  0.00  0.00    +0.000 N 
ATOM     30  C   UNL     1      45.564   4.543   9.069  0.00  0.00    +0.000 A 
ATOM     31  O   UNL     1      46.201   5.515   8.687  0.00  0.00    +0.000 OA
ATOM     32  C   UNL     1      44.987   4.413  10.395  0.00  0.00    +0.000 A 
ATOM     33  H   UNL     1      45.706   3.543   7.307  0.00  0.00    +0.000 HD
ENDBRANCH  20  23
ENDBRANCH  18  19
ENDBRANCH   5  18
TORSDOF 7
ENDMDL
MODEL 6
REMARK VINA RESULT:    -7.666      4.402      7.427
REMARK INTER + INTRA:         -11.902
REMARK INTER:                 -10.617
REMARK INTRA:                  -1.285
REMARK UNBOUND:                -1.098
REMARK  Name = 
REMARK  8 active torsions:
REMARK  status: ('A' for Active; 'I' for Inactive)
REMARK    1  A    between atoms: C_1  and  C_2
REMARK    2  A    between atoms: C_2  and  N_3
REMARK    3  A    between atoms: C_2  and  C_25
REMARK    4  A    between atoms: N_3  and  C_4
REMARK    5  A    between atoms: C_4  and  C_5
REMARK    6  A    between atoms: C_9  and  C_10
REMARK    7  A    between atoms: C_10  and  N_11
REMARK    8  A    between atoms: C_12  and  C_14
REMARK                            x       y       z     vdW  Elec       q    Type
REMARK                         _______ _______ _______ _____ _____    ______ ____
ROOT
ATOM      1  C   UNL     1      46.538   4.417  13.587  0.00  0.00    +0.000 A 
ATOM      2  C   UNL     1      46.944   3.907  14.829  0.00  0.00    +0.000 A 
ATOM      3  C   UNL     1      47.719   4.680  15.692  0.00  0.00    +0.000 A 
ATOM      4  C   UNL     1      48.127   5.959  15.309  0.00  0.00    +0.000 A 
ATOM      5  C   UNL     1      47.769   6.474  14.056  0.00  0.00    +0.000 A 
ATOM      6  C   UNL     1      46.937   5.712  13.221  0.00  0.00    +0.000 A 
ENDROOT
BRANCH   1   7
ATOM      7  C   UNL     1      45.819   3.533  12.597  0.00  0.00    +0.000 C 
BRANCH   7   8
ATOM      8  N   UNL     1      44.404   3.352  12.914  0.00  0.00    +0.000 NA
ATOM      9  H   UNL     1      44.148   4.010  13.652  0.00  0.00    +0.000 HD
BRANCH   8  11
ATOM     10  C   UNL     1      42.828   4.963  11.817  0.00  0.00    +0.000 C 
ATOM     11  C   UNL     1      43.533   3.599  11.752  0.00  0.00    +0.000 C 
BRANCH  11  12
ATOM     12  C   UNL     1      44.336   3.500  10.462  0.00  0.00    +0.000 A 
ATOM     13  C   UNL     1      44.504   2.261   9.824  0.00  0.00    +0.000 A 
ATOM     14  C   UNL     1      45.191   2.173   8.610  0.00  0.00    +0.000 A 
ATOM     15  C   UNL     1      45.718   3.319   8.019  0.00  0.00    +0.000 A 
ATOM     16  C   UNL     1      45.574   4.554   8.649  0.00  0.00    +0.000 A 
ATOM     17  C   UNL     1      44.892   4.643   9.864  0.00  0.00    +0.000 A 
ENDBRANCH  11  12
ENDBRANCH   8  11
ENDBRANCH   7   8
ENDBRANCH   1   7
BRANCH   5  18
ATOM     18  C   UNL     1      48.305   7.802  13.590  0.00  0.00    +0.000 C 
BRANCH  18  19
ATOM     19  N   UNL     1      47.256   8.698  13.185  0.00  0.00    +0.000 N 
ATOM     20  C   UNL     1      47.443   9.575  12.146  0.00  0.00    +0.000 C 
ATOM     21  O   UNL     1      48.477   9.597  11.487  0.00  0.00    +0.000 OA
ATOM     22  H   UNL     1      46.524   8.881  13.865  0.00  0.00    +0.000 HD
BRANCH  20  23
ATOM     23  C   UNL     1      46.306  10.442  11.816  0.00  0.00    +0.000 A 
ATOM     24  C   UNL     1      46.442  11.822  11.897  0.00  0.00    +0.000 A 
ATOM     25  S   UNL     1      45.039  12.674  11.435  0.00  0.00    +0.000 S 
ATOM     26  C   UNL     1      44.183  11.227  11.163  0.00  0.00    +0.000 A 
ATOM     27  N   UNL     1      42.882  11.247  10.768  0.00  0.00    +0.000 NA
ATOM     28  C   UNL     1      42.350  10.080  10.628  0.00  0.00    +0.000 A 
ATOM     29  N   UNL     1      43.004   8.892  10.840  0.00  0.00    +0.000 N 
ATOM     30  C   UNL     1      44.326   8.822  11.209  0.00  0.00    +0.000 A 
ATOM     31  O   UNL     1      44.892   7.746  11.341  0.00  0.00    +0.000 OA
ATOM     32  C   UNL     1      44.966  10.112  11.397  0.00  0.00    +0.000 A 
ATOM     33  H   UNL     1      42.536   8.011  10.698  0.00  0.00    +0.000 HD
ENDBRANCH  20  23
ENDBRANCH  18  19
ENDBRANCH   5  18
TORSDOF 7
ENDMDL
MODEL 7
REMARK VINA RESULT:    -7.597      3.615      9.976
REMARK INTER + INTRA:         -11.805
REMARK INTER:                  -9.458
REMARK INTRA:                  -2.347
REMARK UNBOUND:                -1.098
REMARK  Name = 
REMARK  8 active torsions:
REMARK  status: ('A' for Active; 'I' for Inactive)
REMARK    1  A    between atoms: C_1  and  C_2
REMARK    2  A    between atoms: C_2  and  N_3
REMARK    3  A    between atoms: C_2  and  C_25
REMARK    4  A    between atoms: N_3  and  C_4
REMARK    5  A    between atoms: C_4  and  C_5
REMARK    6  A    between atoms: C_9  and  C_10
REMARK    7  A    between atoms: C_10  and  N_11
REMARK    8  A    between atoms: C_12  and  C_14
REMARK                            x       y       z     vdW  Elec       q    Type
REMARK                         _______ _______ _______ _____ _____    ______ ____
ROOT
ATOM      1  C   UNL     1      50.637   4.453  17.963  0.00  0.00    +0.000 A 
ATOM      2  C   UNL     1      49.641   3.490  18.184  0.00  0.00    +0.000 A 
ATOM      3  C   UNL     1      48.419   3.570  17.517  0.00  0.00    +0.000 A 
ATOM      4  C   UNL     1      48.165   4.632  16.648  0.00  0.00    +0.000 A 
ATOM      5  C   UNL     1      49.128   5.628  16.443  0.00  0.00    +0.000 A 
ATOM      6  C   UNL     1      50.377   5.505  17.071  0.00  0.00    +0.000 A 
ENDROOT
BRANCH   1   7
ATOM      7  C   UNL     1      51.902   4.446  18.785  0.00  0.00    +0.000 C 
BRANCH   7   8
ATOM      8  N   UNL     1      51.655   4.259  20.214  0.00  0.00    +0.000 NA
ATOM      9  H   UNL     1      52.440   3.745  20.616  0.00  0.00    +0.000 HD
BRANCH   8  11
ATOM     10  C   UNL     1      52.537   6.592  20.462  0.00  0.00    +0.000 C 
ATOM     11  C   UNL     1      51.522   5.537  20.933  0.00  0.00    +0.000 C 
BRANCH  11  12
ATOM     12  C   UNL     1      50.109   6.083  20.777  0.00  0.00    +0.000 A 
ATOM     13  C   UNL     1      49.891   7.323  20.155  0.00  0.00    +0.000 A 
ATOM     14  C   UNL     1      48.594   7.803  19.959  0.00  0.00    +0.000 A 
ATOM     15  C   UNL     1      47.498   7.052  20.380  0.00  0.00    +0.000 A 
ATOM     16  C   UNL     1      47.699   5.827  21.015  0.00  0.00    +0.000 A 
ATOM     17  C   UNL     1      48.994   5.349  21.216  0.00  0.00    +0.000 A 
ENDBRANCH  11  12
ENDBRANCH   8  11
ENDBRANCH   7   8
ENDBRANCH   1   7
BRANCH   5  18
ATOM     18  C   UNL     1      48.815   6.837  15.600  0.00  0.00    +0.000 C 
BRANCH  18  19
ATOM     19  N   UNL     1      47.633   6.653  14.803  0.00  0.00    +0.000 N 
ATOM     20  C   UNL     1      47.726   6.312  13.478  0.00  0.00    +0.000 C 
ATOM     21  O   UNL     1      48.802   6.097  12.931  0.00  0.00    +0.000 OA
ATOM     22  H   UNL     1      46.778   7.079  15.150  0.00  0.00    +0.000 HD
BRANCH  20  23
ATOM     23  C   UNL     1      46.456   6.148  12.760  0.00  0.00    +0.000 A 
ATOM     24  C   UNL     1      45.827   7.254  12.204  0.00  0.00    +0.000 A 
ATOM     25  S   UNL     1      44.388   6.874  11.370  0.00  0.00    +0.000 S 
ATOM     26  C   UNL     1      44.529   5.225  11.768  0.00  0.00    +0.000 A 
ATOM     27  N   UNL     1      43.585   4.328  11.375  0.00  0.00    +0.000 NA
ATOM     28  C   UNL     1      43.803   3.119  11.771  0.00  0.00    +0.000 A 
ATOM     29  N   UNL     1      44.883   2.723  12.518  0.00  0.00    +0.000 N 
ATOM     30  C   UNL     1      45.878   3.587  12.911  0.00  0.00    +0.000 A 
ATOM     31  O   UNL     1      46.853   3.192  13.534  0.00  0.00    +0.000 OA
ATOM     32  C   UNL     1      45.670   4.966  12.505  0.00  0.00    +0.000 A 
ATOM     33  H   UNL     1      45.005   1.758  12.783  0.00  0.00    +0.000 HD
ENDBRANCH  20  23
ENDBRANCH  18  19
ENDBRANCH   5  18
TORSDOF 7
ENDMDL
MODEL 8
REMARK VINA RESULT:    -7.573      3.724      9.492
REMARK INTER + INTRA:         -11.770
REMARK INTER:                 -10.179
REMARK INTRA:                  -1.591
REMARK UNBOUND:                -1.098
REMARK  Name = 
REMARK  8 active torsions:
REMARK  status: ('A' for Active; 'I' for Inactive)
REMARK    1  A    between atoms: C_1  and  C_2
REMARK    2  A    between atoms: C_2  and  N_3
REMARK    3  A    between atoms: C_2  and  C_25
REMARK    4  A    between atoms: N_3  and  C_4
REMARK    5  A    between atoms: C_4  and  C_5
REMARK    6  A    between atoms: C_9  and  C_10
REMARK    7  A    between atoms: C_10  and  N_11
REMARK    8  A    between atoms: C_12  and  C_14
REMARK                            x       y       z     vdW  Elec       q    Type
REMARK                         _______ _______ _______ _____ _____    ______ ____
ROOT
ATOM      1  C   UNL     1      49.341   4.699  18.571  0.00  0.00    +0.000 A 
ATOM      2  C   UNL     1      48.501   3.578  18.654  0.00  0.00    +0.000 A 
ATOM      3  C   UNL     1      47.648   3.254  17.600  0.00  0.00    +0.000 A 
ATOM      4  C   UNL     1      47.599   4.065  16.465  0.00  0.00    +0.000 A 
ATOM      5  C   UNL     1      48.398   5.213  16.377  0.00  0.00    +0.000 A 
ATOM      6  C   UNL     1      49.298   5.496  17.416  0.00  0.00    +0.000 A 
ENDROOT
BRANCH   1   7
ATOM      7  C   UNL     1      50.160   5.129  19.763  0.00  0.00    +0.000 C 
BRANCH   7   8
ATOM      8  N   UNL     1      51.293   4.245  20.028  0.00  0.00    +0.000 NA
ATOM      9  H   UNL     1      50.975   3.277  19.960  0.00  0.00    +0.000 HD
BRANCH   8  11
ATOM     10  C   UNL     1      53.633   5.084  19.710  0.00  0.00    +0.000 C 
ATOM     11  C   UNL     1      52.393   4.439  19.069  0.00  0.00    +0.000 C 
BRANCH  11  12
ATOM     12  C   UNL     1      52.780   3.110  18.435  0.00  0.00    +0.000 A 
ATOM     13  C   UNL     1      54.121   2.696  18.413  0.00  0.00    +0.000 A 
ATOM     14  C   UNL     1      54.474   1.452  17.884  0.00  0.00    +0.000 A 
ATOM     15  C   UNL     1      53.494   0.606  17.371  0.00  0.00    +0.000 A 
ATOM     16  C   UNL     1      52.160   1.009  17.370  0.00  0.00    +0.000 A 
ATOM     17  C   UNL     1      51.806   2.253  17.894  0.00  0.00    +0.000 A 
ENDBRANCH  11  12
ENDBRANCH   8  11
ENDBRANCH   7   8
ENDBRANCH   1   7
BRANCH   5  18
ATOM     18  C   UNL     1      48.262   6.155  15.210  0.00  0.00    +0.000 C 
BRANCH  18  19
ATOM     19  N   UNL     1      47.061   5.919  14.456  0.00  0.00    +0.000 N 
ATOM     20  C   UNL     1      46.948   6.353  13.160  0.00  0.00    +0.000 C 
ATOM     21  O   UNL     1      47.872   6.905  12.572  0.00  0.00    +0.000 OA
ATOM     22  H   UNL     1      46.220   5.717  14.990  0.00  0.00    +0.000 HD
BRANCH  20  23
ATOM     23  C   UNL     1      45.679   6.055  12.484  0.00  0.00    +0.000 A 
ATOM     24  C   UNL     1      44.931   7.087  11.932  0.00  0.00    +0.000 A 
ATOM     25  S   UNL     1      43.512   6.556  11.149  0.00  0.00    +0.000 S 
ATOM     26  C   UNL     1      43.821   4.935  11.567  0.00  0.00    +0.000 A 
ATOM     27  N   UNL     1      42.956   3.945  11.217  0.00  0.00    +0.000 NA
ATOM     28  C   UNL     1      43.300   2.770  11.624  0.00  0.00    +0.000 A 
ATOM     29  N   UNL     1      44.435   2.492  12.343  0.00  0.00    +0.000 N 
ATOM     30  C   UNL     1      45.353   3.454  12.692  0.00  0.00    +0.000 A 
ATOM     31  O   UNL     1      46.380   3.165  13.290  0.00  0.00    +0.000 OA
ATOM     32  C   UNL     1      45.003   4.799  12.272  0.00  0.00    +0.000 A 
ATOM     33  H   UNL     1      44.656   1.548  12.619  0.00  0.00    +0.000 HD
ENDBRANCH  20  23
ENDBRANCH  18  19
ENDBRANCH   5  18
TORSDOF 7
ENDMDL
MODEL 9
REMARK VINA RESULT:    -7.556      3.838     10.072
REMARK INTER + INTRA:         -11.746
REMARK INTER:                 -10.025
REMARK INTRA:                  -1.721
REMARK UNBOUND:                -1.098
REMARK  Name = 
REMARK  8 active torsions:
REMARK  status: ('A' for Active; 'I' for Inactive)
REMARK    1  A    between atoms: C_1  and  C_2
REMARK    2  A    between atoms: C_2  and  N_3
REMARK    3  A    between atoms: C_2  and  C_25
REMARK    4  A    between atoms: N_3  and  C_4
REMARK    5  A    between atoms: C_4  and  C_5
REMARK    6  A    between atoms: C_9  and  C_10
REMARK    7  A    between atoms: C_10  and  N_11
REMARK    8  A    between atoms: C_12  and  C_14
REMARK                            x       y       z     vdW  Elec       q    Type
REMARK                         _______ _______ _______ _____ _____    ______ ____
ROOT
ATOM      1  C   UNL     1      50.906   4.448  17.710  0.00  0.00    +0.000 A 
ATOM      2  C   UNL     1      51.547   3.202  17.636  0.00  0.00    +0.000 A 
ATOM      3  C   UNL     1      50.838   2.062  17.261  0.00  0.00    +0.000 A 
ATOM      4  C   UNL     1      49.471   2.147  16.989  0.00  0.00    +0.000 A 
ATOM      5  C   UNL     1      48.800   3.371  17.096  0.00  0.00    +0.000 A 
ATOM      6  C   UNL     1      49.536   4.524  17.414  0.00  0.00    +0.000 A 
ENDROOT
BRANCH   1   7
ATOM      7  C   UNL     1      51.637   5.652  18.248  0.00  0.00    +0.000 C 
BRANCH   7   8
ATOM      8  N   UNL     1      52.093   5.478  19.625  0.00  0.00    +0.000 NA
ATOM      9  H   UNL     1      53.114   5.503  19.636  0.00  0.00    +0.000 HD
BRANCH   8  11
ATOM     10  C   UNL     1      51.840   7.947  19.967  0.00  0.00    +0.000 C 
ATOM     11  C   UNL     1      51.594   6.534  20.520  0.00  0.00    +0.000 C 
BRANCH  11  12
ATOM     12  C   UNL     1      50.106   6.341  20.783  0.00  0.00    +0.000 A 
ATOM     13  C   UNL     1      49.195   7.370  20.496  0.00  0.00    +0.000 A 
ATOM     14  C   UNL     1      47.823   7.178  20.682  0.00  0.00    +0.000 A 
ATOM     15  C   UNL     1      47.344   5.958  21.155  0.00  0.00    +0.000 A 
ATOM     16  C   UNL     1      48.238   4.933  21.461  0.00  0.00    +0.000 A 
ATOM     17  C   UNL     1      49.609   5.125  21.280  0.00  0.00    +0.000 A 
ENDBRANCH  11  12
ENDBRANCH   8  11
ENDBRANCH   7   8
ENDBRANCH   1   7
BRANCH   5  18
ATOM     18  C   UNL     1      47.306   3.447  16.921  0.00  0.00    +0.000 C 
BRANCH  18  19
ATOM     19  N   UNL     1      46.921   4.445  15.961  0.00  0.00    +0.000 N 
ATOM     20  C   UNL     1      46.955   4.176  14.616  0.00  0.00    +0.000 C 
ATOM     21  O   UNL     1      47.257   3.072  14.177  0.00  0.00    +0.000 OA
ATOM     22  H   UNL     1      46.933   5.410  16.277  0.00  0.00    +0.000 HD
BRANCH  20  23
ATOM     23  C   UNL     1      46.539   5.267  13.726  0.00  0.00    +0.000 A 
ATOM     24  C   UNL     1      47.376   6.357  13.530  0.00  0.00    +0.000 A 
ATOM     25  S   UNL     1      46.755   7.506  12.432  0.00  0.00    +0.000 S 
ATOM     26  C   UNL     1      45.322   6.610  12.221  0.00  0.00    +0.000 A 
ATOM     27  N   UNL     1      44.328   7.060  11.409  0.00  0.00    +0.000 NA
ATOM     28  C   UNL     1      43.289   6.297  11.366  0.00  0.00    +0.000 A 
ATOM     29  N   UNL     1      43.155   5.118  12.055  0.00  0.00    +0.000 N 
ATOM     30  C   UNL     1      44.144   4.608  12.862  0.00  0.00    +0.000 A 
ATOM     31  O   UNL     1      44.012   3.530  13.424  0.00  0.00    +0.000 OA
ATOM     32  C   UNL     1      45.330   5.441  12.959  0.00  0.00    +0.000 A 
ATOM     33  H   UNL     1      42.322   4.558  11.967  0.00  0.00    +0.000 HD
ENDBRANCH  20  23
ENDBRANCH  18  19
ENDBRANCH   5  18
TORSDOF 7
ENDMDL
