MODEL 1
REMARK VINA RESULT:    -8.785      0.000      0.000
REMARK INTER + INTRA:         -11.343
REMARK INTER:                 -11.353
REMARK INTRA:                   0.010
REMARK UNBOUND:                 0.010
REMARK  Name = 
REMARK  5 active torsions:
REMARK  status: ('A' for Active; 'I' for Inactive)
REMARK    1  A    between atoms: C_2  and  C_3
REMARK    2  A    between atoms: C_6  and  N_7
REMARK    3  A    between atoms: N_7  and  C_8
REMARK    4  A    between atoms: C_8  and  C_9
REMARK    5  A    between atoms: C_13  and  C_14
REMARK                            x       y       z     vdW  Elec       q    Type
REMARK                         _______ _______ _______ _____ _____    ______ ____
ROOT
ATOM      1  C   UNL     1      44.072   4.822  11.400  0.00  0.00    +0.000 C 
ATOM      2  C   UNL     1      43.197   3.822  12.127  0.00  0.00    +0.000 C 
ATOM      3  C   UNL     1      42.885   5.280  12.231  0.00  0.00    +0.000 C 
ENDROOT
BRANCH   1   4
ATOM      4  C   UNL     1      45.454   5.242  11.894  0.00  0.00    +0.000 A 
ATOM      5  C   UNL     1      46.122   6.351  11.363  0.00  0.00    +0.000 A 
ATOM      6  C   UNL     1      47.233   6.896  12.003  0.00  0.00    +0.000 A 
ATOM      7  C   UNL     1      47.713   6.323  13.184  0.00  0.00    +0.000 A 
ATOM      8  C   UNL     1      47.128   5.167  13.724  0.00  0.00    +0.000 A 
ATOM      9  C   UNL     1      46.008   4.640  13.050  0.00  0.00    +0.000 A 
BRANCH   8  10
ATOM     10  C   UNL     1      47.630   4.584  14.988  0.00  0.00    +0.000 A 
ATOM     11  C   UNL     1      48.103   5.362  16.047  0.00  0.00    +0.000 A 
ATOM     12  C   UNL     1      48.591   4.737  17.194  0.00  0.00    +0.000 A 
ATOM     13  C   UNL     1      48.600   3.350  17.263  0.00  0.00    +0.000 A 
ATOM     14  C   UNL     1      48.104   2.645  16.181  0.00  0.00    +0.000 A 
ATOM     15  N   UNL     1      47.620   3.227  15.060  0.00  0.00    +0.000 NA
ENDBRANCH   8  10
ENDBRANCH   1   4
BRANCH   1  16
ATOM     16  N   UNL     1      44.009   4.843   9.931  0.00  0.00    +0.000 N 
ATOM     17  H   UNL     1      43.118   4.960   9.464  0.00  0.00    +0.000 HD
BRANCH  16  21
ATOM     18  C   UNL     1      46.723   2.770   7.507  0.00  0.00    +0.000 A 
ATOM     19  C   UNL     1      46.655   4.151   7.543  0.00  0.00    +0.000 A 
ATOM     20  N   UNL     1      45.798   4.845   8.334  0.00  0.00    +0.000 NA
ATOM     21  C   UNL     1      44.963   4.151   9.150  0.00  0.00    +0.000 A 
ATOM     22  C   UNL     1      44.979   2.748   9.160  0.00  0.00    +0.000 A 
ATOM     23 CL   UNL     1      43.911   1.838  10.171  0.00  0.00    +0.000 Cl
ATOM     24  C   UNL     1      45.867   2.056   8.335  0.00  0.00    +0.000 A 
BRANCH  18  26
ATOM     25  N   UNL     1      48.414   1.570   5.942  0.00  0.00    +0.000 NA
ATOM     26  C   UNL     1      47.656   2.103   6.641  0.00  0.00    +0.000 C 
ENDBRANCH  18  26
ENDBRANCH  16  21
ENDBRANCH   1  16
TORSDOF 5
ENDMDL
MODEL 2
REMARK VINA RESULT:    -8.059      2.563      3.304
REMARK INTER + INTRA:         -10.405
REMARK INTER:                  -9.683
REMARK INTRA:                  -0.722
REMARK UNBOUND:                 0.010
REMARK  Name = 
REMARK  5 active torsions:
REMARK  status: ('A' for Active; 'I' for Inactive)
REMARK    1  A    between atoms: C_2  and  C_3
REMARK    2  A    between atoms: C_6  and  N_7
REMARK    3  A    between atoms: N_7  and  C_8
REMARK    4  A    between atoms: C_8  and  C_9
REMARK    5  A    between atoms: C_13  and  C_14
REMARK                            x       y       z     vdW  Elec       q    Type
REMARK                         _______ _______ _______ _____ _____    ______ ____
ROOT
ATOM      1  C   UNL     1      44.668   5.424  11.513  0.00  0.00    +0.000 C 
ATOM      2  C   UNL     1      45.066   4.319  12.468  0.00  0.00    +0.000 C 
ATOM      3  C   UNL     1      43.806   5.081  12.717  0.00  0.00    +0.000 C 
ENDROOT
BRANCH   1   4
ATOM      4  C   UNL     1      45.318   6.805  11.510  0.00  0.00    +0.000 A 
ATOM      5  C   UNL     1      44.559   7.978  11.431  0.00  0.00    +0.000 A 
ATOM      6  C   UNL     1      45.123   9.220  11.716  0.00  0.00    +0.000 A 
ATOM      7  C   UNL     1      46.472   9.314  12.068  0.00  0.00    +0.000 A 
ATOM      8  C   UNL     1      47.300   8.180  12.093  0.00  0.00    +0.000 A 
ATOM      9  C   UNL     1      46.698   6.941  11.797  0.00  0.00    +0.000 A 
BRANCH   8  10
ATOM     10  C   UNL     1      48.721   8.289  12.491  0.00  0.00    +0.000 A 
ATOM     11  C   UNL     1      49.765   8.338  11.565  0.00  0.00    +0.000 A 
ATOM     12  C   UNL     1      51.083   8.406  12.019  0.00  0.00    +0.000 A 
ATOM     13  C   UNL     1      51.333   8.424  13.384  0.00  0.00    +0.000 A 
ATOM     14  C   UNL     1      50.248   8.386  14.241  0.00  0.00    +0.000 A 
ATOM     15  N   UNL     1      48.962   8.325  13.828  0.00  0.00    +0.000 NA
ENDBRANCH   8  10
ENDBRANCH   1   4
BRANCH   1  16
ATOM     16  N   UNL     1      44.246   5.037  10.159  0.00  0.00    +0.000 N 
ATOM     17  H   UNL     1      43.265   4.896   9.954  0.00  0.00    +0.000 HD
BRANCH  16  21
ATOM     18  C   UNL     1      46.672   2.846   7.541  0.00  0.00    +0.000 A 
ATOM     19  C   UNL     1      46.705   4.227   7.613  0.00  0.00    +0.000 A 
ATOM     20  N   UNL     1      45.943   4.956   8.466  0.00  0.00    +0.000 NA
ATOM     21  C   UNL     1      45.105   4.301   9.310  0.00  0.00    +0.000 A 
ATOM     22  C   UNL     1      45.021   2.901   9.287  0.00  0.00    +0.000 A 
ATOM     23 CL   UNL     1      43.947   2.040  10.334  0.00  0.00    +0.000 Cl
ATOM     24  C   UNL     1      45.812   2.171   8.398  0.00  0.00    +0.000 A 
BRANCH  18  26
ATOM     25  N   UNL     1      48.184   1.563   5.863  0.00  0.00    +0.000 NA
ATOM     26  C   UNL     1      47.507   2.139   6.610  0.00  0.00    +0.000 C 
ENDBRANCH  18  26
ENDBRANCH  16  21
ENDBRANCH   1  16
TORSDOF 5
ENDMDL
MODEL 3
REMARK VINA RESULT:    -7.929      3.119      5.366
REMARK INTER + INTRA:         -10.237
REMARK INTER:                  -9.644
REMARK INTRA:                  -0.593
REMARK UNBOUND:                 0.010
REMARK  Name = 
REMARK  5 active torsions:
REMARK  status: ('A' for Active; 'I' for Inactive)
REMARK    1  A    between atoms: C_2  and  C_3
REMARK    2  A    between atoms: C_6  and  N_7
REMARK    3  A    between atoms: N_7  and  C_8
REMARK    4  A    between atoms: C_8  and  C_9
REMARK    5  A    between atoms: C_13  and  C_14
REMARK                            x       y       z     vdW  Elec       q    Type
REMARK                         _______ _______ _______ _____ _____    ______ ____
ROOT
ATOM      1  C   UNL     1      44.569   5.072  11.569  0.00  0.00    +0.000 C 
ATOM      2  C   UNL     1      44.997   3.836  12.332  0.00  0.00    +0.000 C 
ATOM      3  C   UNL     1      43.676   4.462  12.637  0.00  0.00    +0.000 C 
ENDROOT
BRANCH   1   4
ATOM      4  C   UNL     1      45.120   6.467  11.856  0.00  0.00    +0.000 A 
ATOM      5  C   UNL     1      46.456   6.671  12.221  0.00  0.00    +0.000 A 
ATOM      6  C   UNL     1      47.020   7.945  12.199  0.00  0.00    +0.000 A 
ATOM      7  C   UNL     1      46.247   9.048  11.829  0.00  0.00    +0.000 A 
ATOM      8  C   UNL     1      44.883   8.914  11.522  0.00  0.00    +0.000 A 
ATOM      9  C   UNL     1      44.344   7.612  11.557  0.00  0.00    +0.000 A 
BRANCH   8  10
ATOM     10  C   UNL     1      44.081  10.086  11.108  0.00  0.00    +0.000 A 
ATOM     11  C   UNL     1      43.083  10.016  10.134  0.00  0.00    +0.000 A 
ATOM     12  C   UNL     1      42.392  11.173   9.774  0.00  0.00    +0.000 A 
ATOM     13  C   UNL     1      42.709  12.376  10.391  0.00  0.00    +0.000 A 
ATOM     14  C   UNL     1      43.700  12.367  11.356  0.00  0.00    +0.000 A 
ATOM     15  N   UNL     1      44.380  11.259  11.728  0.00  0.00    +0.000 NA
ENDBRANCH   8  10
ENDBRANCH   1   4
BRANCH   1  16
ATOM     16  N   UNL     1      44.242   4.916  10.144  0.00  0.00    +0.000 N 
ATOM     17  H   UNL     1      43.276   4.881   9.846  0.00  0.00    +0.000 HD
BRANCH  16  21
ATOM     18  C   UNL     1      46.735   2.931   7.427  0.00  0.00    +0.000 A 
ATOM     19  C   UNL     1      46.779   4.300   7.621  0.00  0.00    +0.000 A 
ATOM     20  N   UNL     1      45.996   4.962   8.508  0.00  0.00    +0.000 NA
ATOM     21  C   UNL     1      45.123   4.247   9.264  0.00  0.00    +0.000 A 
ATOM     22  C   UNL     1      45.027   2.855   9.115  0.00  0.00    +0.000 A 
ATOM     23 CL   UNL     1      43.909   1.920  10.047  0.00  0.00    +0.000 Cl
ATOM     24  C   UNL     1      45.841   2.195   8.193  0.00  0.00    +0.000 A 
BRANCH  18  26
ATOM     25  N   UNL     1      48.295   1.783   5.695  0.00  0.00    +0.000 NA
ATOM     26  C   UNL     1      47.596   2.297   6.466  0.00  0.00    +0.000 C 
ENDBRANCH  18  26
ENDBRANCH  16  21
ENDBRANCH   1  16
TORSDOF 5
ENDMDL
MODEL 4
REMARK VINA RESULT:    -7.523      2.786      6.605
REMARK INTER + INTRA:          -9.712
REMARK INTER:                  -8.766
REMARK INTRA:                  -0.946
REMARK UNBOUND:                 0.010
REMARK  Name = 
REMARK  5 active torsions:
REMARK  status: ('A' for Active; 'I' for Inactive)
REMARK    1  A    between atoms: C_2  and  C_3
REMARK    2  A    between atoms: C_6  and  N_7
REMARK    3  A    between atoms: N_7  and  C_8
REMARK    4  A    between atoms: C_8  and  C_9
REMARK    5  A    between atoms: C_13  and  C_14
REMARK                            x       y       z     vdW  Elec       q    Type
REMARK                         _______ _______ _______ _____ _____    ______ ____
ROOT
ATOM      1  C   UNL     1      44.140   6.472  11.752  0.00  0.00    +0.000 C 
ATOM      2  C   UNL     1      43.994   7.547  10.696  0.00  0.00    +0.000 C 
ATOM      3  C   UNL     1      42.796   7.132  11.486  0.00  0.00    +0.000 C 
ENDROOT
BRANCH   1   4
ATOM      4  C   UNL     1      44.247   4.985  11.425  0.00  0.00    +0.000 A 
ATOM      5  C   UNL     1      43.424   4.034  12.039  0.00  0.00    +0.000 A 
ATOM      6  C   UNL     1      43.324   2.738  11.537  0.00  0.00    +0.000 A 
ATOM      7  C   UNL     1      44.068   2.361  10.416  0.00  0.00    +0.000 A 
ATOM      8  C   UNL     1      44.964   3.251   9.802  0.00  0.00    +0.000 A 
ATOM      9  C   UNL     1      45.043   4.552  10.337  0.00  0.00    +0.000 A 
BRANCH   8  10
ATOM     10  C   UNL     1      45.729   2.848   8.601  0.00  0.00    +0.000 A 
ATOM     11  C   UNL     1      46.035   3.733   7.565  0.00  0.00    +0.000 A 
ATOM     12  C   UNL     1      46.731   3.269   6.449  0.00  0.00    +0.000 A 
ATOM     13  C   UNL     1      47.107   1.934   6.386  0.00  0.00    +0.000 A 
ATOM     14  C   UNL     1      46.780   1.119   7.455  0.00  0.00    +0.000 A 
ATOM     15  N   UNL     1      46.112   1.545   8.551  0.00  0.00    +0.000 NA
ENDBRANCH   8  10
ENDBRANCH   1   4
BRANCH   1  16
ATOM     16  N   UNL     1      44.908   6.803  12.961  0.00  0.00    +0.000 N 
ATOM     17  H   UNL     1      44.440   7.200  13.766  0.00  0.00    +0.000 HD
BRANCH  16  21
ATOM     18  C   UNL     1      48.965   7.769  12.584  0.00  0.00    +0.000 A 
ATOM     19  C   UNL     1      47.954   8.684  12.356  0.00  0.00    +0.000 A 
ATOM     20  N   UNL     1      46.634   8.400  12.490  0.00  0.00    +0.000 NA
ATOM     21  C   UNL     1      46.276   7.150  12.883  0.00  0.00    +0.000 A 
ATOM     22  C   UNL     1      47.253   6.174  13.129  0.00  0.00    +0.000 A 
ATOM     23 CL   UNL     1      46.827   4.567  13.609  0.00  0.00    +0.000 Cl
ATOM     24  C   UNL     1      48.605   6.488  12.981  0.00  0.00    +0.000 A 
BRANCH  18  26
ATOM     25  N   UNL     1      51.458   8.443  12.293  0.00  0.00    +0.000 NA
ATOM     26  C   UNL     1      50.344   8.141  12.419  0.00  0.00    +0.000 C 
ENDBRANCH  18  26
ENDBRANCH  16  21
ENDBRANCH   1  16
TORSDOF 5
ENDMDL
MODEL 5
REMARK VINA RESULT:    -7.309      2.538      7.432
REMARK INTER + INTRA:          -9.435
REMARK INTER:                  -9.268
REMARK INTRA:                  -0.168
REMARK UNBOUND:                 0.010
REMARK  Name = 
REMARK  5 active torsions:
REMARK  status: ('A' for Active; 'I' for Inactive)
REMARK    1  A    between atoms: C_2  and  C_3
REMARK    2  A    between atoms: C_6  and  N_7
REMARK    3  A    between atoms: N_7  and  C_8
REMARK    4  A    between atoms: C_8  and  C_9
REMARK    5  A    between atoms: C_13  and  C_14
REMARK                            x       y       z     vdW  Elec       q    Type
REMARK                         _______ _______ _______ _____ _____    ______ ____
ROOT
ATOM      1  C   UNL     1      46.258   7.468  12.249  0.00  0.00    +0.000 C 
ATOM      2  C   UNL     1      46.170   8.918  11.822  0.00  0.00    +0.000 C 
ATOM      3  C   UNL     1      45.582   8.505  13.132  0.00  0.00    +0.000 C 
ENDROOT
BRANCH   1   4
ATOM      4  C   UNL     1      45.365   6.371  11.679  0.00  0.00    +0.000 A 
ATOM      5  C   UNL     1      43.984   6.348  11.911  0.00  0.00    +0.000 A 
ATOM      6  C   UNL     1      43.143   5.525  11.164  0.00  0.00    +0.000 A 
ATOM      7  C   UNL     1      43.674   4.689  10.179  0.00  0.00    +0.000 A 
ATOM      8  C   UNL     1      45.057   4.616   9.951  0.00  0.00    +0.000 A 
ATOM      9  C   UNL     1      45.880   5.459  10.726  0.00  0.00    +0.000 A 
BRANCH   8  10
ATOM     10  C   UNL     1      45.605   3.744   8.888  0.00  0.00    +0.000 A 
ATOM     11  C   UNL     1      45.593   2.351   8.969  0.00  0.00    +0.000 A 
ATOM     12  C   UNL     1      46.159   1.598   7.941  0.00  0.00    +0.000 A 
ATOM     13  C   UNL     1      46.727   2.248   6.854  0.00  0.00    +0.000 A 
ATOM     14  C   UNL     1      46.692   3.630   6.836  0.00  0.00    +0.000 A 
ATOM     15  N   UNL     1      46.144   4.384   7.816  0.00  0.00    +0.000 NA
ENDBRANCH   8  10
ENDBRANCH   1   4
BRANCH   1  16
ATOM     16  N   UNL     1      47.585   6.940  12.600  0.00  0.00    +0.000 N 
ATOM     17  H   UNL     1      48.225   6.653  11.871  0.00  0.00    +0.000 HD
BRANCH  16  21
ATOM     18  C   UNL     1      48.112   5.055  16.303  0.00  0.00    +0.000 A 
ATOM     19  C   UNL     1      47.378   4.492  15.274  0.00  0.00    +0.000 A 
ATOM     20  N   UNL     1      47.209   5.075  14.061  0.00  0.00    +0.000 NA
ATOM     21  C   UNL     1      47.802   6.274  13.829  0.00  0.00    +0.000 A 
ATOM     22  C   UNL     1      48.559   6.901  14.830  0.00  0.00    +0.000 A 
ATOM     23 CL   UNL     1      49.307   8.439  14.572  0.00  0.00    +0.000 Cl
ATOM     24  C   UNL     1      48.715   6.284  16.073  0.00  0.00    +0.000 A 
BRANCH  18  26
ATOM     25  N   UNL     1      48.360   3.834  18.583  0.00  0.00    +0.000 NA
ATOM     26  C   UNL     1      48.245   4.380  17.565  0.00  0.00    +0.000 C 
ENDBRANCH  18  26
ENDBRANCH  16  21
ENDBRANCH   1  16
TORSDOF 5
ENDMDL
MODEL 6
REMARK VINA RESULT:    -6.933      4.104      6.839
REMARK INTER + INTRA:          -8.949
REMARK INTER:                  -8.076
REMARK INTRA:                  -0.874
REMARK UNBOUND:                 0.010
REMARK  Name = 
REMARK  5 active torsions:
REMARK  status: ('A' for Active; 'I' for Inactive)
REMARK    1  A    between atoms: C_2  and  C_3
REMARK    2  A    between atoms: C_6  and  N_7
REMARK    3  A    between atoms: N_7  and  C_8
REMARK    4  A    between atoms: C_8  and  C_9
REMARK    5  A    between atoms: C_13  and  C_14
REMARK                            x       y       z     vdW  Elec       q    Type
REMARK                         _______ _______ _______ _____ _____    ______ ____
ROOT
ATOM      1  C   UNL     1      47.030   7.957  13.023  0.00  0.00    +0.000 C 
ATOM      2  C   UNL     1      48.357   7.298  12.711  0.00  0.00    +0.000 C 
ATOM      3  C   UNL     1      48.167   7.969  14.032  0.00  0.00    +0.000 C 
ENDROOT
BRANCH   1   4
ATOM      4  C   UNL     1      46.610   9.309  12.452  0.00  0.00    +0.000 A 
ATOM      5  C   UNL     1      47.533  10.176  11.855  0.00  0.00    +0.000 A 
ATOM      6  C   UNL     1      47.109  11.260  11.089  0.00  0.00    +0.000 A 
ATOM      7  C   UNL     1      45.745  11.510  10.922  0.00  0.00    +0.000 A 
ATOM      8  C   UNL     1      44.775  10.718  11.557  0.00  0.00    +0.000 A 
ATOM      9  C   UNL     1      45.238   9.632  12.327  0.00  0.00    +0.000 A 
BRANCH   8  10
ATOM     10  C   UNL     1      43.332  10.979  11.354  0.00  0.00    +0.000 A 
ATOM     11  C   UNL     1      42.500  10.117  10.637  0.00  0.00    +0.000 A 
ATOM     12  C   UNL     1      41.157  10.449  10.460  0.00  0.00    +0.000 A 
ATOM     13  C   UNL     1      40.670  11.632  11.000  0.00  0.00    +0.000 A 
ATOM     14  C   UNL     1      41.550  12.430  11.709  0.00  0.00    +0.000 A 
ATOM     15  N   UNL     1      42.855  12.128  11.900  0.00  0.00    +0.000 NA
ENDBRANCH   8  10
ENDBRANCH   1   4
BRANCH   1  16
ATOM     16  N   UNL     1      45.864   7.084  13.223  0.00  0.00    +0.000 N 
ATOM     17  H   UNL     1      45.468   6.969  14.148  0.00  0.00    +0.000 HD
BRANCH  16  21
ATOM     18  C   UNL     1      45.023   3.790  10.778  0.00  0.00    +0.000 A 
ATOM     19  C   UNL     1      44.839   5.097  10.362  0.00  0.00    +0.000 A 
ATOM     20  N   UNL     1      45.121   6.179  11.129  0.00  0.00    +0.000 NA
ATOM     21  C   UNL     1      45.628   5.978  12.374  0.00  0.00    +0.000 A 
ATOM     22  C   UNL     1      45.837   4.678  12.857  0.00  0.00    +0.000 A 
ATOM     23 CL   UNL     1      46.459   4.391  14.445  0.00  0.00    +0.000 Cl
ATOM     24  C   UNL     1      45.535   3.579  12.051  0.00  0.00    +0.000 A 
BRANCH  18  26
ATOM     25  N   UNL     1      44.432   1.809   9.204  0.00  0.00    +0.000 NA
ATOM     26  C   UNL     1      44.698   2.691   9.910  0.00  0.00    +0.000 C 
ENDBRANCH  18  26
ENDBRANCH  16  21
ENDBRANCH   1  16
TORSDOF 5
ENDMDL
MODEL 7
REMARK VINA RESULT:    -6.777      3.408      7.922
REMARK INTER + INTRA:          -8.748
REMARK INTER:                  -7.851
REMARK INTRA:                  -0.897
REMARK UNBOUND:                 0.010
REMARK  Name = 
REMARK  5 active torsions:
REMARK  status: ('A' for Active; 'I' for Inactive)
REMARK    1  A    between atoms: C_2  and  C_3
REMARK    2  A    between atoms: C_6  and  N_7
REMARK    3  A    between atoms: N_7  and  C_8
REMARK    4  A    between atoms: C_8  and  C_9
REMARK    5  A    between atoms: C_13  and  C_14
REMARK                            x       y       z     vdW  Elec       q    Type
REMARK                         _______ _______ _______ _____ _____    ______ ____
ROOT
ATOM      1  C   UNL     1      48.808   8.237  12.552  0.00  0.00    +0.000 C 
ATOM      2  C   UNL     1      49.940   7.628  11.752  0.00  0.00    +0.000 C 
ATOM      3  C   UNL     1      49.483   9.014  11.433  0.00  0.00    +0.000 C 
ENDROOT
BRANCH   1   4
ATOM      4  C   UNL     1      47.341   7.872  12.340  0.00  0.00    +0.000 A 
ATOM      5  C   UNL     1      46.309   8.774  12.622  0.00  0.00    +0.000 A 
ATOM      6  C   UNL     1      45.013   8.548  12.163  0.00  0.00    +0.000 A 
ATOM      7  C   UNL     1      44.719   7.397  11.427  0.00  0.00    +0.000 A 
ATOM      8  C   UNL     1      45.698   6.422  11.177  0.00  0.00    +0.000 A 
ATOM      9  C   UNL     1      46.998   6.680  11.658  0.00  0.00    +0.000 A 
BRANCH   8  10
ATOM     10  C   UNL     1      45.381   5.218  10.377  0.00  0.00    +0.000 A 
ATOM     11  C   UNL     1      45.800   5.055   9.055  0.00  0.00    +0.000 A 
ATOM     12  C   UNL     1      45.433   3.906   8.354  0.00  0.00    +0.000 A 
ATOM     13  C   UNL     1      44.656   2.944   8.985  0.00  0.00    +0.000 A 
ATOM     14  C   UNL     1      44.289   3.167  10.299  0.00  0.00    +0.000 A 
ATOM     15  N   UNL     1      44.637   4.269  11.002  0.00  0.00    +0.000 NA
ENDBRANCH   8  10
ENDBRANCH   1   4
BRANCH   1  16
ATOM     16  N   UNL     1      49.071   8.575  13.959  0.00  0.00    +0.000 N 
ATOM     17  H   UNL     1      49.374   9.508  14.209  0.00  0.00    +0.000 HD
BRANCH  16  21
ATOM     18  C   UNL     1      50.296   5.755  16.802  0.00  0.00    +0.000 A 
ATOM     19  C   UNL     1      48.993   5.840  16.346  0.00  0.00    +0.000 A 
ATOM     20  N   UNL     1      48.577   6.732  15.412  0.00  0.00    +0.000 NA
ATOM     21  C   UNL     1      49.488   7.587  14.879  0.00  0.00    +0.000 A 
ATOM     22  C   UNL     1      50.826   7.554  15.300  0.00  0.00    +0.000 A 
ATOM     23 CL   UNL     1      52.005   8.645  14.657  0.00  0.00    +0.000 Cl
ATOM     24  C   UNL     1      51.231   6.630  16.266  0.00  0.00    +0.000 A 
BRANCH  18  26
ATOM     25  N   UNL     1      50.953   4.000  18.601  0.00  0.00    +0.000 NA
ATOM     26  C   UNL     1      50.664   4.785  17.797  0.00  0.00    +0.000 C 
ENDBRANCH  18  26
ENDBRANCH  16  21
ENDBRANCH   1  16
TORSDOF 5
ENDMDL
MODEL 8
REMARK VINA RESULT:    -6.702      3.563      7.196
REMARK INTER + INTRA:          -8.650
REMARK INTER:                  -8.114
REMARK INTRA:                  -0.537
REMARK UNBOUND:                 0.010
REMARK  Name = 
REMARK  5 active torsions:
REMARK  status: ('A' for Active; 'I' for Inactive)
REMARK    1  A    between atoms: C_2  and  C_3
REMARK    2  A    between atoms: C_6  and  N_7
REMARK    3  A    between atoms: N_7  and  C_8
REMARK    4  A    between atoms: C_8  and  C_9
REMARK    5  A    between atoms: C_13  and  C_14
REMARK                            x       y       z     vdW  Elec       q    Type
REMARK                         _______ _______ _______ _____ _____    ______ ____
ROOT
ATOM      1  C   UNL     1      45.862   7.625  12.578  0.00  0.00    +0.000 C 
ATOM      2  C   UNL     1      46.045   8.896  11.776  0.00  0.00    +0.000 C 
ATOM      3  C   UNL     1      45.054   8.873  12.893  0.00  0.00    +0.000 C 
ENDROOT
BRANCH   1   4
ATOM      4  C   UNL     1      45.082   6.417  12.069  0.00  0.00    +0.000 A 
ATOM      5  C   UNL     1      43.742   6.205  12.414  0.00  0.00    +0.000 A 
ATOM      6  C   UNL     1      42.961   5.277  11.728  0.00  0.00    +0.000 A 
ATOM      7  C   UNL     1      43.517   4.523  10.691  0.00  0.00    +0.000 A 
ATOM      8  C   UNL     1      44.874   4.640  10.350  0.00  0.00    +0.000 A 
ATOM      9  C   UNL     1      45.635   5.585  11.065  0.00  0.00    +0.000 A 
BRANCH   8  10
ATOM     10  C   UNL     1      45.445   3.853   9.234  0.00  0.00    +0.000 A 
ATOM     11  C   UNL     1      45.435   2.457   9.208  0.00  0.00    +0.000 A 
ATOM     12  C   UNL     1      46.024   1.786   8.136  0.00  0.00    +0.000 A 
ATOM     13  C   UNL     1      46.610   2.518   7.113  0.00  0.00    +0.000 A 
ATOM     14  C   UNL     1      46.571   3.898   7.200  0.00  0.00    +0.000 A 
ATOM     15  N   UNL     1      46.001   4.573   8.225  0.00  0.00    +0.000 NA
ENDBRANCH   8  10
ENDBRANCH   1   4
BRANCH   1  16
ATOM     16  N   UNL     1      46.965   7.209  13.457  0.00  0.00    +0.000 N 
ATOM     17  H   UNL     1      46.785   6.992  14.429  0.00  0.00    +0.000 HD
BRANCH  16  21
ATOM     18  C   UNL     1      50.942   8.373  12.847  0.00  0.00    +0.000 A 
ATOM     19  C   UNL     1      50.259   7.552  11.968  0.00  0.00    +0.000 A 
ATOM     20  N   UNL     1      48.966   7.177  12.135  0.00  0.00    +0.000 NA
ATOM     21  C   UNL     1      48.290   7.640  13.218  0.00  0.00    +0.000 A 
ATOM     22  C   UNL     1      48.925   8.475  14.150  0.00  0.00    +0.000 A 
ATOM     23 CL   UNL     1      48.098   9.061  15.552  0.00  0.00    +0.000 Cl
ATOM     24  C   UNL     1      50.258   8.845  13.960  0.00  0.00    +0.000 A 
BRANCH  18  26
ATOM     25  N   UNL     1      53.423   9.005  12.410  0.00  0.00    +0.000 NA
ATOM     26  C   UNL     1      52.314   8.727  12.606  0.00  0.00    +0.000 C 
ENDBRANCH  18  26
ENDBRANCH  16  21
ENDBRANCH   1  16
TORSDOF 5
ENDMDL
MODEL 9
REMARK VINA RESULT:    -6.540      3.452      6.058
REMARK INTER + INTRA:          -8.442
REMARK INTER:                  -7.429
REMARK INTRA:                  -1.013
REMARK UNBOUND:                 0.010
REMARK  Name = 
REMARK  5 active torsions:
REMARK  status: ('A' for Active; 'I' for Inactive)
REMARK    1  A    between atoms: C_2  and  C_3
REMARK    2  A    between atoms: C_6  and  N_7
REMARK    3  A    between atoms: N_7  and  C_8
REMARK    4  A    between atoms: C_8  and  C_9
REMARK    5  A    between atoms: C_13  and  C_14
REMARK                            x       y       z     vdW  Elec       q    Type
REMARK                         _______ _______ _______ _____ _____    ______ ____
ROOT
ATOM      1  C   UNL     1      49.032   7.814  15.313  0.00  0.00    +0.000 C 
ATOM      2  C   UNL     1      48.149   9.037  15.177  0.00  0.00    +0.000 C 
ATOM      3  C   UNL     1      49.632   9.208  15.231  0.00  0.00    +0.000 C 
ENDROOT
BRANCH   1   4
ATOM      4  C   UNL     1      49.227   7.063  16.627  0.00  0.00    +0.000 A 
ATOM      5  C   UNL     1      48.462   7.353  17.763  0.00  0.00    +0.000 A 
ATOM      6  C   UNL     1      48.440   6.487  18.854  0.00  0.00    +0.000 A 
ATOM      7  C   UNL     1      49.205   5.318  18.838  0.00  0.00    +0.000 A 
ATOM      8  C   UNL     1      50.047   5.012  17.757  0.00  0.00    +0.000 A 
ATOM      9  C   UNL     1      50.048   5.910  16.671  0.00  0.00    +0.000 A 
BRANCH   8  10
ATOM     10  C   UNL     1      50.834   3.759  17.741  0.00  0.00    +0.000 A 
ATOM     11  C   UNL     1      52.115   3.661  18.289  0.00  0.00    +0.000 A 
ATOM     12  C   UNL     1      52.807   2.453  18.204  0.00  0.00    +0.000 A 
ATOM     13  C   UNL     1      52.210   1.368  17.577  0.00  0.00    +0.000 A 
ATOM     14  C   UNL     1      50.935   1.535  17.070  0.00  0.00    +0.000 A 
ATOM     15  N   UNL     1      50.239   2.693  17.143  0.00  0.00    +0.000 NA
ENDBRANCH   8  10
ENDBRANCH   1   4
BRANCH   1  16
ATOM     16  N   UNL     1      49.112   6.899  14.165  0.00  0.00    +0.000 N 
ATOM     17  H   UNL     1      49.947   6.875  13.592  0.00  0.00    +0.000 HD
BRANCH  16  21
ATOM     18  C   UNL     1      45.750   5.600  12.032  0.00  0.00    +0.000 A 
ATOM     19  C   UNL     1      46.038   5.165  13.314  0.00  0.00    +0.000 A 
ATOM     20  N   UNL     1      47.110   5.586  14.031  0.00  0.00    +0.000 NA
ATOM     21  C   UNL     1      47.948   6.496  13.471  0.00  0.00    +0.000 A 
ATOM     22  C   UNL     1      47.715   6.977  12.174  0.00  0.00    +0.000 A 
ATOM     23 CL   UNL     1      48.777   8.119  11.426  0.00  0.00    +0.000 Cl
ATOM     24  C   UNL     1      46.607   6.526  11.453  0.00  0.00    +0.000 A 
BRANCH  18  26
ATOM     25  N   UNL     1      43.669   4.705  10.761  0.00  0.00    +0.000 NA
ATOM     26  C   UNL     1      44.596   5.107  11.331  0.00  0.00    +0.000 C 
ENDBRANCH  18  26
ENDBRANCH  16  21
ENDBRANCH   1  16
TORSDOF 5
ENDMDL
