MODEL 1
REMARK VINA RESULT:    -8.829      0.000      0.000
REMARK INTER + INTRA:         -12.943
REMARK INTER:                 -11.926
REMARK INTRA:                  -1.016
REMARK UNBOUND:                -1.016
REMARK  Name = 
REMARK  6 active torsions:
REMARK  status: ('A' for Active; 'I' for Inactive)
REMARK    1  A    between atoms: C_2  and  C_4
REMARK    2  A    between atoms: C_7  and  O_8
REMARK    3  A    between atoms: O_8  and  C_9
REMARK    4  A    between atoms: C_9  and  C_10
REMARK    5  A    between atoms: C_10  and  C_13
REMARK    6  A    between atoms: C_17  and  N_18
REMARK                            x       y       z     vdW  Elec       q    Type
REMARK                         _______ _______ _______ _____ _____    ______ ____
ROOT
ATOM      1  C   UNL     1      43.885   4.680  12.543  0.00  0.00    +0.000 C 
ATOM      2  F   UNL     1      42.944   5.409  13.216  0.00  0.00    +0.000 F 
ATOM      3  F   UNL     1      43.685   3.384  12.933  0.00  0.00    +0.000 F 
ENDROOT
BRANCH   1   4
ATOM      4  C   UNL     1      45.293   5.148  12.861  0.00  0.00    +0.000 A 
ATOM      5  C   UNL     1      45.890   6.171  12.114  0.00  0.00    +0.000 A 
ATOM      6  C   UNL     1      47.149   6.650  12.456  0.00  0.00    +0.000 A 
ATOM      7  C   UNL     1      47.796   6.137  13.578  0.00  0.00    +0.000 A 
ATOM      8  C   UNL     1      47.226   5.132  14.372  0.00  0.00    +0.000 A 
ATOM      9  C   UNL     1      45.992   4.611  13.961  0.00  0.00    +0.000 A 
BRANCH   8  10
ATOM     10  N   UNL     1      47.816   4.735  15.552  0.00  0.00    +0.000 N 
ATOM     11  C   UNL     1      47.746   3.337  15.992  0.00  0.00    +0.000 C 
ATOM     12  C   UNL     1      47.107   3.250  17.390  0.00  0.00    +0.000 C 
ATOM     13  N   UNL     1      47.786   4.104  18.390  0.00  0.00    +0.000 NA
ATOM     14  C   UNL     1      47.792   5.501  17.897  0.00  0.00    +0.000 C 
ATOM     15  C   UNL     1      48.430   5.677  16.494  0.00  0.00    +0.000 C 
ATOM     16  H   UNL     1      48.755   3.793  18.455  0.00  0.00    +0.000 HD
ENDBRANCH   8  10
ENDBRANCH   1   4
BRANCH   1  17
ATOM     17  C   UNL     1      43.596   4.785  11.037  0.00  0.00    +0.000 C 
BRANCH  17  18
ATOM     18  O   UNL     1      43.450   3.470  10.447  0.00  0.00    +0.000 OA
BRANCH  18  22
ATOM     19  C   UNL     1      46.377   2.667   7.660  0.00  0.00    +0.000 A 
ATOM     20  C   UNL     1      45.961   3.985   7.845  0.00  0.00    +0.000 A 
ATOM     21  C   UNL     1      44.967   4.260   8.790  0.00  0.00    +0.000 A 
ATOM     22  C   UNL     1      44.435   3.202   9.520  0.00  0.00    +0.000 A 
ATOM     23  N   UNL     1      44.830   1.924   9.358  0.00  0.00    +0.000 NA
ATOM     24  C   UNL     1      45.779   1.680   8.427  0.00  0.00    +0.000 A 
BRANCH  19  26
ATOM     25  N   UNL     1      47.563   3.054   5.578  0.00  0.00    +0.000 N 
ATOM     26  C   UNL     1      47.401   2.256   6.674  0.00  0.00    +0.000 C 
ATOM     27  O   UNL     1      48.100   1.272   6.854  0.00  0.00    +0.000 OA
ATOM     28  H   UNL     1      48.353   2.822   4.982  0.00  0.00    +0.000 HD
ATOM     29  H   UNL     1      47.207   3.994   5.529  0.00  0.00    +0.000 HD
ENDBRANCH  19  26
ENDBRANCH  18  22
ENDBRANCH  17  18
ENDBRANCH   1  17
TORSDOF 6
ENDMDL
MODEL 2
REMARK VINA RESULT:    -8.481      2.243      3.536
REMARK INTER + INTRA:         -12.473
REMARK INTER:                 -11.329
REMARK INTRA:                  -1.143
REMARK UNBOUND:                -1.016
REMARK  Name = 
REMARK  6 active torsions:
REMARK  status: ('A' for Active; 'I' for Inactive)
REMARK    1  A    between atoms: C_2  and  C_4
REMARK    2  A    between atoms: C_7  and  O_8
REMARK    3  A    between atoms: O_8  and  C_9
REMARK    4  A    between atoms: C_9  and  C_10
REMARK    5  A    between atoms: C_10  and  C_13
REMARK    6  A    between atoms: C_17  and  N_18
REMARK                            x       y       z     vdW  Elec       q    Type
REMARK                         _______ _______ _______ _____ _____    ______ ____
ROOT
ATOM      1  C   UNL     1      43.430   5.312  12.128  0.00  0.00    +0.000 C 
ATOM      2  F   UNL     1      43.121   6.570  11.688  0.00  0.00    +0.000 F 
ATOM      3  F   UNL     1      42.475   5.011  13.060  0.00  0.00    +0.000 F 
ENDROOT
BRANCH   1   4
ATOM      4  C   UNL     1      44.827   5.249  12.717  0.00  0.00    +0.000 A 
ATOM      5  C   UNL     1      45.403   4.018  13.055  0.00  0.00    +0.000 A 
ATOM      6  C   UNL     1      46.711   3.957  13.522  0.00  0.00    +0.000 A 
ATOM      7  C   UNL     1      47.462   5.126  13.609  0.00  0.00    +0.000 A 
ATOM      8  C   UNL     1      46.937   6.378  13.256  0.00  0.00    +0.000 A 
ATOM      9  C   UNL     1      45.593   6.422  12.863  0.00  0.00    +0.000 A 
BRANCH   8  10
ATOM     10  N   UNL     1      47.735   7.500  13.218  0.00  0.00    +0.000 N 
ATOM     11  C   UNL     1      47.144   8.842  13.264  0.00  0.00    +0.000 C 
ATOM     12  C   UNL     1      47.574   9.658  12.032  0.00  0.00    +0.000 C 
ATOM     13  N   UNL     1      49.043   9.714  11.860  0.00  0.00    +0.000 NA
ATOM     14  C   UNL     1      49.567   8.330  11.789  0.00  0.00    +0.000 C 
ATOM     15  C   UNL     1      49.185   7.442  13.002  0.00  0.00    +0.000 C 
ATOM     16  H   UNL     1      49.435  10.152  12.694  0.00  0.00    +0.000 HD
ENDBRANCH   8  10
ENDBRANCH   1   4
BRANCH   1  17
ATOM     17  C   UNL     1      43.283   4.337  10.949  0.00  0.00    +0.000 C 
BRANCH  17  18
ATOM     18  O   UNL     1      43.826   4.910   9.735  0.00  0.00    +0.000 OA
BRANCH  18  22
ATOM     19  C   UNL     1      46.339   2.300   7.772  0.00  0.00    +0.000 A 
ATOM     20  C   UNL     1      45.521   1.815   8.792  0.00  0.00    +0.000 A 
ATOM     21  C   UNL     1      44.668   2.699   9.460  0.00  0.00    +0.000 A 
ATOM     22  C   UNL     1      44.661   4.035   9.073  0.00  0.00    +0.000 A 
ATOM     23  N   UNL     1      45.440   4.519   8.085  0.00  0.00    +0.000 NA
ATOM     24  C   UNL     1      46.269   3.649   7.465  0.00  0.00    +0.000 A 
BRANCH  19  26
ATOM     25  N   UNL     1      48.421   2.077   6.546  0.00  0.00    +0.000 N 
ATOM     26  C   UNL     1      47.296   1.463   7.015  0.00  0.00    +0.000 C 
ATOM     27  O   UNL     1      47.108   0.267   6.854  0.00  0.00    +0.000 OA
ATOM     28  H   UNL     1      49.119   1.458   6.140  0.00  0.00    +0.000 HD
ATOM     29  H   UNL     1      48.736   2.972   6.881  0.00  0.00    +0.000 HD
ENDBRANCH  19  26
ENDBRANCH  18  22
ENDBRANCH  17  18
ENDBRANCH   1  17
TORSDOF 6
ENDMDL
MODEL 3
REMARK VINA RESULT:    -8.355      2.550      3.948
REMARK INTER + INTRA:         -12.302
REMARK INTER:                 -11.351
REMARK INTRA:                  -0.951
REMARK UNBOUND:                -1.016
REMARK  Name = 
REMARK  6 active torsions:
REMARK  status: ('A' for Active; 'I' for Inactive)
REMARK    1  A    between atoms: C_2  and  C_4
REMARK    2  A    between atoms: C_7  and  O_8
REMARK    3  A    between atoms: O_8  and  C_9
REMARK    4  A    between atoms: C_9  and  C_10
REMARK    5  A    between atoms: C_10  and  C_13
REMARK    6  A    between atoms: C_17  and  N_18
REMARK                            x       y       z     vdW  Elec       q    Type
REMARK                         _______ _______ _______ _____ _____    ______ ____
ROOT
ATOM      1  C   UNL     1      43.323   4.457  12.620  0.00  0.00    +0.000 C 
ATOM      2  F   UNL     1      42.315   5.375  12.506  0.00  0.00    +0.000 F 
ATOM      3  F   UNL     1      42.972   3.664  13.678  0.00  0.00    +0.000 F 
ENDROOT
BRANCH   1   4
ATOM      4  C   UNL     1      44.669   5.123  12.844  0.00  0.00    +0.000 A 
ATOM      5  C   UNL     1      45.749   4.394  13.354  0.00  0.00    +0.000 A 
ATOM      6  C   UNL     1      47.000   4.986  13.485  0.00  0.00    +0.000 A 
ATOM      7  C   UNL     1      47.183   6.300  13.062  0.00  0.00    +0.000 A 
ATOM      8  C   UNL     1      46.137   7.061  12.520  0.00  0.00    +0.000 A 
ATOM      9  C   UNL     1      44.870   6.467  12.470  0.00  0.00    +0.000 A 
BRANCH   8  10
ATOM     10  N   UNL     1      46.368   8.308  11.981  0.00  0.00    +0.000 N 
ATOM     11  C   UNL     1      47.694   8.929  12.068  0.00  0.00    +0.000 C 
ATOM     12  C   UNL     1      47.598  10.297  12.768  0.00  0.00    +0.000 C 
ATOM     13  N   UNL     1      46.612  11.201  12.136  0.00  0.00    +0.000 NA
ATOM     14  C   UNL     1      45.293  10.525  12.111  0.00  0.00    +0.000 C 
ATOM     15  C   UNL     1      45.303   9.140  11.411  0.00  0.00    +0.000 C 
ATOM     16  H   UNL     1      46.904  11.349  11.169  0.00  0.00    +0.000 HD
ENDBRANCH   8  10
ENDBRANCH   1   4
BRANCH   1  17
ATOM     17  C   UNL     1      43.340   3.593  11.349  0.00  0.00    +0.000 C 
BRANCH  17  18
ATOM     18  O   UNL     1      43.683   4.389  10.189  0.00  0.00    +0.000 OA
BRANCH  18  22
ATOM     19  C   UNL     1      46.388   2.477   7.738  0.00  0.00    +0.000 A 
ATOM     20  C   UNL     1      45.711   1.737   8.707  0.00  0.00    +0.000 A 
ATOM     21  C   UNL     1      44.793   2.384   9.540  0.00  0.00    +0.000 A 
ATOM     22  C   UNL     1      44.582   3.748   9.364  0.00  0.00    +0.000 A 
ATOM     23  N   UNL     1      45.224   4.476   8.428  0.00  0.00    +0.000 NA
ATOM     24  C   UNL     1      46.119   3.832   7.646  0.00  0.00    +0.000 A 
BRANCH  19  26
ATOM     25  N   UNL     1      48.484   2.676   6.531  0.00  0.00    +0.000 N 
ATOM     26  C   UNL     1      47.396   1.904   6.819  0.00  0.00    +0.000 C 
ATOM     27  O   UNL     1      47.283   0.772   6.373  0.00  0.00    +0.000 OA
ATOM     28  H   UNL     1      49.219   2.216   6.001  0.00  0.00    +0.000 HD
ATOM     29  H   UNL     1      48.742   3.482   7.076  0.00  0.00    +0.000 HD
ENDBRANCH  19  26
ENDBRANCH  18  22
ENDBRANCH  17  18
ENDBRANCH   1  17
TORSDOF 6
ENDMDL
MODEL 4
REMARK VINA RESULT:    -7.824      3.380      5.079
REMARK INTER + INTRA:         -11.584
REMARK INTER:                 -10.782
REMARK INTRA:                  -0.802
REMARK UNBOUND:                -1.016
REMARK  Name = 
REMARK  6 active torsions:
REMARK  status: ('A' for Active; 'I' for Inactive)
REMARK    1  A    between atoms: C_2  and  C_4
REMARK    2  A    between atoms: C_7  and  O_8
REMARK    3  A    between atoms: O_8  and  C_9
REMARK    4  A    between atoms: C_9  and  C_10
REMARK    5  A    between atoms: C_10  and  C_13
REMARK    6  A    between atoms: C_17  and  N_18
REMARK                            x       y       z     vdW  Elec       q    Type
REMARK                         _______ _______ _______ _____ _____    ______ ____
ROOT
ATOM      1  C   UNL     1      44.515   5.030  11.993  0.00  0.00    +0.000 C 
ATOM      2  F   UNL     1      43.592   4.882  12.992  0.00  0.00    +0.000 F 
ATOM      3  F   UNL     1      45.321   3.929  12.080  0.00  0.00    +0.000 F 
ENDROOT
BRANCH   1   4
ATOM      4  C   UNL     1      45.307   6.316  12.143  0.00  0.00    +0.000 A 
ATOM      5  C   UNL     1      46.675   6.280  12.439  0.00  0.00    +0.000 A 
ATOM      6  C   UNL     1      47.413   7.456  12.500  0.00  0.00    +0.000 A 
ATOM      7  C   UNL     1      46.792   8.670  12.219  0.00  0.00    +0.000 A 
ATOM      8  C   UNL     1      45.431   8.753  11.891  0.00  0.00    +0.000 A 
ATOM      9  C   UNL     1      44.692   7.563  11.913  0.00  0.00    +0.000 A 
BRANCH   8  10
ATOM     10  N   UNL     1      44.867   9.941  11.483  0.00  0.00    +0.000 N 
ATOM     11  C   UNL     1      43.599   9.955  10.744  0.00  0.00    +0.000 C 
ATOM     12  C   UNL     1      43.776  10.675   9.395  0.00  0.00    +0.000 C 
ATOM     13  N   UNL     1      44.340  12.036   9.536  0.00  0.00    +0.000 NA
ATOM     14  C   UNL     1      45.630  11.943  10.260  0.00  0.00    +0.000 C 
ATOM     15  C   UNL     1      45.536  11.237  11.638  0.00  0.00    +0.000 C 
ATOM     16  H   UNL     1      43.698  12.579  10.113  0.00  0.00    +0.000 HD
ENDBRANCH   8  10
ENDBRANCH   1   4
BRANCH   1  17
ATOM     17  C   UNL     1      43.780   4.989  10.644  0.00  0.00    +0.000 C 
BRANCH  17  18
ATOM     18  O   UNL     1      43.619   3.625  10.185  0.00  0.00    +0.000 OA
BRANCH  18  22
ATOM     19  C   UNL     1      46.484   2.578   7.414  0.00  0.00    +0.000 A 
ATOM     20  C   UNL     1      46.019   1.612   8.306  0.00  0.00    +0.000 A 
ATOM     21  C   UNL     1      45.048   1.965   9.248  0.00  0.00    +0.000 A 
ATOM     22  C   UNL     1      44.572   3.272   9.253  0.00  0.00    +0.000 A 
ATOM     23  N   UNL     1      45.007   4.216   8.393  0.00  0.00    +0.000 NA
ATOM     24  C   UNL     1      45.958   3.856   7.503  0.00  0.00    +0.000 A 
BRANCH  19  26
ATOM     25  N   UNL     1      47.469   3.069   5.251  0.00  0.00    +0.000 N 
ATOM     26  C   UNL     1      47.525   2.324   6.393  0.00  0.00    +0.000 C 
ATOM     27  O   UNL     1      48.421   1.516   6.583  0.00  0.00    +0.000 OA
ATOM     28  H   UNL     1      48.262   2.966   4.623  0.00  0.00    +0.000 HD
ATOM     29  H   UNL     1      46.924   3.912   5.174  0.00  0.00    +0.000 HD
ENDBRANCH  19  26
ENDBRANCH  18  22
ENDBRANCH  17  18
ENDBRANCH   1  17
TORSDOF 6
ENDMDL
MODEL 5
REMARK VINA RESULT:    -7.756      2.517      3.204
REMARK INTER + INTRA:         -11.493
REMARK INTER:                 -11.169
REMARK INTRA:                  -0.325
REMARK UNBOUND:                -1.016
REMARK  Name = 
REMARK  6 active torsions:
REMARK  status: ('A' for Active; 'I' for Inactive)
REMARK    1  A    between atoms: C_2  and  C_4
REMARK    2  A    between atoms: C_7  and  O_8
REMARK    3  A    between atoms: O_8  and  C_9
REMARK    4  A    between atoms: C_9  and  C_10
REMARK    5  A    between atoms: C_10  and  C_13
REMARK    6  A    between atoms: C_17  and  N_18
REMARK                            x       y       z     vdW  Elec       q    Type
REMARK                         _______ _______ _______ _____ _____    ______ ____
ROOT
ATOM      1  C   UNL     1      44.304   3.720  12.438  0.00  0.00    +0.000 C 
ATOM      2  F   UNL     1      43.502   3.616  13.541  0.00  0.00    +0.000 F 
ATOM      3  F   UNL     1      45.441   3.027  12.751  0.00  0.00    +0.000 F 
ENDROOT
BRANCH   1   4
ATOM      4  C   UNL     1      44.607   5.167  12.096  0.00  0.00    +0.000 A 
ATOM      5  C   UNL     1      43.601   6.011  11.611  0.00  0.00    +0.000 A 
ATOM      6  C   UNL     1      43.863   7.355  11.372  0.00  0.00    +0.000 A 
ATOM      7  C   UNL     1      45.124   7.869  11.662  0.00  0.00    +0.000 A 
ATOM      8  C   UNL     1      46.156   7.069  12.175  0.00  0.00    +0.000 A 
ATOM      9  C   UNL     1      45.890   5.702  12.333  0.00  0.00    +0.000 A 
BRANCH   8  10
ATOM     10  N   UNL     1      47.350   7.620  12.584  0.00  0.00    +0.000 N 
ATOM     11  C   UNL     1      48.359   8.036  11.603  0.00  0.00    +0.000 C 
ATOM     12  C   UNL     1      49.693   7.316  11.872  0.00  0.00    +0.000 C 
ATOM     13  N   UNL     1      50.175   7.493  13.260  0.00  0.00    +0.000 NA
ATOM     14  C   UNL     1      49.123   7.024  14.193  0.00  0.00    +0.000 C 
ATOM     15  C   UNL     1      47.746   7.710  13.993  0.00  0.00    +0.000 C 
ATOM     16  H   UNL     1      50.307   8.492  13.417  0.00  0.00    +0.000 HD
ENDBRANCH   8  10
ENDBRANCH   1   4
BRANCH   1  17
ATOM     17  C   UNL     1      43.610   3.010  11.265  0.00  0.00    +0.000 C 
BRANCH  17  18
ATOM     18  O   UNL     1      43.640   3.832  10.073  0.00  0.00    +0.000 OA
BRANCH  18  22
ATOM     19  C   UNL     1      46.554   2.612   7.427  0.00  0.00    +0.000 A 
ATOM     20  C   UNL     1      45.967   1.669   8.270  0.00  0.00    +0.000 A 
ATOM     21  C   UNL     1      44.979   2.081   9.170  0.00  0.00    +0.000 A 
ATOM     22  C   UNL     1      44.610   3.422   9.182  0.00  0.00    +0.000 A 
ATOM     23  N   UNL     1      45.162   4.344   8.369  0.00  0.00    +0.000 NA
ATOM     24  C   UNL     1      46.128   3.926   7.520  0.00  0.00    +0.000 A 
BRANCH  19  26
ATOM     25  N   UNL     1      47.704   3.081   5.342  0.00  0.00    +0.000 N 
ATOM     26  C   UNL     1      47.624   2.295   6.454  0.00  0.00    +0.000 C 
ATOM     27  O   UNL     1      48.427   1.398   6.660  0.00  0.00    +0.000 OA
ATOM     28  H   UNL     1      48.518   2.925   4.754  0.00  0.00    +0.000 HD
ATOM     29  H   UNL     1      47.246   3.975   5.269  0.00  0.00    +0.000 HD
ENDBRANCH  19  26
ENDBRANCH  18  22
ENDBRANCH  17  18
ENDBRANCH   1  17
TORSDOF 6
ENDMDL
MODEL 6
REMARK VINA RESULT:    -7.634      1.652      2.121
REMARK INTER + INTRA:         -11.328
REMARK INTER:                 -10.498
REMARK INTRA:                  -0.830
REMARK UNBOUND:                -1.016
REMARK  Name = 
REMARK  6 active torsions:
REMARK  status: ('A' for Active; 'I' for Inactive)
REMARK    1  A    between atoms: C_2  and  C_4
REMARK    2  A    between atoms: C_7  and  O_8
REMARK    3  A    between atoms: O_8  and  C_9
REMARK    4  A    between atoms: C_9  and  C_10
REMARK    5  A    between atoms: C_10  and  C_13
REMARK    6  A    between atoms: C_17  and  N_18
REMARK                            x       y       z     vdW  Elec       q    Type
REMARK                         _______ _______ _______ _____ _____    ______ ____
ROOT
ATOM      1  C   UNL     1      45.465   5.417  12.357  0.00  0.00    +0.000 C 
ATOM      2  F   UNL     1      44.509   5.791  13.260  0.00  0.00    +0.000 F 
ATOM      3  F   UNL     1      45.594   4.064  12.507  0.00  0.00    +0.000 F 
ENDROOT
BRANCH   1   4
ATOM      4  C   UNL     1      46.781   6.134  12.599  0.00  0.00    +0.000 A 
ATOM      5  C   UNL     1      47.414   6.832  11.564  0.00  0.00    +0.000 A 
ATOM      6  C   UNL     1      48.578   7.552  11.808  0.00  0.00    +0.000 A 
ATOM      7  C   UNL     1      49.086   7.613  13.103  0.00  0.00    +0.000 A 
ATOM      8  C   UNL     1      48.472   6.953  14.177  0.00  0.00    +0.000 A 
ATOM      9  C   UNL     1      47.345   6.171  13.890  0.00  0.00    +0.000 A 
BRANCH   8  10
ATOM     10  N   UNL     1      48.909   7.136  15.470  0.00  0.00    +0.000 N 
ATOM     11  C   UNL     1      49.194   5.985  16.335  0.00  0.00    +0.000 C 
ATOM     12  C   UNL     1      48.349   6.063  17.620  0.00  0.00    +0.000 C 
ATOM     13  N   UNL     1      48.513   7.343  18.343  0.00  0.00    +0.000 NA
ATOM     14  C   UNL     1      48.179   8.456  17.423  0.00  0.00    +0.000 C 
ATOM     15  C   UNL     1      48.997   8.456  16.104  0.00  0.00    +0.000 C 
ATOM     16  H   UNL     1      49.498   7.433  18.595  0.00  0.00    +0.000 HD
ENDBRANCH   8  10
ENDBRANCH   1   4
BRANCH   1  17
ATOM     17  C   UNL     1      44.935   5.701  10.943  0.00  0.00    +0.000 C 
BRANCH  17  18
ATOM     18  O   UNL     1      44.294   4.528  10.387  0.00  0.00    +0.000 OA
BRANCH  18  22
ATOM     19  C   UNL     1      46.598   2.746   7.471  0.00  0.00    +0.000 A 
ATOM     20  C   UNL     1      45.916   1.940   8.383  0.00  0.00    +0.000 A 
ATOM     21  C   UNL     1      45.134   2.543   9.374  0.00  0.00    +0.000 A 
ATOM     22  C   UNL     1      45.058   3.931   9.406  0.00  0.00    +0.000 A 
ATOM     23  N   UNL     1      45.706   4.724   8.529  0.00  0.00    +0.000 NA
ATOM     24  C   UNL     1      46.469   4.120   7.591  0.00  0.00    +0.000 A 
BRANCH  19  26
ATOM     25  N   UNL     1      47.783   3.072   5.379  0.00  0.00    +0.000 N 
ATOM     26  C   UNL     1      47.471   2.220   6.399  0.00  0.00    +0.000 C 
ATOM     27  O   UNL     1      47.929   1.089   6.446  0.00  0.00    +0.000 OA
ATOM     28  H   UNL     1      48.481   2.731   4.723  0.00  0.00    +0.000 HD
ATOM     29  H   UNL     1      47.652   4.068   5.439  0.00  0.00    +0.000 HD
ENDBRANCH  19  26
ENDBRANCH  18  22
ENDBRANCH  17  18
ENDBRANCH   1  17
TORSDOF 6
ENDMDL
MODEL 7
REMARK VINA RESULT:    -7.097      2.844      8.133
REMARK INTER + INTRA:         -10.603
REMARK INTER:                  -9.966
REMARK INTRA:                  -0.637
REMARK UNBOUND:                -1.016
REMARK  Name = 
REMARK  6 active torsions:
REMARK  status: ('A' for Active; 'I' for Inactive)
REMARK    1  A    between atoms: C_2  and  C_4
REMARK    2  A    between atoms: C_7  and  O_8
REMARK    3  A    between atoms: O_8  and  C_9
REMARK    4  A    between atoms: C_9  and  C_10
REMARK    5  A    between atoms: C_10  and  C_13
REMARK    6  A    between atoms: C_17  and  N_18
REMARK                            x       y       z     vdW  Elec       q    Type
REMARK                         _______ _______ _______ _____ _____    ______ ____
ROOT
ATOM      1  C   UNL     1      45.967   6.445  12.506  0.00  0.00    +0.000 C 
ATOM      2  F   UNL     1      45.196   7.299  13.246  0.00  0.00    +0.000 F 
ATOM      3  F   UNL     1      46.429   7.191  11.458  0.00  0.00    +0.000 F 
ENDROOT
BRANCH   1   4
ATOM      4  C   UNL     1      45.175   5.241  12.030  0.00  0.00    +0.000 A 
ATOM      5  C   UNL     1      44.056   4.795  12.743  0.00  0.00    +0.000 A 
ATOM      6  C   UNL     1      43.289   3.741  12.263  0.00  0.00    +0.000 A 
ATOM      7  C   UNL     1      43.613   3.159  11.040  0.00  0.00    +0.000 A 
ATOM      8  C   UNL     1      44.708   3.589  10.277  0.00  0.00    +0.000 A 
ATOM      9  C   UNL     1      45.511   4.601  10.820  0.00  0.00    +0.000 A 
BRANCH   8  10
ATOM     10  N   UNL     1      44.932   3.096   9.010  0.00  0.00    +0.000 N 
ATOM     11  C   UNL     1      45.065   1.653   8.779  0.00  0.00    +0.000 C 
ATOM     12  C   UNL     1      46.415   1.344   8.107  0.00  0.00    +0.000 C 
ATOM     13  N   UNL     1      46.633   2.117   6.865  0.00  0.00    +0.000 NA
ATOM     14  C   UNL     1      46.516   3.561   7.177  0.00  0.00    +0.000 C 
ATOM     15  C   UNL     1      45.176   3.959   7.849  0.00  0.00    +0.000 C 
ATOM     16  H   UNL     1      45.883   1.878   6.216  0.00  0.00    +0.000 HD
ENDBRANCH   8  10
ENDBRANCH   1   4
BRANCH   1  17
ATOM     17  C   UNL     1      47.168   6.012  13.362  0.00  0.00    +0.000 C 
BRANCH  17  18
ATOM     18  O   UNL     1      46.962   4.685  13.905  0.00  0.00    +0.000 OA
BRANCH  18  22
ATOM     19  C   UNL     1      48.333   4.356  17.777  0.00  0.00    +0.000 A 
ATOM     20  C   UNL     1      48.563   5.539  17.076  0.00  0.00    +0.000 A 
ATOM     21  C   UNL     1      48.099   5.653  15.761  0.00  0.00    +0.000 A 
ATOM     22  C   UNL     1      47.414   4.578  15.204  0.00  0.00    +0.000 A 
ATOM     23  N   UNL     1      47.179   3.430  15.870  0.00  0.00    +0.000 NA
ATOM     24  C   UNL     1      47.651   3.337  17.133  0.00  0.00    +0.000 A 
BRANCH  19  26
ATOM     25  N   UNL     1      48.286   3.027  19.808  0.00  0.00    +0.000 N 
ATOM     26  C   UNL     1      48.798   4.115  19.162  0.00  0.00    +0.000 C 
ATOM     27  O   UNL     1      49.635   4.832  19.687  0.00  0.00    +0.000 OA
ATOM     28  H   UNL     1      48.712   2.812  20.706  0.00  0.00    +0.000 HD
ATOM     29  H   UNL     1      47.815   2.278  19.328  0.00  0.00    +0.000 HD
ENDBRANCH  19  26
ENDBRANCH  18  22
ENDBRANCH  17  18
ENDBRANCH   1  17
TORSDOF 6
ENDMDL
MODEL 8
REMARK VINA RESULT:    -6.911      4.110      7.708
REMARK INTER + INTRA:         -10.352
REMARK INTER:                  -9.283
REMARK INTRA:                  -1.069
REMARK UNBOUND:                -1.016
REMARK  Name = 
REMARK  6 active torsions:
REMARK  status: ('A' for Active; 'I' for Inactive)
REMARK    1  A    between atoms: C_2  and  C_4
REMARK    2  A    between atoms: C_7  and  O_8
REMARK    3  A    between atoms: O_8  and  C_9
REMARK    4  A    between atoms: C_9  and  C_10
REMARK    5  A    between atoms: C_10  and  C_13
REMARK    6  A    between atoms: C_17  and  N_18
REMARK                            x       y       z     vdW  Elec       q    Type
REMARK                         _______ _______ _______ _____ _____    ______ ____
ROOT
ATOM      1  C   UNL     1      49.030   8.077  12.093  0.00  0.00    +0.000 C 
ATOM      2  F   UNL     1      49.640   9.293  12.234  0.00  0.00    +0.000 F 
ATOM      3  F   UNL     1      49.498   7.573  10.911  0.00  0.00    +0.000 F 
ENDROOT
BRANCH   1   4
ATOM      4  C   UNL     1      47.518   8.202  12.088  0.00  0.00    +0.000 A 
ATOM      5  C   UNL     1      46.904   9.442  12.304  0.00  0.00    +0.000 A 
ATOM      6  C   UNL     1      45.522   9.568  12.223  0.00  0.00    +0.000 A 
ATOM      7  C   UNL     1      44.753   8.460  11.878  0.00  0.00    +0.000 A 
ATOM      8  C   UNL     1      45.324   7.204  11.626  0.00  0.00    +0.000 A 
ATOM      9  C   UNL     1      46.711   7.085  11.791  0.00  0.00    +0.000 A 
BRANCH   8  10
ATOM     10  N   UNL     1      44.565   6.156  11.154  0.00  0.00    +0.000 N 
ATOM     11  C   UNL     1      43.100   6.247  11.121  0.00  0.00    +0.000 C 
ATOM     12  C   UNL     1      42.477   5.091  11.924  0.00  0.00    +0.000 C 
ATOM     13  N   UNL     1      42.952   3.760  11.484  0.00  0.00    +0.000 NA
ATOM     14  C   UNL     1      44.431   3.729  11.574  0.00  0.00    +0.000 C 
ATOM     15  C   UNL     1      45.138   4.859  10.781  0.00  0.00    +0.000 C 
ATOM     16  H   UNL     1      42.697   3.650  10.503  0.00  0.00    +0.000 HD
ENDBRANCH   8  10
ENDBRANCH   1   4
BRANCH   1  17
ATOM     17  C   UNL     1      49.504   7.162  13.233  0.00  0.00    +0.000 C 
BRANCH  17  18
ATOM     18  O   UNL     1      49.035   7.649  14.514  0.00  0.00    +0.000 OA
BRANCH  18  22
ATOM     19  C   UNL     1      47.934   4.573  17.025  0.00  0.00    +0.000 A 
ATOM     20  C   UNL     1      48.685   5.629  17.538  0.00  0.00    +0.000 A 
ATOM     21  C   UNL     1      49.061   6.674  16.687  0.00  0.00    +0.000 A 
ATOM     22  C   UNL     1      48.660   6.623  15.356  0.00  0.00    +0.000 A 
ATOM     23  N   UNL     1      47.928   5.612  14.847  0.00  0.00    +0.000 NA
ATOM     24  C   UNL     1      47.591   4.605  15.684  0.00  0.00    +0.000 A 
BRANCH  19  26
ATOM     25  N   UNL     1      48.251   3.089  18.920  0.00  0.00    +0.000 N 
ATOM     26  C   UNL     1      47.501   3.405  17.824  0.00  0.00    +0.000 C 
ATOM     27  O   UNL     1      46.492   2.777  17.541  0.00  0.00    +0.000 OA
ATOM     28  H   UNL     1      47.866   2.365  19.520  0.00  0.00    +0.000 HD
ATOM     29  H   UNL     1      48.913   3.727  19.331  0.00  0.00    +0.000 HD
ENDBRANCH  19  26
ENDBRANCH  18  22
ENDBRANCH  17  18
ENDBRANCH   1  17
TORSDOF 6
ENDMDL
MODEL 9
REMARK VINA RESULT:    -6.896      3.706      5.921
REMARK INTER + INTRA:         -10.332
REMARK INTER:                  -9.645
REMARK INTRA:                  -0.687
REMARK UNBOUND:                -1.016
REMARK  Name = 
REMARK  6 active torsions:
REMARK  status: ('A' for Active; 'I' for Inactive)
REMARK    1  A    between atoms: C_2  and  C_4
REMARK    2  A    between atoms: C_7  and  O_8
REMARK    3  A    between atoms: O_8  and  C_9
REMARK    4  A    between atoms: C_9  and  C_10
REMARK    5  A    between atoms: C_10  and  C_13
REMARK    6  A    between atoms: C_17  and  N_18
REMARK                            x       y       z     vdW  Elec       q    Type
REMARK                         _______ _______ _______ _____ _____    ______ ____
ROOT
ATOM      1  C   UNL     1      48.107   2.876  16.887  0.00  0.00    +0.000 C 
ATOM      2  F   UNL     1      47.076   2.366  17.627  0.00  0.00    +0.000 F 
ATOM      3  F   UNL     1      48.635   1.805  16.219  0.00  0.00    +0.000 F 
ENDROOT
BRANCH   1   4
ATOM      4  C   UNL     1      49.145   3.556  17.761  0.00  0.00    +0.000 A 
ATOM      5  C   UNL     1      50.511   3.329  17.555  0.00  0.00    +0.000 A 
ATOM      6  C   UNL     1      51.460   4.013  18.306  0.00  0.00    +0.000 A 
ATOM      7  C   UNL     1      51.044   4.963  19.235  0.00  0.00    +0.000 A 
ATOM      8  C   UNL     1      49.688   5.245  19.456  0.00  0.00    +0.000 A 
ATOM      9  C   UNL     1      48.750   4.487  18.743  0.00  0.00    +0.000 A 
BRANCH   8  10
ATOM     10  N   UNL     1      49.300   6.281  20.277  0.00  0.00    +0.000 N 
ATOM     11  C   UNL     1      48.946   6.034  21.680  0.00  0.00    +0.000 C 
ATOM     12  C   UNL     1      47.518   6.535  21.965  0.00  0.00    +0.000 C 
ATOM     13  N   UNL     1      47.317   7.952  21.592  0.00  0.00    +0.000 NA
ATOM     14  C   UNL     1      47.661   8.121  20.160  0.00  0.00    +0.000 C 
ATOM     15  C   UNL     1      49.092   7.649  19.791  0.00  0.00    +0.000 C 
ATOM     16  H   UNL     1      47.974   8.512  22.137  0.00  0.00    +0.000 HD
ENDBRANCH   8  10
ENDBRANCH   1   4
BRANCH   1  17
ATOM     17  C   UNL     1      47.527   3.855  15.855  0.00  0.00    +0.000 C 
BRANCH  17  18
ATOM     18  O   UNL     1      47.545   3.276  14.528  0.00  0.00    +0.000 OA
BRANCH  18  22
ATOM     19  C   UNL     1      44.771   5.036  12.039  0.00  0.00    +0.000 A 
ATOM     20  C   UNL     1      45.552   5.845  12.863  0.00  0.00    +0.000 A 
ATOM     21  C   UNL     1      46.493   5.250  13.709  0.00  0.00    +0.000 A 
ATOM     22  C   UNL     1      46.622   3.865  13.689  0.00  0.00    +0.000 A 
ATOM     23  N   UNL     1      45.879   3.069  12.894  0.00  0.00    +0.000 NA
ATOM     24  C   UNL     1      44.964   3.665  12.098  0.00  0.00    +0.000 A 
BRANCH  19  26
ATOM     25  N   UNL     1      43.334   6.846  11.300  0.00  0.00    +0.000 N 
ATOM     26  C   UNL     1      43.729   5.552  11.124  0.00  0.00    +0.000 C 
ATOM     27  O   UNL     1      43.275   4.864  10.223  0.00  0.00    +0.000 OA
ATOM     28  H   UNL     1      42.713   7.214  10.584  0.00  0.00    +0.000 HD
ATOM     29  H   UNL     1      43.863   7.511  11.839  0.00  0.00    +0.000 HD
ENDBRANCH  19  26
ENDBRANCH  18  22
ENDBRANCH  17  18
ENDBRANCH   1  17
TORSDOF 6
ENDMDL
