MODEL 1
REMARK VINA RESULT:    -8.701      0.000      0.000
REMARK INTER + INTRA:         -12.902
REMARK INTER:                 -11.753
REMARK INTRA:                  -1.148
REMARK UNBOUND:                -1.148
REMARK  Name = 
REMARK  7 active torsions:
REMARK  status: ('A' for Active; 'I' for Inactive)
REMARK    1  A    between atoms: C_1  and  C_2
REMARK    2  A    between atoms: C_2  and  N_3
REMARK    3  A    between atoms: C_2  and  C_11
REMARK    4  A    between atoms: N_3  and  C_4
REMARK    5  A    between atoms: C_14  and  C_15
REMARK    6  A    between atoms: C_15  and  N_16
REMARK    7  A    between atoms: C_17  and  C_19
REMARK                            x       y       z     vdW  Elec       q    Type
REMARK                         _______ _______ _______ _____ _____    ______ ____
ROOT
ATOM      1  C   UNL     1      45.297   4.373  11.651  0.00  0.00    +0.000 A 
ATOM      2  C   UNL     1      45.497   5.564  10.929  0.00  0.00    +0.000 A 
ATOM      3  C   UNL     1      46.232   6.629  11.465  0.00  0.00    +0.000 A 
ATOM      4  C   UNL     1      46.793   6.535  12.743  0.00  0.00    +0.000 A 
ATOM      5  C   UNL     1      46.554   5.373  13.490  0.00  0.00    +0.000 A 
ATOM      6  C   UNL     1      45.833   4.297  12.946  0.00  0.00    +0.000 A 
ENDROOT
BRANCH   1   8
ATOM      7  C   UNL     1      43.261   2.926  11.664  0.00  0.00    +0.000 C 
ATOM      8  C   UNL     1      44.590   3.206  10.952  0.00  0.00    +0.000 C 
BRANCH   8   9
ATOM      9  N   UNL     1      44.370   3.464   9.518  0.00  0.00    +0.000 N 
ATOM     10  H   UNL     1      44.201   4.451   9.338  0.00  0.00    +0.000 HD
BRANCH   9  11
ATOM     11  C   UNL     1      45.290   2.957   8.580  0.00  0.00    +0.000 A 
ATOM     12  C   UNL     1      46.022   3.760   7.695  0.00  0.00    +0.000 A 
ATOM     13  C   UNL     1      46.938   3.215   6.788  0.00  0.00    +0.000 A 
ATOM     14  C   UNL     1      47.167   1.846   6.773  0.00  0.00    +0.000 A 
ATOM     15  C   UNL     1      46.505   1.038   7.690  0.00  0.00    +0.000 A 
ATOM     16 CL   UNL     1      46.812  -0.657   7.701  0.00  0.00    +0.000 Cl
ATOM     17  C   UNL     1      45.591   1.587   8.597  0.00  0.00    +0.000 A 
ENDBRANCH   9  11
ENDBRANCH   8   9
ENDBRANCH   1   8
BRANCH   4  18
ATOM     18  C   UNL     1      47.641   7.653  13.298  0.00  0.00    +0.000 C 
BRANCH  18  19
ATOM     19  N   UNL     1      47.751   7.587  14.732  0.00  0.00    +0.000 N 
ATOM     20  C   UNL     1      48.912   7.179  15.342  0.00  0.00    +0.000 C 
ATOM     21  O   UNL     1      49.922   6.897  14.702  0.00  0.00    +0.000 OA
ATOM     22  H   UNL     1      46.885   7.588  15.262  0.00  0.00    +0.000 HD
BRANCH  20  23
ATOM     23  C   UNL     1      48.907   7.155  16.811  0.00  0.00    +0.000 A 
ATOM     24  C   UNL     1      48.981   8.347  17.521  0.00  0.00    +0.000 A 
ATOM     25  S   UNL     1      48.922   8.140  19.212  0.00  0.00    +0.000 S 
ATOM     26  C   UNL     1      48.850   6.448  19.060  0.00  0.00    +0.000 A 
ATOM     27  N   UNL     1      48.807   5.646  20.158  0.00  0.00    +0.000 NA
ATOM     28  C   UNL     1      48.781   4.383  19.897  0.00  0.00    +0.000 A 
ATOM     29  N   UNL     1      48.778   3.848  18.636  0.00  0.00    +0.000 N 
ATOM     30  C   UNL     1      48.788   4.617  17.496  0.00  0.00    +0.000 A 
ATOM     31  O   UNL     1      48.742   4.101  16.382  0.00  0.00    +0.000 OA
ATOM     32  C   UNL     1      48.843   6.044  17.733  0.00  0.00    +0.000 A 
ATOM     33  H   UNL     1      48.741   2.849  18.502  0.00  0.00    +0.000 HD
ENDBRANCH  20  23
ENDBRANCH  18  19
ENDBRANCH   4  18
TORSDOF 6
ENDMDL
MODEL 2
REMARK VINA RESULT:    -8.399      1.462      2.230
REMARK INTER + INTRA:         -12.493
REMARK INTER:                 -11.157
REMARK INTRA:                  -1.336
REMARK UNBOUND:                -1.148
REMARK  Name = 
REMARK  7 active torsions:
REMARK  status: ('A' for Active; 'I' for Inactive)
REMARK    1  A    between atoms: C_1  and  C_2
REMARK    2  A    between atoms: C_2  and  N_3
REMARK    3  A    between atoms: C_2  and  C_11
REMARK    4  A    between atoms: N_3  and  C_4
REMARK    5  A    between atoms: C_14  and  C_15
REMARK    6  A    between atoms: C_15  and  N_16
REMARK    7  A    between atoms: C_17  and  C_19
REMARK                            x       y       z     vdW  Elec       q    Type
REMARK                         _______ _______ _______ _____ _____    ______ ____
ROOT
ATOM      1  C   UNL     1      45.438   4.666  11.471  0.00  0.00    +0.000 A 
ATOM      2  C   UNL     1      45.963   4.233  12.703  0.00  0.00    +0.000 A 
ATOM      3  C   UNL     1      46.824   5.042  13.456  0.00  0.00    +0.000 A 
ATOM      4  C   UNL     1      47.188   6.313  12.998  0.00  0.00    +0.000 A 
ATOM      5  C   UNL     1      46.713   6.730  11.747  0.00  0.00    +0.000 A 
ATOM      6  C   UNL     1      45.834   5.927  11.000  0.00  0.00    +0.000 A 
ENDROOT
BRANCH   1   8
ATOM      7  C   UNL     1      43.026   4.021  11.389  0.00  0.00    +0.000 C 
ATOM      8  C   UNL     1      44.406   3.779  10.766  0.00  0.00    +0.000 C 
BRANCH   8   9
ATOM      9  N   UNL     1      44.370   4.011   9.310  0.00  0.00    +0.000 N 
ATOM     10  H   UNL     1      44.289   5.002   9.093  0.00  0.00    +0.000 HD
BRANCH   9  11
ATOM     11  C   UNL     1      45.355   3.421   8.495  0.00  0.00    +0.000 A 
ATOM     12  C   UNL     1      46.258   4.153   7.712  0.00  0.00    +0.000 A 
ATOM     13  C   UNL     1      47.232   3.525   6.928  0.00  0.00    +0.000 A 
ATOM     14  C   UNL     1      47.344   2.141   6.938  0.00  0.00    +0.000 A 
ATOM     15  C   UNL     1      46.506   1.400   7.762  0.00  0.00    +0.000 A 
ATOM     16 CL   UNL     1      46.665  -0.315   7.807  0.00  0.00    +0.000 Cl
ATOM     17  C   UNL     1      45.534   2.031   8.547  0.00  0.00    +0.000 A 
ENDBRANCH   9  11
ENDBRANCH   8   9
ENDBRANCH   1   8
BRANCH   4  18
ATOM     18  C   UNL     1      48.062   7.214  13.836  0.00  0.00    +0.000 C 
BRANCH  18  19
ATOM     19  N   UNL     1      47.970   6.903  15.239  0.00  0.00    +0.000 N 
ATOM     20  C   UNL     1      49.083   6.567  15.970  0.00  0.00    +0.000 C 
ATOM     21  O   UNL     1      50.209   6.560  15.480  0.00  0.00    +0.000 OA
ATOM     22  H   UNL     1      47.050   6.679  15.602  0.00  0.00    +0.000 HD
BRANCH  20  23
ATOM     23  C   UNL     1      48.867   6.274  17.394  0.00  0.00    +0.000 A 
ATOM     24  C   UNL     1      49.172   5.014  17.893  0.00  0.00    +0.000 A 
ATOM     25  S   UNL     1      48.899   4.859  19.569  0.00  0.00    +0.000 S 
ATOM     26  C   UNL     1      48.313   6.451  19.679  0.00  0.00    +0.000 A 
ATOM     27  N   UNL     1      47.875   6.957  20.864  0.00  0.00    +0.000 NA
ATOM     28  C   UNL     1      47.433   8.167  20.797  0.00  0.00    +0.000 A 
ATOM     29  N   UNL     1      47.404   8.925  19.656  0.00  0.00    +0.000 N 
ATOM     30  C   UNL     1      47.865   8.469  18.443  0.00  0.00    +0.000 A 
ATOM     31  O   UNL     1      47.862   9.194  17.451  0.00  0.00    +0.000 OA
ATOM     32  C   UNL     1      48.350   7.105  18.457  0.00  0.00    +0.000 A 
ATOM     33  H   UNL     1      47.060   9.872  19.678  0.00  0.00    +0.000 HD
ENDBRANCH  20  23
ENDBRANCH  18  19
ENDBRANCH   4  18
TORSDOF 6
ENDMDL
MODEL 3
REMARK VINA RESULT:    -8.332      1.383      1.694
REMARK INTER + INTRA:         -12.403
REMARK INTER:                 -11.249
REMARK INTRA:                  -1.155
REMARK UNBOUND:                -1.148
REMARK  Name = 
REMARK  7 active torsions:
REMARK  status: ('A' for Active; 'I' for Inactive)
REMARK    1  A    between atoms: C_1  and  C_2
REMARK    2  A    between atoms: C_2  and  N_3
REMARK    3  A    between atoms: C_2  and  C_11
REMARK    4  A    between atoms: N_3  and  C_4
REMARK    5  A    between atoms: C_14  and  C_15
REMARK    6  A    between atoms: C_15  and  N_16
REMARK    7  A    between atoms: C_17  and  C_19
REMARK                            x       y       z     vdW  Elec       q    Type
REMARK                         _______ _______ _______ _____ _____    ______ ____
ROOT
ATOM      1  C   UNL     1      44.904   5.138  11.930  0.00  0.00    +0.000 A 
ATOM      2  C   UNL     1      45.361   6.450  11.705  0.00  0.00    +0.000 A 
ATOM      3  C   UNL     1      46.481   6.959  12.375  0.00  0.00    +0.000 A 
ATOM      4  C   UNL     1      47.181   6.169  13.292  0.00  0.00    +0.000 A 
ATOM      5  C   UNL     1      46.701   4.880  13.562  0.00  0.00    +0.000 A 
ATOM      6  C   UNL     1      45.589   4.362  12.877  0.00  0.00    +0.000 A 
ENDROOT
BRANCH   1   8
ATOM      7  C   UNL     1      42.467   5.372  11.427  0.00  0.00    +0.000 C 
ATOM      8  C   UNL     1      43.750   4.610  11.070  0.00  0.00    +0.000 C 
BRANCH   8   9
ATOM      9  N   UNL     1      44.034   4.714   9.627  0.00  0.00    +0.000 N 
ATOM     10  H   UNL     1      44.416   5.626   9.387  0.00  0.00    +0.000 HD
BRANCH   9  11
ATOM     11  C   UNL     1      44.785   3.700   9.000  0.00  0.00    +0.000 A 
ATOM     12  C   UNL     1      44.788   2.362   9.417  0.00  0.00    +0.000 A 
ATOM     13  C   UNL     1      45.538   1.385   8.755  0.00  0.00    +0.000 A 
ATOM     14  C   UNL     1      46.279   1.722   7.630  0.00  0.00    +0.000 A 
ATOM     15  C   UNL     1      46.234   3.029   7.157  0.00  0.00    +0.000 A 
ATOM     16 CL   UNL     1      47.121   3.446   5.741  0.00  0.00    +0.000 Cl
ATOM     17  C   UNL     1      45.481   4.004   7.820  0.00  0.00    +0.000 A 
ENDBRANCH   9  11
ENDBRANCH   8   9
ENDBRANCH   1   8
BRANCH   4  18
ATOM     18  C   UNL     1      48.427   6.690  13.967  0.00  0.00    +0.000 C 
BRANCH  18  19
ATOM     19  N   UNL     1      48.233   6.885  15.380  0.00  0.00    +0.000 N 
ATOM     20  C   UNL     1      49.219   6.576  16.286  0.00  0.00    +0.000 C 
ATOM     21  O   UNL     1      50.322   6.165  15.935  0.00  0.00    +0.000 OA
ATOM     22  H   UNL     1      47.278   6.999  15.704  0.00  0.00    +0.000 HD
BRANCH  20  23
ATOM     23  C   UNL     1      48.908   6.822  17.700  0.00  0.00    +0.000 A 
ATOM     24  C   UNL     1      48.717   8.123  18.149  0.00  0.00    +0.000 A 
ATOM     25  S   UNL     1      48.325   8.223  19.806  0.00  0.00    +0.000 S 
ATOM     26  C   UNL     1      48.451   6.538  19.996  0.00  0.00    +0.000 A 
ATOM     27  N   UNL     1      48.256   5.953  21.210  0.00  0.00    +0.000 NA
ATOM     28  C   UNL     1      48.408   4.672  21.215  0.00  0.00    +0.000 A 
ATOM     29  N   UNL     1      48.720   3.919  20.114  0.00  0.00    +0.000 N 
ATOM     30  C   UNL     1      48.895   4.461  18.862  0.00  0.00    +0.000 A 
ATOM     31  O   UNL     1      49.133   3.747  17.890  0.00  0.00    +0.000 OA
ATOM     32  C   UNL     1      48.760   5.901  18.805  0.00  0.00    +0.000 A 
ATOM     33  H   UNL     1      48.809   2.917  20.185  0.00  0.00    +0.000 HD
ENDBRANCH  20  23
ENDBRANCH  18  19
ENDBRANCH   4  18
TORSDOF 6
ENDMDL
MODEL 4
REMARK VINA RESULT:    -7.209      4.158      6.052
REMARK INTER + INTRA:         -10.887
REMARK INTER:                  -9.456
REMARK INTRA:                  -1.431
REMARK UNBOUND:                -1.148
REMARK  Name = 
REMARK  7 active torsions:
REMARK  status: ('A' for Active; 'I' for Inactive)
REMARK    1  A    between atoms: C_1  and  C_2
REMARK    2  A    between atoms: C_2  and  N_3
REMARK    3  A    between atoms: C_2  and  C_11
REMARK    4  A    between atoms: N_3  and  C_4
REMARK    5  A    between atoms: C_14  and  C_15
REMARK    6  A    between atoms: C_15  and  N_16
REMARK    7  A    between atoms: C_17  and  C_19
REMARK                            x       y       z     vdW  Elec       q    Type
REMARK                         _______ _______ _______ _____ _____    ______ ____
ROOT
ATOM      1  C   UNL     1      44.976   5.470  11.935  0.00  0.00    +0.000 A 
ATOM      2  C   UNL     1      45.432   6.727  11.496  0.00  0.00    +0.000 A 
ATOM      3  C   UNL     1      46.666   7.243  11.911  0.00  0.00    +0.000 A 
ATOM      4  C   UNL     1      47.485   6.515  12.780  0.00  0.00    +0.000 A 
ATOM      5  C   UNL     1      47.015   5.286  13.265  0.00  0.00    +0.000 A 
ATOM      6  C   UNL     1      45.786   4.760  12.834  0.00  0.00    +0.000 A 
ENDROOT
BRANCH   1   8
ATOM      7  C   UNL     1      42.501   5.785  11.809  0.00  0.00    +0.000 C 
ATOM      8  C   UNL     1      43.675   4.917  11.341  0.00  0.00    +0.000 C 
BRANCH   8   9
ATOM      9  N   UNL     1      43.718   4.845   9.870  0.00  0.00    +0.000 N 
ATOM     10  H   UNL     1      43.953   5.746   9.460  0.00  0.00    +0.000 HD
BRANCH   9  11
ATOM     11  C   UNL     1      44.471   3.827   9.253  0.00  0.00    +0.000 A 
ATOM     12  C   UNL     1      44.426   2.481   9.641  0.00  0.00    +0.000 A 
ATOM     13  C   UNL     1      45.181   1.500   8.990  0.00  0.00    +0.000 A 
ATOM     14  C   UNL     1      45.977   1.843   7.904  0.00  0.00    +0.000 A 
ATOM     15  C   UNL     1      45.981   3.159   7.457  0.00  0.00    +0.000 A 
ATOM     16 CL   UNL     1      46.937   3.584   6.089  0.00  0.00    +0.000 Cl
ATOM     17  C   UNL     1      45.223   4.138   8.110  0.00  0.00    +0.000 A 
ENDBRANCH   9  11
ENDBRANCH   8   9
ENDBRANCH   1   8
BRANCH   4  18
ATOM     18  C   UNL     1      48.845   7.038  13.178  0.00  0.00    +0.000 C 
BRANCH  18  19
ATOM     19  N   UNL     1      49.363   7.979  12.220  0.00  0.00    +0.000 N 
ATOM     20  C   UNL     1      49.768   9.235  12.600  0.00  0.00    +0.000 C 
ATOM     21  O   UNL     1      49.753   9.599  13.773  0.00  0.00    +0.000 OA
ATOM     22  H   UNL     1      49.173   7.793  11.241  0.00  0.00    +0.000 HD
BRANCH  20  23
ATOM     23  C   UNL     1      50.283  10.107  11.536  0.00  0.00    +0.000 A 
ATOM     24  C   UNL     1      49.639  11.305  11.253  0.00  0.00    +0.000 A 
ATOM     25  S   UNL     1      50.391  12.211  10.019  0.00  0.00    +0.000 S 
ATOM     26  C   UNL     1      51.573  11.011   9.781  0.00  0.00    +0.000 A 
ATOM     27  N   UNL     1      52.533  11.153   8.827  0.00  0.00    +0.000 NA
ATOM     28  C   UNL     1      53.348  10.157   8.738  0.00  0.00    +0.000 A 
ATOM     29  N   UNL     1      53.301   9.038   9.527  0.00  0.00    +0.000 N 
ATOM     30  C   UNL     1      52.371   8.864  10.524  0.00  0.00    +0.000 A 
ATOM     31  O   UNL     1      52.387   7.865  11.239  0.00  0.00    +0.000 OA
ATOM     32  C   UNL     1      51.414   9.943  10.650  0.00  0.00    +0.000 A 
ATOM     33  H   UNL     1      53.981   8.302   9.414  0.00  0.00    +0.000 HD
ENDBRANCH  20  23
ENDBRANCH  18  19
ENDBRANCH   4  18
TORSDOF 6
ENDMDL
MODEL 5
REMARK VINA RESULT:    -7.165      3.599      8.761
REMARK INTER + INTRA:         -10.827
REMARK INTER:                  -9.215
REMARK INTRA:                  -1.611
REMARK UNBOUND:                -1.148
REMARK  Name = 
REMARK  7 active torsions:
REMARK  status: ('A' for Active; 'I' for Inactive)
REMARK    1  A    between atoms: C_1  and  C_2
REMARK    2  A    between atoms: C_2  and  N_3
REMARK    3  A    between atoms: C_2  and  C_11
REMARK    4  A    between atoms: N_3  and  C_4
REMARK    5  A    between atoms: C_14  and  C_15
REMARK    6  A    between atoms: C_15  and  N_16
REMARK    7  A    between atoms: C_17  and  C_19
REMARK                            x       y       z     vdW  Elec       q    Type
REMARK                         _______ _______ _______ _____ _____    ______ ____
ROOT
ATOM      1  C   UNL     1      49.780   8.443  15.634  0.00  0.00    +0.000 A 
ATOM      2  C   UNL     1      48.447   8.849  15.432  0.00  0.00    +0.000 A 
ATOM      3  C   UNL     1      47.831   8.739  14.179  0.00  0.00    +0.000 A 
ATOM      4  C   UNL     1      48.529   8.216  13.086  0.00  0.00    +0.000 A 
ATOM      5  C   UNL     1      49.873   7.859  13.265  0.00  0.00    +0.000 A 
ATOM      6  C   UNL     1      50.486   7.952  14.525  0.00  0.00    +0.000 A 
ENDROOT
BRANCH   1   8
ATOM      7  C   UNL     1      50.299   9.919  17.582  0.00  0.00    +0.000 C 
ATOM      8  C   UNL     1      50.346   8.478  17.058  0.00  0.00    +0.000 C 
BRANCH   8   9
ATOM      9  N   UNL     1      49.628   7.567  17.968  0.00  0.00    +0.000 N 
ATOM     10  H   UNL     1      48.650   7.832  18.064  0.00  0.00    +0.000 HD
BRANCH   9  11
ATOM     11  C   UNL     1      49.730   6.177  17.771  0.00  0.00    +0.000 A 
ATOM     12  C   UNL     1      50.944   5.476  17.785  0.00  0.00    +0.000 A 
ATOM     13  C   UNL     1      50.998   4.090  17.599  0.00  0.00    +0.000 A 
ATOM     14  C   UNL     1      49.825   3.367  17.429  0.00  0.00    +0.000 A 
ATOM     15  C   UNL     1      48.606   4.032  17.482  0.00  0.00    +0.000 A 
ATOM     16 CL   UNL     1      47.145   3.135  17.309  0.00  0.00    +0.000 Cl
ATOM     17  C   UNL     1      48.554   5.418  17.671  0.00  0.00    +0.000 A 
ENDBRANCH   9  11
ENDBRANCH   8   9
ENDBRANCH   1   8
BRANCH   4  18
ATOM     18  C   UNL     1      47.849   8.034  11.751  0.00  0.00    +0.000 C 
BRANCH  18  19
ATOM     19  N   UNL     1      47.084   6.815  11.697  0.00  0.00    +0.000 N 
ATOM     20  C   UNL     1      45.711   6.832  11.725  0.00  0.00    +0.000 C 
ATOM     21  O   UNL     1      45.071   7.880  11.752  0.00  0.00    +0.000 OA
ATOM     22  H   UNL     1      47.575   5.953  11.905  0.00  0.00    +0.000 HD
BRANCH  20  23
ATOM     23  C   UNL     1      45.039   5.527  11.660  0.00  0.00    +0.000 A 
ATOM     24  C   UNL     1      44.358   5.046  12.771  0.00  0.00    +0.000 A 
ATOM     25  S   UNL     1      43.603   3.539  12.510  0.00  0.00    +0.000 S 
ATOM     26  C   UNL     1      44.204   3.449  10.921  0.00  0.00    +0.000 A 
ATOM     27  N   UNL     1      43.942   2.372  10.133  0.00  0.00    +0.000 NA
ATOM     28  C   UNL     1      44.481   2.424   8.962  0.00  0.00    +0.000 A 
ATOM     29  N   UNL     1      45.244   3.464   8.500  0.00  0.00    +0.000 N 
ATOM     30  C   UNL     1      45.510   4.587   9.248  0.00  0.00    +0.000 A 
ATOM     31  O   UNL     1      46.164   5.517   8.784  0.00  0.00    +0.000 OA
ATOM     32  C   UNL     1      44.949   4.568  10.582  0.00  0.00    +0.000 A 
ATOM     33  H   UNL     1      45.623   3.447   7.566  0.00  0.00    +0.000 HD
ENDBRANCH  20  23
ENDBRANCH  18  19
ENDBRANCH   4  18
TORSDOF 6
ENDMDL
MODEL 6
REMARK VINA RESULT:    -7.135      4.685     10.229
REMARK INTER + INTRA:         -10.786
REMARK INTER:                  -9.746
REMARK INTRA:                  -1.040
REMARK UNBOUND:                -1.148
REMARK  Name = 
REMARK  7 active torsions:
REMARK  status: ('A' for Active; 'I' for Inactive)
REMARK    1  A    between atoms: C_1  and  C_2
REMARK    2  A    between atoms: C_2  and  N_3
REMARK    3  A    between atoms: C_2  and  C_11
REMARK    4  A    between atoms: N_3  and  C_4
REMARK    5  A    between atoms: C_14  and  C_15
REMARK    6  A    between atoms: C_15  and  N_16
REMARK    7  A    between atoms: C_17  and  C_19
REMARK                            x       y       z     vdW  Elec       q    Type
REMARK                         _______ _______ _______ _____ _____    ______ ____
ROOT
ATOM      1  C   UNL     1      48.550   5.583  20.184  0.00  0.00    +0.000 A 
ATOM      2  C   UNL     1      49.391   4.613  19.605  0.00  0.00    +0.000 A 
ATOM      3  C   UNL     1      49.047   3.966  18.411  0.00  0.00    +0.000 A 
ATOM      4  C   UNL     1      47.849   4.270  17.756  0.00  0.00    +0.000 A 
ATOM      5  C   UNL     1      46.981   5.196  18.353  0.00  0.00    +0.000 A 
ATOM      6  C   UNL     1      47.334   5.858  19.541  0.00  0.00    +0.000 A 
ENDROOT
BRANCH   1   8
ATOM      7  C   UNL     1      50.265   5.602  22.000  0.00  0.00    +0.000 C 
ATOM      8  C   UNL     1      49.050   6.336  21.421  0.00  0.00    +0.000 C 
BRANCH   8   9
ATOM      9  N   UNL     1      49.381   7.742  21.125  0.00  0.00    +0.000 N 
ATOM     10  H   UNL     1      50.041   7.814  20.354  0.00  0.00    +0.000 HD
BRANCH   9  11
ATOM     11  C   UNL     1      48.338   8.672  20.951  0.00  0.00    +0.000 A 
ATOM     12  C   UNL     1      47.341   8.912  21.906  0.00  0.00    +0.000 A 
ATOM     13  C   UNL     1      46.331   9.857  21.697  0.00  0.00    +0.000 A 
ATOM     14  C   UNL     1      46.318  10.613  20.533  0.00  0.00    +0.000 A 
ATOM     15  C   UNL     1      47.338  10.442  19.604  0.00  0.00    +0.000 A 
ATOM     16 CL   UNL     1      47.348  11.403  18.174  0.00  0.00    +0.000 Cl
ATOM     17  C   UNL     1      48.348   9.498  19.816  0.00  0.00    +0.000 A 
ENDBRANCH   9  11
ENDBRANCH   8   9
ENDBRANCH   1   8
BRANCH   4  18
ATOM     18  C   UNL     1      47.505   3.624  16.436  0.00  0.00    +0.000 C 
BRANCH  18  19
ATOM     19  N   UNL     1      46.847   4.540  15.542  0.00  0.00    +0.000 N 
ATOM     20  C   UNL     1      46.839   4.332  14.185  0.00  0.00    +0.000 C 
ATOM     21  O   UNL     1      47.349   3.339  13.673  0.00  0.00    +0.000 OA
ATOM     22  H   UNL     1      46.627   5.462  15.905  0.00  0.00    +0.000 HD
BRANCH  20  23
ATOM     23  C   UNL     1      46.131   5.332  13.373  0.00  0.00    +0.000 A 
ATOM     24  C   UNL     1      46.728   6.561  13.118  0.00  0.00    +0.000 A 
ATOM     25  S   UNL     1      45.788   7.584  12.129  0.00  0.00    +0.000 S 
ATOM     26  C   UNL     1      44.528   6.445  12.049  0.00  0.00    +0.000 A 
ATOM     27  N   UNL     1      43.384   6.711  11.362  0.00  0.00    +0.000 NA
ATOM     28  C   UNL     1      42.503   5.771  11.407  0.00  0.00    +0.000 A 
ATOM     29  N   UNL     1      42.667   4.579  12.063  0.00  0.00    +0.000 N 
ATOM     30  C   UNL     1      43.816   4.252  12.744  0.00  0.00    +0.000 A 
ATOM     31  O   UNL     1      43.942   3.156  13.284  0.00  0.00    +0.000 OA
ATOM     32  C   UNL     1      44.830   5.285  12.746  0.00  0.00    +0.000 A 
ATOM     33  H   UNL     1      41.942   3.879  12.044  0.00  0.00    +0.000 HD
ENDBRANCH  20  23
ENDBRANCH  18  19
ENDBRANCH   4  18
TORSDOF 6
ENDMDL
MODEL 7
REMARK VINA RESULT:    -7.127      2.235      2.543
REMARK INTER + INTRA:         -10.775
REMARK INTER:                  -9.508
REMARK INTRA:                  -1.267
REMARK UNBOUND:                -1.148
REMARK  Name = 
REMARK  7 active torsions:
REMARK  status: ('A' for Active; 'I' for Inactive)
REMARK    1  A    between atoms: C_1  and  C_2
REMARK    2  A    between atoms: C_2  and  N_3
REMARK    3  A    between atoms: C_2  and  C_11
REMARK    4  A    between atoms: N_3  and  C_4
REMARK    5  A    between atoms: C_14  and  C_15
REMARK    6  A    between atoms: C_15  and  N_16
REMARK    7  A    between atoms: C_17  and  C_19
REMARK                            x       y       z     vdW  Elec       q    Type
REMARK                         _______ _______ _______ _____ _____    ______ ____
ROOT
ATOM      1  C   UNL     1      45.627   5.744  11.811  0.00  0.00    +0.000 A 
ATOM      2  C   UNL     1      46.014   6.964  11.226  0.00  0.00    +0.000 A 
ATOM      3  C   UNL     1      47.109   7.692  11.710  0.00  0.00    +0.000 A 
ATOM      4  C   UNL     1      47.854   7.220  12.795  0.00  0.00    +0.000 A 
ATOM      5  C   UNL     1      47.442   6.033  13.418  0.00  0.00    +0.000 A 
ATOM      6  C   UNL     1      46.356   5.294  12.922  0.00  0.00    +0.000 A 
ENDROOT
BRANCH   1   8
ATOM      7  C   UNL     1      43.148   5.497  11.623  0.00  0.00    +0.000 C 
ATOM      8  C   UNL     1      44.498   4.945  11.150  0.00  0.00    +0.000 C 
BRANCH   8   9
ATOM      9  N   UNL     1      44.585   4.965   9.679  0.00  0.00    +0.000 N 
ATOM     10  H   UNL     1      44.990   5.835   9.342  0.00  0.00    +0.000 HD
BRANCH   9  11
ATOM     11  C   UNL     1      45.170   3.873   9.010  0.00  0.00    +0.000 A 
ATOM     12  C   UNL     1      45.099   2.550   9.467  0.00  0.00    +0.000 A 
ATOM     13  C   UNL     1      45.683   1.493   8.761  0.00  0.00    +0.000 A 
ATOM     14  C   UNL     1      46.327   1.736   7.555  0.00  0.00    +0.000 A 
ATOM     15  C   UNL     1      46.348   3.030   7.048  0.00  0.00    +0.000 A 
ATOM     16 CL   UNL     1      47.114   3.332   5.534  0.00  0.00    +0.000 Cl
ATOM     17  C   UNL     1      45.761   4.085   7.754  0.00  0.00    +0.000 A 
ENDBRANCH   9  11
ENDBRANCH   8   9
ENDBRANCH   1   8
BRANCH   4  18
ATOM     18  C   UNL     1      49.074   7.967  13.278  0.00  0.00    +0.000 C 
BRANCH  18  19
ATOM     19  N   UNL     1      49.842   7.194  14.219  0.00  0.00    +0.000 N 
ATOM     20  C   UNL     1      50.849   7.764  14.958  0.00  0.00    +0.000 C 
ATOM     21  O   UNL     1      51.113   8.962  14.888  0.00  0.00    +0.000 OA
ATOM     22  H   UNL     1      49.802   6.184  14.128  0.00  0.00    +0.000 HD
BRANCH  20  23
ATOM     23  C   UNL     1      51.561   6.878  15.889  0.00  0.00    +0.000 A 
ATOM     24  C   UNL     1      52.950   6.860  15.899  0.00  0.00    +0.000 A 
ATOM     25  S   UNL     1      53.612   5.807  17.066  0.00  0.00    +0.000 S 
ATOM     26  C   UNL     1      52.067   5.296  17.563  0.00  0.00    +0.000 A 
ATOM     27  N   UNL     1      51.920   4.359  18.538  0.00  0.00    +0.000 NA
ATOM     28  C   UNL     1      50.695   4.046  18.797  0.00  0.00    +0.000 A 
ATOM     29  N   UNL     1      49.602   4.598  18.181  0.00  0.00    +0.000 N 
ATOM     30  C   UNL     1      49.701   5.571  17.214  0.00  0.00    +0.000 A 
ATOM     31  O   UNL     1      48.696   6.072  16.715  0.00  0.00    +0.000 OA
ATOM     32  C   UNL     1      51.056   5.941  16.867  0.00  0.00    +0.000 A 
ATOM     33  H   UNL     1      48.670   4.319  18.444  0.00  0.00    +0.000 HD
ENDBRANCH  20  23
ENDBRANCH  18  19
ENDBRANCH   4  18
TORSDOF 6
ENDMDL
MODEL 8
REMARK VINA RESULT:    -6.940      2.848      3.361
REMARK INTER + INTRA:         -10.523
REMARK INTER:                  -9.322
REMARK INTRA:                  -1.201
REMARK UNBOUND:                -1.148
REMARK  Name = 
REMARK  7 active torsions:
REMARK  status: ('A' for Active; 'I' for Inactive)
REMARK    1  A    between atoms: C_1  and  C_2
REMARK    2  A    between atoms: C_2  and  N_3
REMARK    3  A    between atoms: C_2  and  C_11
REMARK    4  A    between atoms: N_3  and  C_4
REMARK    5  A    between atoms: C_14  and  C_15
REMARK    6  A    between atoms: C_15  and  N_16
REMARK    7  A    between atoms: C_17  and  C_19
REMARK                            x       y       z     vdW  Elec       q    Type
REMARK                         _______ _______ _______ _____ _____    ______ ____
ROOT
ATOM      1  C   UNL     1      45.917   5.943  11.878  0.00  0.00    +0.000 A 
ATOM      2  C   UNL     1      46.477   7.109  11.324  0.00  0.00    +0.000 A 
ATOM      3  C   UNL     1      47.553   7.765  11.937  0.00  0.00    +0.000 A 
ATOM      4  C   UNL     1      48.104   7.273  13.124  0.00  0.00    +0.000 A 
ATOM      5  C   UNL     1      47.518   6.142  13.711  0.00  0.00    +0.000 A 
ATOM      6  C   UNL     1      46.451   5.474  13.088  0.00  0.00    +0.000 A 
ENDROOT
BRANCH   1   8
ATOM      7  C   UNL     1      43.464   5.841  11.411  0.00  0.00    +0.000 C 
ATOM      8  C   UNL     1      44.825   5.212  11.088  0.00  0.00    +0.000 C 
BRANCH   8   9
ATOM      9  N   UNL     1      45.078   5.231   9.636  0.00  0.00    +0.000 N 
ATOM     10  H   UNL     1      45.726   5.973   9.381  0.00  0.00    +0.000 HD
BRANCH   9  11
ATOM     11  C   UNL     1      45.439   4.036   8.985  0.00  0.00    +0.000 A 
ATOM     12  C   UNL     1      45.130   2.759   9.474  0.00  0.00    +0.000 A 
ATOM     13  C   UNL     1      45.496   1.597   8.786  0.00  0.00    +0.000 A 
ATOM     14  C   UNL     1      46.153   1.691   7.566  0.00  0.00    +0.000 A 
ATOM     15  C   UNL     1      46.406   2.947   7.028  0.00  0.00    +0.000 A 
ATOM     16 CL   UNL     1      47.188   3.070   5.498  0.00  0.00    +0.000 Cl
ATOM     17  C   UNL     1      46.037   4.108   7.718  0.00  0.00    +0.000 A 
ENDBRANCH   9  11
ENDBRANCH   8   9
ENDBRANCH   1   8
BRANCH   4  18
ATOM     18  C   UNL     1      49.305   7.938  13.752  0.00  0.00    +0.000 C 
BRANCH  18  19
ATOM     19  N   UNL     1      50.039   7.036  14.602  0.00  0.00    +0.000 N 
ATOM     20  C   UNL     1      50.028   7.175  15.968  0.00  0.00    +0.000 C 
ATOM     21  O   UNL     1      49.361   8.039  16.532  0.00  0.00    +0.000 OA
ATOM     22  H   UNL     1      50.762   6.476  14.164  0.00  0.00    +0.000 HD
BRANCH  20  23
ATOM     23  C   UNL     1      50.810   6.193  16.731  0.00  0.00    +0.000 A 
ATOM     24  C   UNL     1      50.170   5.351  17.633  0.00  0.00    +0.000 A 
ATOM     25  S   UNL     1      51.219   4.248  18.402  0.00  0.00    +0.000 S 
ATOM     26  C   UNL     1      52.574   4.891  17.599  0.00  0.00    +0.000 A 
ATOM     27  N   UNL     1      53.823   4.402  17.832  0.00  0.00    +0.000 NA
ATOM     28  C   UNL     1      54.760   4.999  17.176  0.00  0.00    +0.000 A 
ATOM     29  N   UNL     1      54.561   6.029  16.295  0.00  0.00    +0.000 N 
ATOM     30  C   UNL     1      53.316   6.535  16.004  0.00  0.00    +0.000 A 
ATOM     31  O   UNL     1      53.173   7.432  15.176  0.00  0.00    +0.000 OA
ATOM     32  C   UNL     1      52.229   5.917  16.733  0.00  0.00    +0.000 A 
ATOM     33  H   UNL     1      55.338   6.441  15.802  0.00  0.00    +0.000 HD
ENDBRANCH  20  23
ENDBRANCH  18  19
ENDBRANCH   4  18
TORSDOF 6
ENDMDL
MODEL 9
REMARK VINA RESULT:    -6.852      1.653      2.455
REMARK INTER + INTRA:         -10.404
REMARK INTER:                  -9.055
REMARK INTRA:                  -1.350
REMARK UNBOUND:                -1.148
REMARK  Name = 
REMARK  7 active torsions:
REMARK  status: ('A' for Active; 'I' for Inactive)
REMARK    1  A    between atoms: C_1  and  C_2
REMARK    2  A    between atoms: C_2  and  N_3
REMARK    3  A    between atoms: C_2  and  C_11
REMARK    4  A    between atoms: N_3  and  C_4
REMARK    5  A    between atoms: C_14  and  C_15
REMARK    6  A    between atoms: C_15  and  N_16
REMARK    7  A    between atoms: C_17  and  C_19
REMARK                            x       y       z     vdW  Elec       q    Type
REMARK                         _______ _______ _______ _____ _____    ______ ____
ROOT
ATOM      1  C   UNL     1      45.927   6.718  12.347  0.00  0.00    +0.000 A 
ATOM      2  C   UNL     1      45.838   8.035  12.837  0.00  0.00    +0.000 A 
ATOM      3  C   UNL     1      46.863   8.598  13.609  0.00  0.00    +0.000 A 
ATOM      4  C   UNL     1      48.012   7.861  13.913  0.00  0.00    +0.000 A 
ATOM      5  C   UNL     1      48.085   6.532  13.474  0.00  0.00    +0.000 A 
ATOM      6  C   UNL     1      47.066   5.972  12.686  0.00  0.00    +0.000 A 
ENDROOT
BRANCH   1   8
ATOM      7  C   UNL     1      43.668   7.220  11.404  0.00  0.00    +0.000 C 
ATOM      8  C   UNL     1      44.826   6.214  11.408  0.00  0.00    +0.000 C 
BRANCH   8   9
ATOM      9  N   UNL     1      45.321   5.981  10.039  0.00  0.00    +0.000 N 
ATOM     10  H   UNL     1      46.219   6.435   9.886  0.00  0.00    +0.000 HD
BRANCH   9  11
ATOM     11  C   UNL     1      45.356   4.668   9.534  0.00  0.00    +0.000 A 
ATOM     12  C   UNL     1      44.775   3.568  10.182  0.00  0.00    +0.000 A 
ATOM     13  C   UNL     1      44.821   2.281   9.636  0.00  0.00    +0.000 A 
ATOM     14  C   UNL     1      45.424   2.072   8.403  0.00  0.00    +0.000 A 
ATOM     15  C   UNL     1      45.943   3.159   7.709  0.00  0.00    +0.000 A 
ATOM     16 CL   UNL     1      46.658   2.912   6.162  0.00  0.00    +0.000 Cl
ATOM     17  C   UNL     1      45.893   4.446   8.257  0.00  0.00    +0.000 A 
ENDBRANCH   9  11
ENDBRANCH   8   9
ENDBRANCH   1   8
BRANCH   4  18
ATOM     18  C   UNL     1      49.147   8.486  14.688  0.00  0.00    +0.000 C 
BRANCH  18  19
ATOM     19  N   UNL     1      49.226   7.978  16.033  0.00  0.00    +0.000 N 
ATOM     20  C   UNL     1      48.541   8.573  17.063  0.00  0.00    +0.000 C 
ATOM     21  O   UNL     1      47.795   9.533  16.884  0.00  0.00    +0.000 OA
ATOM     22  H   UNL     1      49.995   7.350  16.244  0.00  0.00    +0.000 HD
BRANCH  20  23
ATOM     23  C   UNL     1      48.695   7.963  18.391  0.00  0.00    +0.000 A 
ATOM     24  C   UNL     1      49.041   8.756  19.478  0.00  0.00    +0.000 A 
ATOM     25  S   UNL     1      49.138   7.896  20.948  0.00  0.00    +0.000 S 
ATOM     26  C   UNL     1      48.776   6.424  20.176  0.00  0.00    +0.000 A 
ATOM     27  N   UNL     1      48.725   5.259  20.877  0.00  0.00    +0.000 NA
ATOM     28  C   UNL     1      48.466   4.217  20.162  0.00  0.00    +0.000 A 
ATOM     29  N   UNL     1      48.235   4.235  18.811  0.00  0.00    +0.000 N 
ATOM     30  C   UNL     1      48.243   5.391  18.067  0.00  0.00    +0.000 A 
ATOM     31  O   UNL     1      47.990   5.372  16.865  0.00  0.00    +0.000 OA
ATOM     32  C   UNL     1      48.555   6.589  18.817  0.00  0.00    +0.000 A 
ATOM     33  H   UNL     1      48.021   3.383  18.316  0.00  0.00    +0.000 HD
ENDBRANCH  20  23
ENDBRANCH  18  19
ENDBRANCH   4  18
TORSDOF 6
ENDMDL
