MODEL 1
REMARK VINA RESULT:    -8.709      0.000      0.000
REMARK INTER + INTRA:         -12.568
REMARK INTER:                 -11.509
REMARK INTRA:                  -1.059
REMARK UNBOUND:                -1.059
REMARK  Name = 
REMARK  7 active torsions:
REMARK  status: ('A' for Active; 'I' for Inactive)
REMARK    1  A    between atoms: C_1  and  C_2
REMARK    2  A    between atoms: C_2  and  O_3
REMARK    3  A    between atoms: C_2  and  C_4
REMARK    4  A    between atoms: C_2  and  C_15
REMARK    5  A    between atoms: C_4  and  N_5
REMARK    6  A    between atoms: C_9  and  C_10
REMARK    7  A    between atoms: C_19  and  C_20
REMARK                            x       y       z     vdW  Elec       q    Type
REMARK                         _______ _______ _______ _____ _____    ______ ____
ROOT
ATOM      1  C   UNL     1      42.713   5.382  12.697  0.00  0.00    +0.000 C 
ATOM      2  C   UNL     1      43.789   4.401  12.214  0.00  0.00    +0.000 C 
ENDROOT
BRANCH   2   3
ATOM      3  C   UNL     1      45.184   4.979  12.471  0.00  0.00    +0.000 A 
ATOM      4  C   UNL     1      45.776   5.911  11.610  0.00  0.00    +0.000 A 
ATOM      5  C   UNL     1      47.017   6.471  11.913  0.00  0.00    +0.000 A 
ATOM      6  C   UNL     1      47.670   6.138  13.102  0.00  0.00    +0.000 A 
ATOM      7  C   UNL     1      47.100   5.237  14.015  0.00  0.00    +0.000 A 
ATOM      8  C   UNL     1      45.884   4.633  13.650  0.00  0.00    +0.000 A 
BRANCH   7   9
ATOM      9  C   UNL     1      47.674   5.031  15.367  0.00  0.00    +0.000 A 
ATOM     10  C   UNL     1      48.530   5.995  15.925  0.00  0.00    +0.000 A 
ATOM     11  C   UNL     1      48.998   5.892  17.236  0.00  0.00    +0.000 A 
ATOM     12  C   UNL     1      48.609   4.817  18.028  0.00  0.00    +0.000 A 
ATOM     13  C   UNL     1      47.772   3.838  17.499  0.00  0.00    +0.000 A 
ATOM     14  C   UNL     1      47.318   3.939  16.180  0.00  0.00    +0.000 A 
ENDBRANCH   7   9
ENDBRANCH   2   3
BRANCH   2  15
ATOM     15  O   UNL     1      43.598   3.186  12.962  0.00  0.00    +0.000 OA
ATOM     16  H   UNL     1      43.112   3.453  13.766  0.00  0.00    +0.000 HD
ENDBRANCH   2  15
BRANCH   2  17
ATOM     17  C   UNL     1      43.635   4.062  10.698  0.00  0.00    +0.000 C 
BRANCH  17  18
ATOM     18  N   UNL     1      44.045   2.670  10.395  0.00  0.00    +0.000 N 
ATOM     19  C   UNL     1      44.954   2.619   9.312  0.00  0.00    +0.000 A 
ATOM     20  C   UNL     1      45.401   1.376   8.875  0.00  0.00    +0.000 A 
ATOM     21  C   UNL     1      46.281   1.301   7.791  0.00  0.00    +0.000 A 
ATOM     22  C   UNL     1      46.702   2.473   7.160  0.00  0.00    +0.000 A 
ATOM     23  C   UNL     1      46.221   3.666   7.669  0.00  0.00    +0.000 A 
ATOM     24  N   UNL     1      45.367   3.756   8.720  0.00  0.00    +0.000 NA
ATOM     25  H   UNL     1      43.247   2.095  10.127  0.00  0.00    +0.000 HD
BRANCH  22  26
ATOM     26  C   UNL     1      47.613   2.392   5.995  0.00  0.00    +0.000 C 
ATOM     27  N   UNL     1      47.448   3.263   4.955  0.00  0.00    +0.000 N 
ATOM     28  O   UNL     1      48.504   1.551   5.948  0.00  0.00    +0.000 OA
ATOM     29  H   UNL     1      46.750   3.985   4.890  0.00  0.00    +0.000 HD
ATOM     30  H   UNL     1      48.089   3.167   4.179  0.00  0.00    +0.000 HD
ENDBRANCH  22  26
ENDBRANCH  17  18
ENDBRANCH   2  17
TORSDOF 6
ENDMDL
MODEL 2
REMARK VINA RESULT:    -8.643      2.126      3.719
REMARK INTER + INTRA:         -12.480
REMARK INTER:                 -11.359
REMARK INTRA:                  -1.122
REMARK UNBOUND:                -1.059
REMARK  Name = 
REMARK  7 active torsions:
REMARK  status: ('A' for Active; 'I' for Inactive)
REMARK    1  A    between atoms: C_1  and  C_2
REMARK    2  A    between atoms: C_2  and  O_3
REMARK    3  A    between atoms: C_2  and  C_4
REMARK    4  A    between atoms: C_2  and  C_15
REMARK    5  A    between atoms: C_4  and  N_5
REMARK    6  A    between atoms: C_9  and  C_10
REMARK    7  A    between atoms: C_19  and  C_20
REMARK                            x       y       z     vdW  Elec       q    Type
REMARK                         _______ _______ _______ _____ _____    ______ ____
ROOT
ATOM      1  C   UNL     1      42.915   7.007  11.676  0.00  0.00    +0.000 C 
ATOM      2  C   UNL     1      43.356   5.602  12.104  0.00  0.00    +0.000 C 
ENDROOT
BRANCH   2   3
ATOM      3  C   UNL     1      44.793   5.638  12.632  0.00  0.00    +0.000 A 
ATOM      4  C   UNL     1      45.357   4.568  13.337  0.00  0.00    +0.000 A 
ATOM      5  C   UNL     1      46.691   4.606  13.741  0.00  0.00    +0.000 A 
ATOM      6  C   UNL     1      47.496   5.699  13.413  0.00  0.00    +0.000 A 
ATOM      7  C   UNL     1      46.988   6.780  12.676  0.00  0.00    +0.000 A 
ATOM      8  C   UNL     1      45.621   6.748  12.346  0.00  0.00    +0.000 A 
BRANCH   7   9
ATOM      9  C   UNL     1      47.872   7.845  12.144  0.00  0.00    +0.000 A 
ATOM     10  C   UNL     1      47.419   9.173  12.079  0.00  0.00    +0.000 A 
ATOM     11  C   UNL     1      48.258  10.219  11.691  0.00  0.00    +0.000 A 
ATOM     12  C   UNL     1      49.584   9.958  11.367  0.00  0.00    +0.000 A 
ATOM     13  C   UNL     1      50.061   8.650  11.409  0.00  0.00    +0.000 A 
ATOM     14  C   UNL     1      49.211   7.604  11.783  0.00  0.00    +0.000 A 
ENDBRANCH   7   9
ENDBRANCH   2   3
BRANCH   2  15
ATOM     15  O   UNL     1      42.446   5.186  13.137  0.00  0.00    +0.000 OA
ATOM     16  H   UNL     1      41.586   5.583  12.898  0.00  0.00    +0.000 HD
ENDBRANCH   2  15
BRANCH   2  17
ATOM     17  C   UNL     1      43.256   4.575  10.932  0.00  0.00    +0.000 C 
BRANCH  17  18
ATOM     18  N   UNL     1      43.980   5.037   9.724  0.00  0.00    +0.000 N 
ATOM     19  C   UNL     1      44.730   3.991   9.134  0.00  0.00    +0.000 A 
ATOM     20  C   UNL     1      45.502   4.276   8.013  0.00  0.00    +0.000 A 
ATOM     21  C   UNL     1      46.269   3.263   7.429  0.00  0.00    +0.000 A 
ATOM     22  C   UNL     1      46.250   1.978   7.976  0.00  0.00    +0.000 A 
ATOM     23  C   UNL     1      45.442   1.780   9.081  0.00  0.00    +0.000 A 
ATOM     24  N   UNL     1      44.691   2.751   9.660  0.00  0.00    +0.000 NA
ATOM     25  H   UNL     1      44.645   5.776   9.946  0.00  0.00    +0.000 HD
BRANCH  22  26
ATOM     26  C   UNL     1      47.083   0.912   7.372  0.00  0.00    +0.000 C 
ATOM     27  N   UNL     1      46.801  -0.395   7.653  0.00  0.00    +0.000 N 
ATOM     28  O   UNL     1      48.023   1.187   6.635  0.00  0.00    +0.000 OA
ATOM     29  H   UNL     1      46.060  -0.730   8.245  0.00  0.00    +0.000 HD
ATOM     30  H   UNL     1      47.399  -1.088   7.223  0.00  0.00    +0.000 HD
ENDBRANCH  22  26
ENDBRANCH  17  18
ENDBRANCH   2  17
TORSDOF 6
ENDMDL
MODEL 3
REMARK VINA RESULT:    -8.540      2.512      4.459
REMARK INTER + INTRA:         -12.346
REMARK INTER:                 -11.551
REMARK INTRA:                  -0.795
REMARK UNBOUND:                -1.059
REMARK  Name = 
REMARK  7 active torsions:
REMARK  status: ('A' for Active; 'I' for Inactive)
REMARK    1  A    between atoms: C_1  and  C_2
REMARK    2  A    between atoms: C_2  and  O_3
REMARK    3  A    between atoms: C_2  and  C_4
REMARK    4  A    between atoms: C_2  and  C_15
REMARK    5  A    between atoms: C_4  and  N_5
REMARK    6  A    between atoms: C_9  and  C_10
REMARK    7  A    between atoms: C_19  and  C_20
REMARK                            x       y       z     vdW  Elec       q    Type
REMARK                         _______ _______ _______ _____ _____    ______ ____
ROOT
ATOM      1  C   UNL     1      43.098   4.287  13.641  0.00  0.00    +0.000 C 
ATOM      2  C   UNL     1      44.075   4.187  12.462  0.00  0.00    +0.000 C 
ENDROOT
BRANCH   2   3
ATOM      3  C   UNL     1      45.096   5.327  12.526  0.00  0.00    +0.000 A 
ATOM      4  C   UNL     1      46.465   5.094  12.702  0.00  0.00    +0.000 A 
ATOM      5  C   UNL     1      47.374   6.152  12.683  0.00  0.00    +0.000 A 
ATOM      6  C   UNL     1      46.935   7.456  12.448  0.00  0.00    +0.000 A 
ATOM      7  C   UNL     1      45.577   7.736  12.228  0.00  0.00    +0.000 A 
ATOM      8  C   UNL     1      44.674   6.662  12.326  0.00  0.00    +0.000 A 
BRANCH   7   9
ATOM      9  C   UNL     1      45.120   9.072  11.775  0.00  0.00    +0.000 A 
ATOM     10  C   UNL     1      45.915  10.206  12.006  0.00  0.00    +0.000 A 
ATOM     11  C   UNL     1      45.575  11.460  11.496  0.00  0.00    +0.000 A 
ATOM     12  C   UNL     1      44.426  11.607  10.728  0.00  0.00    +0.000 A 
ATOM     13  C   UNL     1      43.609  10.504  10.491  0.00  0.00    +0.000 A 
ATOM     14  C   UNL     1      43.947   9.252  11.018  0.00  0.00    +0.000 A 
ENDBRANCH   7   9
ENDBRANCH   2   3
BRANCH   2  15
ATOM     15  O   UNL     1      44.730   2.912  12.583  0.00  0.00    +0.000 OA
ATOM     16  H   UNL     1      44.675   2.510  11.694  0.00  0.00    +0.000 HD
ENDBRANCH   2  15
BRANCH   2  17
ATOM     17  C   UNL     1      43.337   4.221  11.087  0.00  0.00    +0.000 C 
BRANCH  17  18
ATOM     18  N   UNL     1      44.111   4.957  10.059  0.00  0.00    +0.000 N 
ATOM     19  C   UNL     1      44.898   4.082   9.273  0.00  0.00    +0.000 A 
ATOM     20  C   UNL     1      45.718   4.625   8.290  0.00  0.00    +0.000 A 
ATOM     21  C   UNL     1      46.522   3.779   7.518  0.00  0.00    +0.000 A 
ATOM     22  C   UNL     1      46.491   2.401   7.741  0.00  0.00    +0.000 A 
ATOM     23  C   UNL     1      45.635   1.947   8.728  0.00  0.00    +0.000 A 
ATOM     24  N   UNL     1      44.848   2.752   9.486  0.00  0.00    +0.000 NA
ATOM     25  H   UNL     1      44.758   5.622  10.482  0.00  0.00    +0.000 HD
BRANCH  22  26
ATOM     26  C   UNL     1      47.362   1.510   6.942  0.00  0.00    +0.000 C 
ATOM     27  N   UNL     1      48.546   1.991   6.457  0.00  0.00    +0.000 N 
ATOM     28  O   UNL     1      47.032   0.354   6.702  0.00  0.00    +0.000 OA
ATOM     29  H   UNL     1      48.909   2.920   6.590  0.00  0.00    +0.000 HD
ATOM     30  H   UNL     1      49.105   1.348   5.912  0.00  0.00    +0.000 HD
ENDBRANCH  22  26
ENDBRANCH  17  18
ENDBRANCH   2  17
TORSDOF 6
ENDMDL
MODEL 4
REMARK VINA RESULT:    -7.512      3.650      8.346
REMARK INTER + INTRA:         -10.986
REMARK INTER:                 -10.196
REMARK INTRA:                  -0.789
REMARK UNBOUND:                -1.059
REMARK  Name = 
REMARK  7 active torsions:
REMARK  status: ('A' for Active; 'I' for Inactive)
REMARK    1  A    between atoms: C_1  and  C_2
REMARK    2  A    between atoms: C_2  and  O_3
REMARK    3  A    between atoms: C_2  and  C_4
REMARK    4  A    between atoms: C_2  and  C_15
REMARK    5  A    between atoms: C_4  and  N_5
REMARK    6  A    between atoms: C_9  and  C_10
REMARK    7  A    between atoms: C_19  and  C_20
REMARK                            x       y       z     vdW  Elec       q    Type
REMARK                         _______ _______ _______ _____ _____    ______ ____
ROOT
ATOM      1  C   UNL     1      45.824   8.251  13.170  0.00  0.00    +0.000 C 
ATOM      2  C   UNL     1      46.535   7.160  12.360  0.00  0.00    +0.000 C 
ENDROOT
BRANCH   2   3
ATOM      3  C   UNL     1      45.507   6.246  11.689  0.00  0.00    +0.000 A 
ATOM      4  C   UNL     1      44.128   6.420  11.861  0.00  0.00    +0.000 A 
ATOM      5  C   UNL     1      43.219   5.613  11.177  0.00  0.00    +0.000 A 
ATOM      6  C   UNL     1      43.671   4.644  10.280  0.00  0.00    +0.000 A 
ATOM      7  C   UNL     1      45.042   4.456  10.045  0.00  0.00    +0.000 A 
ATOM      8  C   UNL     1      45.937   5.232  10.802  0.00  0.00    +0.000 A 
BRANCH   7   9
ATOM      9  C   UNL     1      45.533   3.582   8.951  0.00  0.00    +0.000 A 
ATOM     10  C   UNL     1      46.105   4.146   7.800  0.00  0.00    +0.000 A 
ATOM     11  C   UNL     1      46.680   3.358   6.802  0.00  0.00    +0.000 A 
ATOM     12  C   UNL     1      46.703   1.975   6.940  0.00  0.00    +0.000 A 
ATOM     13  C   UNL     1      46.132   1.384   8.064  0.00  0.00    +0.000 A 
ATOM     14  C   UNL     1      45.544   2.179   9.054  0.00  0.00    +0.000 A 
ENDBRANCH   7   9
ENDBRANCH   2   3
BRANCH   2  15
ATOM     15  O   UNL     1      47.332   7.839  11.373  0.00  0.00    +0.000 OA
ATOM     16  H   UNL     1      47.325   7.254  10.591  0.00  0.00    +0.000 HD
ENDBRANCH   2  15
BRANCH   2  17
ATOM     17  C   UNL     1      47.495   6.305  13.247  0.00  0.00    +0.000 C 
BRANCH  17  18
ATOM     18  N   UNL     1      46.764   5.284  14.033  0.00  0.00    +0.000 N 
ATOM     19  C   UNL     1      47.383   5.046  15.283  0.00  0.00    +0.000 A 
ATOM     20  C   UNL     1      46.840   4.079  16.122  0.00  0.00    +0.000 A 
ATOM     21  C   UNL     1      47.451   3.811  17.351  0.00  0.00    +0.000 A 
ATOM     22  C   UNL     1      48.597   4.517  17.723  0.00  0.00    +0.000 A 
ATOM     23  C   UNL     1      49.059   5.471  16.835  0.00  0.00    +0.000 A 
ATOM     24  N   UNL     1      48.479   5.744  15.639  0.00  0.00    +0.000 NA
ATOM     25  H   UNL     1      46.739   4.387  13.550  0.00  0.00    +0.000 HD
BRANCH  22  26
ATOM     26  C   UNL     1      49.258   4.214  19.013  0.00  0.00    +0.000 C 
ATOM     27  N   UNL     1      48.567   3.531  19.974  0.00  0.00    +0.000 N 
ATOM     28  O   UNL     1      50.409   4.573  19.232  0.00  0.00    +0.000 OA
ATOM     29  H   UNL     1      47.621   3.195  19.901  0.00  0.00    +0.000 HD
ATOM     30  H   UNL     1      49.056   3.351  20.841  0.00  0.00    +0.000 HD
ENDBRANCH  22  26
ENDBRANCH  17  18
ENDBRANCH   2  17
TORSDOF 6
ENDMDL
MODEL 5
REMARK VINA RESULT:    -7.023      4.336      8.443
REMARK INTER + INTRA:         -10.340
REMARK INTER:                  -9.347
REMARK INTRA:                  -0.993
REMARK UNBOUND:                -1.059
REMARK  Name = 
REMARK  7 active torsions:
REMARK  status: ('A' for Active; 'I' for Inactive)
REMARK    1  A    between atoms: C_1  and  C_2
REMARK    2  A    between atoms: C_2  and  O_3
REMARK    3  A    between atoms: C_2  and  C_4
REMARK    4  A    between atoms: C_2  and  C_15
REMARK    5  A    between atoms: C_4  and  N_5
REMARK    6  A    between atoms: C_9  and  C_10
REMARK    7  A    between atoms: C_19  and  C_20
REMARK                            x       y       z     vdW  Elec       q    Type
REMARK                         _______ _______ _______ _____ _____    ______ ____
ROOT
ATOM      1  C   UNL     1      49.499   8.787  12.004  0.00  0.00    +0.000 C 
ATOM      2  C   UNL     1      48.768   7.750  12.865  0.00  0.00    +0.000 C 
ENDROOT
BRANCH   2   3
ATOM      3  C   UNL     1      47.312   7.618  12.410  0.00  0.00    +0.000 A 
ATOM      4  C   UNL     1      46.402   8.678  12.503  0.00  0.00    +0.000 A 
ATOM      5  C   UNL     1      45.103   8.545  12.013  0.00  0.00    +0.000 A 
ATOM      6  C   UNL     1      44.703   7.364  11.386  0.00  0.00    +0.000 A 
ATOM      7  C   UNL     1      45.590   6.286  11.235  0.00  0.00    +0.000 A 
ATOM      8  C   UNL     1      46.868   6.421  11.803  0.00  0.00    +0.000 A 
BRANCH   7   9
ATOM      9  C   UNL     1      45.252   5.111  10.395  0.00  0.00    +0.000 A 
ATOM     10  C   UNL     1      45.697   5.042   9.065  0.00  0.00    +0.000 A 
ATOM     11  C   UNL     1      45.498   3.905   8.280  0.00  0.00    +0.000 A 
ATOM     12  C   UNL     1      44.850   2.798   8.817  0.00  0.00    +0.000 A 
ATOM     13  C   UNL     1      44.383   2.841  10.129  0.00  0.00    +0.000 A 
ATOM     14  C   UNL     1      44.573   3.989  10.905  0.00  0.00    +0.000 A 
ENDBRANCH   7   9
ENDBRANCH   2   3
BRANCH   2  15
ATOM     15  O   UNL     1      49.469   6.506  12.688  0.00  0.00    +0.000 OA
ATOM     16  H   UNL     1      50.073   6.440  13.453  0.00  0.00    +0.000 HD
ENDBRANCH   2  15
BRANCH   2  17
ATOM     17  C   UNL     1      48.811   8.114  14.382  0.00  0.00    +0.000 C 
BRANCH  17  18
ATOM     18  N   UNL     1      48.068   7.136  15.211  0.00  0.00    +0.000 N 
ATOM     19  C   UNL     1      48.943   6.339  15.987  0.00  0.00    +0.000 A 
ATOM     20  C   UNL     1      48.400   5.341  16.789  0.00  0.00    +0.000 A 
ATOM     21  C   UNL     1      49.249   4.526  17.546  0.00  0.00    +0.000 A 
ATOM     22  C   UNL     1      50.630   4.726  17.491  0.00  0.00    +0.000 A 
ATOM     23  C   UNL     1      51.081   5.752  16.680  0.00  0.00    +0.000 A 
ATOM     24  N   UNL     1      50.272   6.551  15.940  0.00  0.00    +0.000 NA
ATOM     25  H   UNL     1      47.529   6.490  14.635  0.00  0.00    +0.000 HD
BRANCH  22  26
ATOM     26  C   UNL     1      51.529   3.846  18.273  0.00  0.00    +0.000 C 
ATOM     27  N   UNL     1      51.439   2.492  18.118  0.00  0.00    +0.000 N 
ATOM     28  O   UNL     1      52.343   4.316  19.059  0.00  0.00    +0.000 OA
ATOM     29  H   UNL     1      50.806   2.004  17.506  0.00  0.00    +0.000 HD
ATOM     30  H   UNL     1      52.069   1.930  18.675  0.00  0.00    +0.000 HD
ENDBRANCH  22  26
ENDBRANCH  17  18
ENDBRANCH   2  17
TORSDOF 6
ENDMDL
MODEL 6
REMARK VINA RESULT:    -6.942      4.346      8.952
REMARK INTER + INTRA:         -10.233
REMARK INTER:                  -9.425
REMARK INTRA:                  -0.809
REMARK UNBOUND:                -1.059
REMARK  Name = 
REMARK  7 active torsions:
REMARK  status: ('A' for Active; 'I' for Inactive)
REMARK    1  A    between atoms: C_1  and  C_2
REMARK    2  A    between atoms: C_2  and  O_3
REMARK    3  A    between atoms: C_2  and  C_4
REMARK    4  A    between atoms: C_2  and  C_15
REMARK    5  A    between atoms: C_4  and  N_5
REMARK    6  A    between atoms: C_9  and  C_10
REMARK    7  A    between atoms: C_19  and  C_20
REMARK                            x       y       z     vdW  Elec       q    Type
REMARK                         _______ _______ _______ _____ _____    ______ ____
ROOT
ATOM      1  C   UNL     1      49.286   8.755  13.009  0.00  0.00    +0.000 C 
ATOM      2  C   UNL     1      48.563   7.448  13.357  0.00  0.00    +0.000 C 
ENDROOT
BRANCH   2   3
ATOM      3  C   UNL     1      47.170   7.430  12.722  0.00  0.00    +0.000 A 
ATOM      4  C   UNL     1      46.351   8.565  12.687  0.00  0.00    +0.000 A 
ATOM      5  C   UNL     1      45.117   8.532  12.038  0.00  0.00    +0.000 A 
ATOM      6  C   UNL     1      44.698   7.376  11.378  0.00  0.00    +0.000 A 
ATOM      7  C   UNL     1      45.499   6.223  11.353  0.00  0.00    +0.000 A 
ATOM      8  C   UNL     1      46.704   6.261  12.078  0.00  0.00    +0.000 A 
BRANCH   7   9
ATOM      9  C   UNL     1      45.169   5.062  10.491  0.00  0.00    +0.000 A 
ATOM     10  C   UNL     1      45.574   5.043   9.147  0.00  0.00    +0.000 A 
ATOM     11  C   UNL     1      45.382   3.923   8.337  0.00  0.00    +0.000 A 
ATOM     12  C   UNL     1      44.782   2.784   8.861  0.00  0.00    +0.000 A 
ATOM     13  C   UNL     1      44.357   2.776  10.187  0.00  0.00    +0.000 A 
ATOM     14  C   UNL     1      44.538   3.907  10.990  0.00  0.00    +0.000 A 
ENDBRANCH   7   9
ENDBRANCH   2   3
BRANCH   2  15
ATOM     15  O   UNL     1      49.374   6.381  12.832  0.00  0.00    +0.000 OA
ATOM     16  H   UNL     1      49.128   6.312  11.889  0.00  0.00    +0.000 HD
ENDBRANCH   2  15
BRANCH   2  17
ATOM     17  C   UNL     1      48.438   7.241  14.900  0.00  0.00    +0.000 C 
BRANCH  17  18
ATOM     18  N   UNL     1      48.051   5.853  15.245  0.00  0.00    +0.000 N 
ATOM     19  C   UNL     1      48.314   5.561  16.605  0.00  0.00    +0.000 A 
ATOM     20  C   UNL     1      48.045   4.280  17.076  0.00  0.00    +0.000 A 
ATOM     21  C   UNL     1      48.320   3.964  18.410  0.00  0.00    +0.000 A 
ATOM     22  C   UNL     1      48.858   4.937  19.255  0.00  0.00    +0.000 A 
ATOM     23  C   UNL     1      49.078   6.188  18.707  0.00  0.00    +0.000 A 
ATOM     24  N   UNL     1      48.817   6.512  17.416  0.00  0.00    +0.000 NA
ATOM     25  H   UNL     1      48.577   5.171  14.700  0.00  0.00    +0.000 HD
BRANCH  22  26
ATOM     26  C   UNL     1      49.172   4.594  20.661  0.00  0.00    +0.000 C 
ATOM     27  N   UNL     1      50.476   4.580  21.069  0.00  0.00    +0.000 N 
ATOM     28  O   UNL     1      48.283   4.316  21.457  0.00  0.00    +0.000 OA
ATOM     29  H   UNL     1      51.280   4.788  20.500  0.00  0.00    +0.000 HD
ATOM     30  H   UNL     1      50.644   4.336  22.036  0.00  0.00    +0.000 HD
ENDBRANCH  22  26
ENDBRANCH  17  18
ENDBRANCH   2  17
TORSDOF 6
ENDMDL
MODEL 7
REMARK VINA RESULT:    -6.878      3.595      6.329
REMARK INTER + INTRA:         -10.149
REMARK INTER:                  -9.050
REMARK INTRA:                  -1.099
REMARK UNBOUND:                -1.059
REMARK  Name = 
REMARK  7 active torsions:
REMARK  status: ('A' for Active; 'I' for Inactive)
REMARK    1  A    between atoms: C_1  and  C_2
REMARK    2  A    between atoms: C_2  and  O_3
REMARK    3  A    between atoms: C_2  and  C_4
REMARK    4  A    between atoms: C_2  and  C_15
REMARK    5  A    between atoms: C_4  and  N_5
REMARK    6  A    between atoms: C_9  and  C_10
REMARK    7  A    between atoms: C_19  and  C_20
REMARK                            x       y       z     vdW  Elec       q    Type
REMARK                         _______ _______ _______ _____ _____    ______ ____
ROOT
ATOM      1  C   UNL     1      50.317   7.660  16.154  0.00  0.00    +0.000 C 
ATOM      2  C   UNL     1      48.950   7.013  15.898  0.00  0.00    +0.000 C 
ENDROOT
BRANCH   2   3
ATOM      3  C   UNL     1      48.841   5.691  16.664  0.00  0.00    +0.000 A 
ATOM      4  C   UNL     1      47.608   5.099  16.961  0.00  0.00    +0.000 A 
ATOM      5  C   UNL     1      47.549   3.859  17.596  0.00  0.00    +0.000 A 
ATOM      6  C   UNL     1      48.722   3.171  17.911  0.00  0.00    +0.000 A 
ATOM      7  C   UNL     1      49.983   3.705  17.600  0.00  0.00    +0.000 A 
ATOM      8  C   UNL     1      50.014   4.988  17.027  0.00  0.00    +0.000 A 
BRANCH   7   9
ATOM      9  C   UNL     1      51.223   2.904  17.737  0.00  0.00    +0.000 A 
ATOM     10  C   UNL     1      51.224   1.541  17.402  0.00  0.00    +0.000 A 
ATOM     11  C   UNL     1      52.396   0.782  17.409  0.00  0.00    +0.000 A 
ATOM     12  C   UNL     1      53.605   1.379  17.744  0.00  0.00    +0.000 A 
ATOM     13  C   UNL     1      53.636   2.727  18.094  0.00  0.00    +0.000 A 
ATOM     14  C   UNL     1      52.456   3.478  18.100  0.00  0.00    +0.000 A 
ENDBRANCH   7   9
ENDBRANCH   2   3
BRANCH   2  15
ATOM     15  O   UNL     1      47.962   7.950  16.362  0.00  0.00    +0.000 OA
ATOM     16  H   UNL     1      47.649   8.411  15.560  0.00  0.00    +0.000 HD
ENDBRANCH   2  15
BRANCH   2  17
ATOM     17  C   UNL     1      48.697   6.759  14.379  0.00  0.00    +0.000 C 
BRANCH  17  18
ATOM     18  N   UNL     1      47.422   7.359  13.920  0.00  0.00    +0.000 N 
ATOM     19  C   UNL     1      46.530   6.376  13.430  0.00  0.00    +0.000 A 
ATOM     20  C   UNL     1      45.302   6.785  12.920  0.00  0.00    +0.000 A 
ATOM     21  C   UNL     1      44.415   5.832  12.409  0.00  0.00    +0.000 A 
ATOM     22  C   UNL     1      44.771   4.482  12.417  0.00  0.00    +0.000 A 
ATOM     23  C   UNL     1      46.004   4.163  12.957  0.00  0.00    +0.000 A 
ATOM     24  N   UNL     1      46.875   5.074  13.458  0.00  0.00    +0.000 NA
ATOM     25  H   UNL     1      47.571   8.017  13.155  0.00  0.00    +0.000 HD
BRANCH  22  26
ATOM     26  C   UNL     1      43.842   3.476  11.852  0.00  0.00    +0.000 C 
ATOM     27  N   UNL     1      43.677   2.282  12.496  0.00  0.00    +0.000 N 
ATOM     28  O   UNL     1      43.230   3.696  10.813  0.00  0.00    +0.000 OA
ATOM     29  H   UNL     1      44.132   1.999  13.348  0.00  0.00    +0.000 HD
ATOM     30  H   UNL     1      43.038   1.624  12.071  0.00  0.00    +0.000 HD
ENDBRANCH  22  26
ENDBRANCH  17  18
ENDBRANCH   2  17
TORSDOF 6
ENDMDL
MODEL 8
REMARK VINA RESULT:    -6.720      3.600      6.670
REMARK INTER + INTRA:          -9.939
REMARK INTER:                  -9.091
REMARK INTRA:                  -0.848
REMARK UNBOUND:                -1.059
REMARK  Name = 
REMARK  7 active torsions:
REMARK  status: ('A' for Active; 'I' for Inactive)
REMARK    1  A    between atoms: C_1  and  C_2
REMARK    2  A    between atoms: C_2  and  O_3
REMARK    3  A    between atoms: C_2  and  C_4
REMARK    4  A    between atoms: C_2  and  C_15
REMARK    5  A    between atoms: C_4  and  N_5
REMARK    6  A    between atoms: C_9  and  C_10
REMARK    7  A    between atoms: C_19  and  C_20
REMARK                            x       y       z     vdW  Elec       q    Type
REMARK                         _______ _______ _______ _____ _____    ______ ____
ROOT
ATOM      1  C   UNL     1      49.141   2.837  17.274  0.00  0.00    +0.000 C 
ATOM      2  C   UNL     1      48.754   4.317  17.154  0.00  0.00    +0.000 C 
ENDROOT
BRANCH   2   3
ATOM      3  C   UNL     1      48.456   4.898  18.540  0.00  0.00    +0.000 A 
ATOM      4  C   UNL     1      48.721   4.190  19.719  0.00  0.00    +0.000 A 
ATOM      5  C   UNL     1      48.503   4.778  20.965  0.00  0.00    +0.000 A 
ATOM      6  C   UNL     1      48.056   6.097  21.054  0.00  0.00    +0.000 A 
ATOM      7  C   UNL     1      47.812   6.861  19.901  0.00  0.00    +0.000 A 
ATOM      8  C   UNL     1      47.969   6.219  18.660  0.00  0.00    +0.000 A 
BRANCH   7   9
ATOM      9  C   UNL     1      47.538   8.316  19.974  0.00  0.00    +0.000 A 
ATOM     10  C   UNL     1      47.679   9.120  18.831  0.00  0.00    +0.000 A 
ATOM     11  C   UNL     1      47.322  10.469  18.831  0.00  0.00    +0.000 A 
ATOM     12  C   UNL     1      46.802  11.048  19.984  0.00  0.00    +0.000 A 
ATOM     13  C   UNL     1      46.663  10.281  21.138  0.00  0.00    +0.000 A 
ATOM     14  C   UNL     1      47.037   8.933  21.136  0.00  0.00    +0.000 A 
ENDBRANCH   7   9
ENDBRANCH   2   3
BRANCH   2  15
ATOM     15  O   UNL     1      49.879   4.985  16.555  0.00  0.00    +0.000 OA
ATOM     16  H   UNL     1      50.651   4.424  16.759  0.00  0.00    +0.000 HD
ENDBRANCH   2  15
BRANCH   2  17
ATOM     17  C   UNL     1      47.518   4.525  16.223  0.00  0.00    +0.000 C 
BRANCH  17  18
ATOM     18  N   UNL     1      47.752   5.590  15.220  0.00  0.00    +0.000 N 
ATOM     19  C   UNL     1      46.966   5.394  14.059  0.00  0.00    +0.000 A 
ATOM     20  C   UNL     1      47.104   6.288  13.002  0.00  0.00    +0.000 A 
ATOM     21  C   UNL     1      46.355   6.098  11.836  0.00  0.00    +0.000 A 
ATOM     22  C   UNL     1      45.477   5.016  11.746  0.00  0.00    +0.000 A 
ATOM     23  C   UNL     1      45.392   4.186  12.850  0.00  0.00    +0.000 A 
ATOM     24  N   UNL     1      46.111   4.356  13.988  0.00  0.00    +0.000 NA
ATOM     25  H   UNL     1      48.722   5.606  14.909  0.00  0.00    +0.000 HD
BRANCH  22  26
ATOM     26  C   UNL     1      44.704   4.801  10.501  0.00  0.00    +0.000 C 
ATOM     27  N   UNL     1      45.264   5.137   9.301  0.00  0.00    +0.000 N 
ATOM     28  O   UNL     1      43.571   4.336  10.535  0.00  0.00    +0.000 OA
ATOM     29  H   UNL     1      46.181   5.527   9.161  0.00  0.00    +0.000 HD
ATOM     30  H   UNL     1      44.698   4.977   8.478  0.00  0.00    +0.000 HD
ENDBRANCH  22  26
ENDBRANCH  17  18
ENDBRANCH   2  17
TORSDOF 6
ENDMDL
MODEL 9
REMARK VINA RESULT:    -6.717      3.516      5.668
REMARK INTER + INTRA:          -9.936
REMARK INTER:                  -8.966
REMARK INTRA:                  -0.970
REMARK UNBOUND:                -1.059
REMARK  Name = 
REMARK  7 active torsions:
REMARK  status: ('A' for Active; 'I' for Inactive)
REMARK    1  A    between atoms: C_1  and  C_2
REMARK    2  A    between atoms: C_2  and  O_3
REMARK    3  A    between atoms: C_2  and  C_4
REMARK    4  A    between atoms: C_2  and  C_15
REMARK    5  A    between atoms: C_4  and  N_5
REMARK    6  A    between atoms: C_9  and  C_10
REMARK    7  A    between atoms: C_19  and  C_20
REMARK                            x       y       z     vdW  Elec       q    Type
REMARK                         _______ _______ _______ _____ _____    ______ ____
ROOT
ATOM      1  C   UNL     1      49.007   9.815  13.918  0.00  0.00    +0.000 C 
ATOM      2  C   UNL     1      48.295   8.501  14.262  0.00  0.00    +0.000 C 
ENDROOT
BRANCH   2   3
ATOM      3  C   UNL     1      48.687   8.040  15.669  0.00  0.00    +0.000 A 
ATOM      4  C   UNL     1      48.449   8.823  16.805  0.00  0.00    +0.000 A 
ATOM      5  C   UNL     1      48.755   8.342  18.077  0.00  0.00    +0.000 A 
ATOM      6  C   UNL     1      49.267   7.053  18.240  0.00  0.00    +0.000 A 
ATOM      7  C   UNL     1      49.489   6.216  17.135  0.00  0.00    +0.000 A 
ATOM      8  C   UNL     1      49.241   6.753  15.860  0.00  0.00    +0.000 A 
BRANCH   7   9
ATOM      9  C   UNL     1      49.834   4.783  17.301  0.00  0.00    +0.000 A 
ATOM     10  C   UNL     1      48.866   3.792  17.067  0.00  0.00    +0.000 A 
ATOM     11  C   UNL     1      49.182   2.433  17.102  0.00  0.00    +0.000 A 
ATOM     12  C   UNL     1      50.486   2.031  17.364  0.00  0.00    +0.000 A 
ATOM     13  C   UNL     1      51.467   2.989  17.613  0.00  0.00    +0.000 A 
ATOM     14  C   UNL     1      51.141   4.350  17.592  0.00  0.00    +0.000 A 
ENDBRANCH   7   9
ENDBRANCH   2   3
BRANCH   2  15
ATOM     15  O   UNL     1      46.883   8.772  14.192  0.00  0.00    +0.000 OA
ATOM     16  H   UNL     1      46.515   8.434  15.031  0.00  0.00    +0.000 HD
ENDBRANCH   2  15
BRANCH   2  17
ATOM     17  C   UNL     1      48.619   7.373  13.233  0.00  0.00    +0.000 C 
BRANCH  17  18
ATOM     18  N   UNL     1      47.767   7.462  12.023  0.00  0.00    +0.000 N 
ATOM     19  C   UNL     1      46.768   6.460  12.014  0.00  0.00    +0.000 A 
ATOM     20  C   UNL     1      45.911   6.383  10.921  0.00  0.00    +0.000 A 
ATOM     21  C   UNL     1      44.932   5.385  10.881  0.00  0.00    +0.000 A 
ATOM     22  C   UNL     1      44.823   4.480  11.939  0.00  0.00    +0.000 A 
ATOM     23  C   UNL     1      45.705   4.640  12.992  0.00  0.00    +0.000 A 
ATOM     24  N   UNL     1      46.660   5.602  13.047  0.00  0.00    +0.000 NA
ATOM     25  H   UNL     1      48.311   7.331  11.172  0.00  0.00    +0.000 HD
BRANCH  22  26
ATOM     26  C   UNL     1      43.803   3.408  11.884  0.00  0.00    +0.000 C 
ATOM     27  N   UNL     1      43.935   2.317  12.696  0.00  0.00    +0.000 N 
ATOM     28  O   UNL     1      42.850   3.482  11.116  0.00  0.00    +0.000 OA
ATOM     29  H   UNL     1      44.677   2.155  13.357  0.00  0.00    +0.000 HD
ATOM     30  H   UNL     1      43.218   1.608  12.621  0.00  0.00    +0.000 HD
ENDBRANCH  22  26
ENDBRANCH  17  18
ENDBRANCH   2  17
TORSDOF 6
ENDMDL
