MODEL 1
REMARK VINA RESULT:    -8.687      0.000      0.000
REMARK INTER + INTRA:         -15.468
REMARK INTER:                 -13.765
REMARK INTRA:                  -1.703
REMARK UNBOUND:                -1.703
REMARK  Name = 
REMARK  10 active torsions:
REMARK  status: ('A' for Active; 'I' for Inactive)
REMARK    1  A    between atoms: C_2  and  C_4
REMARK    2  A    between atoms: C_4  and  C_5
REMARK    3  A    between atoms: C_5  and  N_6
REMARK    4  A    between atoms: N_6  and  C_7
REMARK    5  A    between atoms: N_6  and  C_14
REMARK    6  A    between atoms: C_7  and  C_8
REMARK    7  A    between atoms: C_14  and  C_15
REMARK    8  A    between atoms: C_18  and  C_19
REMARK    9  A    between atoms: C_19  and  N_20
REMARK   10  A    between atoms: C_21  and  C_23
REMARK                            x       y       z     vdW  Elec       q    Type
REMARK                         _______ _______ _______ _____ _____    ______ ____
ROOT
ATOM      1  C   UNL     1      44.860   5.982  10.953  0.00  0.00    +0.000 A 
ATOM      2  C   UNL     1      44.294   6.765  11.968  0.00  0.00    +0.000 A 
ATOM      3  C   UNL     1      45.101   7.546  12.798  0.00  0.00    +0.000 A 
ATOM      4  C   UNL     1      46.492   7.556  12.630  0.00  0.00    +0.000 A 
ATOM      5  C   UNL     1      47.058   6.764  11.624  0.00  0.00    +0.000 A 
ATOM      6  C   UNL     1      46.251   5.989  10.790  0.00  0.00    +0.000 A 
ENDROOT
BRANCH   1   7
ATOM      7  C   UNL     1      44.001   5.074  10.097  0.00  0.00    +0.000 C 
BRANCH   7   8
ATOM      8  N   UNL     1      44.696   3.858   9.605  0.00  0.00    +0.000 NA
BRANCH   8   9
ATOM      9  C   UNL     1      44.069   2.647  10.197  0.00  0.00    +0.000 C 
BRANCH   9  10
ATOM     10  C   UNL     1      43.286   2.840  11.503  0.00  0.00    +0.000 C 
BRANCH  10  12
ATOM     11  N   UNL     1      45.426   2.818  12.686  0.00  0.00    +0.000 N 
ATOM     12  C   UNL     1      44.117   3.184  12.722  0.00  0.00    +0.000 C 
ATOM     13  O   UNL     1      43.632   3.678  13.735  0.00  0.00    +0.000 OA
ATOM     14  H   UNL     1      46.022   3.066  13.462  0.00  0.00    +0.000 HD
ATOM     15  H   UNL     1      45.844   2.550  11.797  0.00  0.00    +0.000 HD
ENDBRANCH  10  12
ENDBRANCH   9  10
ENDBRANCH   8   9
BRANCH   8  16
ATOM     16  C   UNL     1      44.662   3.825   8.120  0.00  0.00    +0.000 C 
BRANCH  16  17
ATOM     17  C   UNL     1      45.827   3.060   7.517  0.00  0.00    +0.000 A 
ATOM     18  C   UNL     1      46.496   3.542   6.382  0.00  0.00    +0.000 A 
ATOM     19  C   UNL     1      47.491   2.781   5.766  0.00  0.00    +0.000 A 
ATOM     20  C   UNL     1      47.843   1.540   6.291  0.00  0.00    +0.000 A 
ATOM     21  C   UNL     1      47.212   1.064   7.438  0.00  0.00    +0.000 A 
ATOM     22  C   UNL     1      46.211   1.820   8.052  0.00  0.00    +0.000 A 
ENDBRANCH  16  17
ENDBRANCH   8  16
ENDBRANCH   7   8
ENDBRANCH   1   7
BRANCH   4  23
ATOM     23  C   UNL     1      47.375   8.356  13.550  0.00  0.00    +0.000 C 
BRANCH  23  24
ATOM     24  N   UNL     1      47.703   7.604  14.736  0.00  0.00    +0.000 N 
ATOM     25  C   UNL     1      48.921   6.993  14.875  0.00  0.00    +0.000 C 
ATOM     26  O   UNL     1      49.798   7.089  14.020  0.00  0.00    +0.000 OA
ATOM     27  H   UNL     1      46.932   7.333  15.339  0.00  0.00    +0.000 HD
BRANCH  25  28
ATOM     28  C   UNL     1      49.151   6.264  16.128  0.00  0.00    +0.000 A 
ATOM     29  C   UNL     1      50.148   6.688  16.995  0.00  0.00    +0.000 A 
ATOM     30  S   UNL     1      50.251   5.762  18.423  0.00  0.00    +0.000 S 
ATOM     31  C   UNL     1      49.000   4.731  17.908  0.00  0.00    +0.000 A 
ATOM     32  N   UNL     1      48.600   3.681  18.677  0.00  0.00    +0.000 NA
ATOM     33  C   UNL     1      47.663   2.965  18.151  0.00  0.00    +0.000 A 
ATOM     34  N   UNL     1      47.083   3.204  16.936  0.00  0.00    +0.000 N 
ATOM     35  C   UNL     1      47.438   4.268  16.135  0.00  0.00    +0.000 A 
ATOM     36  O   UNL     1      46.870   4.480  15.068  0.00  0.00    +0.000 OA
ATOM     37  C   UNL     1      48.496   5.099  16.673  0.00  0.00    +0.000 A 
ATOM     38  H   UNL     1      46.347   2.613  16.585  0.00  0.00    +0.000 HD
ENDBRANCH  25  28
ENDBRANCH  23  24
ENDBRANCH   4  23
TORSDOF 10
ENDMDL
MODEL 2
REMARK VINA RESULT:    -8.101      1.676      2.048
REMARK INTER + INTRA:         -14.539
REMARK INTER:                 -12.200
REMARK INTRA:                  -2.339
REMARK UNBOUND:                -1.703
REMARK  Name = 
REMARK  10 active torsions:
REMARK  status: ('A' for Active; 'I' for Inactive)
REMARK    1  A    between atoms: C_2  and  C_4
REMARK    2  A    between atoms: C_4  and  C_5
REMARK    3  A    between atoms: C_5  and  N_6
REMARK    4  A    between atoms: N_6  and  C_7
REMARK    5  A    between atoms: N_6  and  C_14
REMARK    6  A    between atoms: C_7  and  C_8
REMARK    7  A    between atoms: C_14  and  C_15
REMARK    8  A    between atoms: C_18  and  C_19
REMARK    9  A    between atoms: C_19  and  N_20
REMARK   10  A    between atoms: C_21  and  C_23
REMARK                            x       y       z     vdW  Elec       q    Type
REMARK                         _______ _______ _______ _____ _____    ______ ____
ROOT
ATOM      1  C   UNL     1      45.795   7.053  11.645  0.00  0.00    +0.000 A 
ATOM      2  C   UNL     1      45.387   8.057  12.534  0.00  0.00    +0.000 A 
ATOM      3  C   UNL     1      46.325   8.749  13.303  0.00  0.00    +0.000 A 
ATOM      4  C   UNL     1      47.689   8.449  13.199  0.00  0.00    +0.000 A 
ATOM      5  C   UNL     1      48.095   7.438  12.320  0.00  0.00    +0.000 A 
ATOM      6  C   UNL     1      47.159   6.751  11.545  0.00  0.00    +0.000 A 
ENDROOT
BRANCH   1   7
ATOM      7  C   UNL     1      44.781   6.245  10.862  0.00  0.00    +0.000 C 
BRANCH   7   8
ATOM      8  N   UNL     1      45.134   4.813  10.697  0.00  0.00    +0.000 NA
BRANCH   8   9
ATOM      9  C   UNL     1      44.723   4.051  11.906  0.00  0.00    +0.000 C 
BRANCH   9  10
ATOM     10  C   UNL     1      45.770   3.116  12.526  0.00  0.00    +0.000 C 
BRANCH  10  12
ATOM     11  N   UNL     1      45.959   4.789  14.299  0.00  0.00    +0.000 N 
ATOM     12  C   UNL     1      46.432   3.620  13.792  0.00  0.00    +0.000 C 
ATOM     13  O   UNL     1      47.408   3.068  14.293  0.00  0.00    +0.000 OA
ATOM     14  H   UNL     1      46.347   5.137  15.163  0.00  0.00    +0.000 HD
ATOM     15  H   UNL     1      45.067   5.152  13.967  0.00  0.00    +0.000 HD
ENDBRANCH  10  12
ENDBRANCH   9  10
ENDBRANCH   8   9
BRANCH   8  16
ATOM     16  C   UNL     1      44.500   4.276   9.466  0.00  0.00    +0.000 C 
BRANCH  16  17
ATOM     17  C   UNL     1      45.432   3.392   8.656  0.00  0.00    +0.000 A 
ATOM     18  C   UNL     1      46.244   3.935   7.647  0.00  0.00    +0.000 A 
ATOM     19  C   UNL     1      47.014   3.105   6.832  0.00  0.00    +0.000 A 
ATOM     20  C   UNL     1      46.998   1.725   7.027  0.00  0.00    +0.000 A 
ATOM     21  C   UNL     1      46.224   1.176   8.047  0.00  0.00    +0.000 A 
ATOM     22  C   UNL     1      45.447   2.004   8.860  0.00  0.00    +0.000 A 
ENDBRANCH  16  17
ENDBRANCH   8  16
ENDBRANCH   7   8
ENDBRANCH   1   7
BRANCH   4  23
ATOM     23  C   UNL     1      48.704   9.156  14.059  0.00  0.00    +0.000 C 
BRANCH  23  24
ATOM     24  N   UNL     1      49.008   8.386  15.239  0.00  0.00    +0.000 N 
ATOM     25  C   UNL     1      48.512   8.741  16.465  0.00  0.00    +0.000 C 
ATOM     26  O   UNL     1      47.758   9.701  16.609  0.00  0.00    +0.000 OA
ATOM     27  H   UNL     1      49.789   7.739  15.180  0.00  0.00    +0.000 HD
BRANCH  25  28
ATOM     28  C   UNL     1      48.877   7.879  17.596  0.00  0.00    +0.000 A 
ATOM     29  C   UNL     1      49.198   8.451  18.819  0.00  0.00    +0.000 A 
ATOM     30  S   UNL     1      49.550   7.309  20.036  0.00  0.00    +0.000 S 
ATOM     31  C   UNL     1      49.337   6.013  18.956  0.00  0.00    +0.000 A 
ATOM     32  N   UNL     1      49.518   4.727  19.365  0.00  0.00    +0.000 NA
ATOM     33  C   UNL     1      49.352   3.846  18.435  0.00  0.00    +0.000 A 
ATOM     34  N   UNL     1      49.014   4.129  17.140  0.00  0.00    +0.000 N 
ATOM     35  C   UNL     1      48.796   5.412  16.688  0.00  0.00    +0.000 A 
ATOM     36  O   UNL     1      48.453   5.630  15.529  0.00  0.00    +0.000 OA
ATOM     37  C   UNL     1      48.981   6.442  17.690  0.00  0.00    +0.000 A 
ATOM     38  H   UNL     1      48.889   3.394  16.463  0.00  0.00    +0.000 HD
ENDBRANCH  25  28
ENDBRANCH  23  24
ENDBRANCH   4  23
TORSDOF 10
ENDMDL
MODEL 3
REMARK VINA RESULT:    -7.726      2.156      2.719
REMARK INTER + INTRA:         -13.946
REMARK INTER:                 -12.969
REMARK INTRA:                  -0.977
REMARK UNBOUND:                -1.703
REMARK  Name = 
REMARK  10 active torsions:
REMARK  status: ('A' for Active; 'I' for Inactive)
REMARK    1  A    between atoms: C_2  and  C_4
REMARK    2  A    between atoms: C_4  and  C_5
REMARK    3  A    between atoms: C_5  and  N_6
REMARK    4  A    between atoms: N_6  and  C_7
REMARK    5  A    between atoms: N_6  and  C_14
REMARK    6  A    between atoms: C_7  and  C_8
REMARK    7  A    between atoms: C_14  and  C_15
REMARK    8  A    between atoms: C_18  and  C_19
REMARK    9  A    between atoms: C_19  and  N_20
REMARK   10  A    between atoms: C_21  and  C_23
REMARK                            x       y       z     vdW  Elec       q    Type
REMARK                         _______ _______ _______ _____ _____    ______ ____
ROOT
ATOM      1  C   UNL     1      46.471   6.196  11.703  0.00  0.00    +0.000 A 
ATOM      2  C   UNL     1      46.517   5.486  12.911  0.00  0.00    +0.000 A 
ATOM      3  C   UNL     1      47.488   5.780  13.872  0.00  0.00    +0.000 A 
ATOM      4  C   UNL     1      48.432   6.788  13.641  0.00  0.00    +0.000 A 
ATOM      5  C   UNL     1      48.394   7.489  12.430  0.00  0.00    +0.000 A 
ATOM      6  C   UNL     1      47.419   7.201  11.473  0.00  0.00    +0.000 A 
ENDROOT
BRANCH   1   7
ATOM      7  C   UNL     1      45.470   5.836  10.624  0.00  0.00    +0.000 C 
BRANCH   7   8
ATOM      8  N   UNL     1      45.399   4.386  10.315  0.00  0.00    +0.000 NA
BRANCH   8   9
ATOM      9  C   UNL     1      44.521   3.704  11.303  0.00  0.00    +0.000 C 
BRANCH   9  10
ATOM     10  C   UNL     1      43.040   4.106  11.308  0.00  0.00    +0.000 C 
BRANCH  10  12
ATOM     11  N   UNL     1      41.970   6.253  11.785  0.00  0.00    +0.000 N 
ATOM     12  C   UNL     1      42.659   5.195  12.290  0.00  0.00    +0.000 C 
ATOM     13  O   UNL     1      43.026   5.187  13.462  0.00  0.00    +0.000 OA
ATOM     14  H   UNL     1      41.663   6.979  12.416  0.00  0.00    +0.000 HD
ATOM     15  H   UNL     1      41.548   6.178  10.861  0.00  0.00    +0.000 HD
ENDBRANCH  10  12
ENDBRANCH   9  10
ENDBRANCH   8   9
BRANCH   8  16
ATOM     16  C   UNL     1      44.916   4.191   8.924  0.00  0.00    +0.000 C 
BRANCH  16  17
ATOM     17  C   UNL     1      45.749   3.191   8.142  0.00  0.00    +0.000 A 
ATOM     18  C   UNL     1      45.778   1.835   8.505  0.00  0.00    +0.000 A 
ATOM     19  C   UNL     1      46.631   0.943   7.854  0.00  0.00    +0.000 A 
ATOM     20  C   UNL     1      47.448   1.391   6.818  0.00  0.00    +0.000 A 
ATOM     21  C   UNL     1      47.404   2.726   6.424  0.00  0.00    +0.000 A 
ATOM     22  C   UNL     1      46.557   3.623   7.079  0.00  0.00    +0.000 A 
ENDBRANCH  16  17
ENDBRANCH   8  16
ENDBRANCH   7   8
ENDBRANCH   1   7
BRANCH   4  23
ATOM     23  C   UNL     1      49.512   7.080  14.649  0.00  0.00    +0.000 C 
BRANCH  23  24
ATOM     24  N   UNL     1      49.014   6.944  15.996  0.00  0.00    +0.000 N 
ATOM     25  C   UNL     1      49.398   7.810  16.984  0.00  0.00    +0.000 C 
ATOM     26  O   UNL     1      50.146   8.760  16.763  0.00  0.00    +0.000 OA
ATOM     27  H   UNL     1      48.584   6.058  16.242  0.00  0.00    +0.000 HD
BRANCH  25  28
ATOM     28  C   UNL     1      48.820   7.585  18.315  0.00  0.00    +0.000 A 
ATOM     29  C   UNL     1      48.151   8.617  18.956  0.00  0.00    +0.000 A 
ATOM     30  S   UNL     1      47.501   8.176  20.470  0.00  0.00    +0.000 S 
ATOM     31  C   UNL     1      48.138   6.603  20.343  0.00  0.00    +0.000 A 
ATOM     32  N   UNL     1      47.959   5.695  21.342  0.00  0.00    +0.000 NA
ATOM     33  C   UNL     1      48.520   4.553  21.127  0.00  0.00    +0.000 A 
ATOM     34  N   UNL     1      49.233   4.229  20.006  0.00  0.00    +0.000 N 
ATOM     35  C   UNL     1      49.418   5.105  18.959  0.00  0.00    +0.000 A 
ATOM     36  O   UNL     1      50.028   4.771  17.948  0.00  0.00    +0.000 OA
ATOM     37  C   UNL     1      48.818   6.410  19.154  0.00  0.00    +0.000 A 
ATOM     38  H   UNL     1      49.638   3.314  19.893  0.00  0.00    +0.000 HD
ENDBRANCH  25  28
ENDBRANCH  23  24
ENDBRANCH   4  23
TORSDOF 10
ENDMDL
MODEL 4
REMARK VINA RESULT:    -7.689      1.803      2.289
REMARK INTER + INTRA:         -13.886
REMARK INTER:                 -12.126
REMARK INTRA:                  -1.761
REMARK UNBOUND:                -1.703
REMARK  Name = 
REMARK  10 active torsions:
REMARK  status: ('A' for Active; 'I' for Inactive)
REMARK    1  A    between atoms: C_2  and  C_4
REMARK    2  A    between atoms: C_4  and  C_5
REMARK    3  A    between atoms: C_5  and  N_6
REMARK    4  A    between atoms: N_6  and  C_7
REMARK    5  A    between atoms: N_6  and  C_14
REMARK    6  A    between atoms: C_7  and  C_8
REMARK    7  A    between atoms: C_14  and  C_15
REMARK    8  A    between atoms: C_18  and  C_19
REMARK    9  A    between atoms: C_19  and  N_20
REMARK   10  A    between atoms: C_21  and  C_23
REMARK                            x       y       z     vdW  Elec       q    Type
REMARK                         _______ _______ _______ _____ _____    ______ ____
ROOT
ATOM      1  C   UNL     1      46.188   6.534  11.377  0.00  0.00    +0.000 A 
ATOM      2  C   UNL     1      47.169   5.889  12.142  0.00  0.00    +0.000 A 
ATOM      3  C   UNL     1      47.703   6.503  13.277  0.00  0.00    +0.000 A 
ATOM      4  C   UNL     1      47.268   7.776  13.667  0.00  0.00    +0.000 A 
ATOM      5  C   UNL     1      46.297   8.426  12.895  0.00  0.00    +0.000 A 
ATOM      6  C   UNL     1      45.757   7.809  11.765  0.00  0.00    +0.000 A 
ENDROOT
BRANCH   1   7
ATOM      7  C   UNL     1      45.656   5.910  10.103  0.00  0.00    +0.000 C 
BRANCH   7   8
ATOM      8  N   UNL     1      44.654   4.836  10.319  0.00  0.00    +0.000 NA
BRANCH   8   9
ATOM      9  C   UNL     1      43.482   5.383  11.051  0.00  0.00    +0.000 C 
BRANCH   9  10
ATOM     10  C   UNL     1      43.182   4.778  12.430  0.00  0.00    +0.000 C 
BRANCH  10  12
ATOM     11  N   UNL     1      43.901   2.441  12.454  0.00  0.00    +0.000 N 
ATOM     12  C   UNL     1      44.142   3.704  12.898  0.00  0.00    +0.000 C 
ATOM     13  O   UNL     1      45.035   3.923  13.711  0.00  0.00    +0.000 OA
ATOM     14  H   UNL     1      44.543   1.705  12.711  0.00  0.00    +0.000 HD
ATOM     15  H   UNL     1      43.261   2.300  11.675  0.00  0.00    +0.000 HD
ENDBRANCH  10  12
ENDBRANCH   9  10
ENDBRANCH   8   9
BRANCH   8  16
ATOM     16  C   UNL     1      44.260   4.245   9.015  0.00  0.00    +0.000 C 
BRANCH  16  17
ATOM     17  C   UNL     1      45.333   3.347   8.423  0.00  0.00    +0.000 A 
ATOM     18  C   UNL     1      46.234   3.835   7.463  0.00  0.00    +0.000 A 
ATOM     19  C   UNL     1      47.143   2.978   6.841  0.00  0.00    +0.000 A 
ATOM     20  C   UNL     1      47.176   1.629   7.186  0.00  0.00    +0.000 A 
ATOM     21  C   UNL     1      46.312   1.138   8.162  0.00  0.00    +0.000 A 
ATOM     22  C   UNL     1      45.396   1.991   8.781  0.00  0.00    +0.000 A 
ENDBRANCH  16  17
ENDBRANCH   8  16
ENDBRANCH   7   8
ENDBRANCH   1   7
BRANCH   4  23
ATOM     23  C   UNL     1      47.872   8.467  14.860  0.00  0.00    +0.000 C 
BRANCH  23  24
ATOM     24  N   UNL     1      48.181   7.521  15.904  0.00  0.00    +0.000 N 
ATOM     25  C   UNL     1      49.461   7.368  16.366  0.00  0.00    +0.000 C 
ATOM     26  O   UNL     1      50.391   8.052  15.945  0.00  0.00    +0.000 OA
ATOM     27  H   UNL     1      47.486   6.809  16.102  0.00  0.00    +0.000 HD
BRANCH  25  28
ATOM     28  C   UNL     1      49.660   6.385  17.439  0.00  0.00    +0.000 A 
ATOM     29  C   UNL     1      50.611   5.387  17.287  0.00  0.00    +0.000 A 
ATOM     30  S   UNL     1      50.747   4.360  18.642  0.00  0.00    +0.000 S 
ATOM     31  C   UNL     1      49.501   5.184  19.457  0.00  0.00    +0.000 A 
ATOM     32  N   UNL     1      49.094   4.786  20.694  0.00  0.00    +0.000 NA
ATOM     33  C   UNL     1      48.122   5.482  21.181  0.00  0.00    +0.000 A 
ATOM     34  N   UNL     1      47.526   6.541  20.555  0.00  0.00    +0.000 N 
ATOM     35  C   UNL     1      47.921   6.995  19.315  0.00  0.00    +0.000 A 
ATOM     36  O   UNL     1      47.393   7.974  18.798  0.00  0.00    +0.000 OA
ATOM     37  C   UNL     1      49.003   6.241  18.716  0.00  0.00    +0.000 A 
ATOM     38  H   UNL     1      46.777   7.051  20.995  0.00  0.00    +0.000 HD
ENDBRANCH  25  28
ENDBRANCH  23  24
ENDBRANCH   4  23
TORSDOF 10
ENDMDL
MODEL 5
REMARK VINA RESULT:    -7.170      3.178      8.942
REMARK INTER + INTRA:         -13.064
REMARK INTER:                 -11.030
REMARK INTRA:                  -2.034
REMARK UNBOUND:                -1.703
REMARK  Name = 
REMARK  10 active torsions:
REMARK  status: ('A' for Active; 'I' for Inactive)
REMARK    1  A    between atoms: C_2  and  C_4
REMARK    2  A    between atoms: C_4  and  C_5
REMARK    3  A    between atoms: C_5  and  N_6
REMARK    4  A    between atoms: N_6  and  C_7
REMARK    5  A    between atoms: N_6  and  C_14
REMARK    6  A    between atoms: C_7  and  C_8
REMARK    7  A    between atoms: C_14  and  C_15
REMARK    8  A    between atoms: C_18  and  C_19
REMARK    9  A    between atoms: C_19  and  N_20
REMARK   10  A    between atoms: C_21  and  C_23
REMARK                            x       y       z     vdW  Elec       q    Type
REMARK                         _______ _______ _______ _____ _____    ______ ____
ROOT
ATOM      1  C   UNL     1      50.055   6.969  15.837  0.00  0.00    +0.000 A 
ATOM      2  C   UNL     1      50.858   7.598  14.876  0.00  0.00    +0.000 A 
ATOM      3  C   UNL     1      50.326   7.972  13.640  0.00  0.00    +0.000 A 
ATOM      4  C   UNL     1      48.981   7.722  13.341  0.00  0.00    +0.000 A 
ATOM      5  C   UNL     1      48.182   7.081  14.296  0.00  0.00    +0.000 A 
ATOM      6  C   UNL     1      48.712   6.714  15.535  0.00  0.00    +0.000 A 
ENDROOT
BRANCH   1   7
ATOM      7  C   UNL     1      50.640   6.492  17.151  0.00  0.00    +0.000 C 
BRANCH   7   8
ATOM      8  N   UNL     1      49.639   5.962  18.110  0.00  0.00    +0.000 NA
BRANCH   8   9
ATOM      9  C   UNL     1      49.757   4.482  18.193  0.00  0.00    +0.000 C 
BRANCH   9  10
ATOM     10  C   UNL     1      48.836   3.661  17.279  0.00  0.00    +0.000 C 
BRANCH  10  12
ATOM     11  N   UNL     1      46.918   4.946  18.085  0.00  0.00    +0.000 N 
ATOM     12  C   UNL     1      47.354   3.762  17.579  0.00  0.00    +0.000 C 
ATOM     13  O   UNL     1      46.591   2.808  17.470  0.00  0.00    +0.000 OA
ATOM     14  H   UNL     1      45.931   5.067  18.260  0.00  0.00    +0.000 HD
ATOM     15  H   UNL     1      47.522   5.765  18.030  0.00  0.00    +0.000 HD
ENDBRANCH  10  12
ENDBRANCH   9  10
ENDBRANCH   8   9
BRANCH   8  16
ATOM     16  C   UNL     1      49.825   6.602  19.437  0.00  0.00    +0.000 C 
BRANCH  16  17
ATOM     17  C   UNL     1      48.729   7.599  19.773  0.00  0.00    +0.000 A 
ATOM     18  C   UNL     1      48.236   8.484  18.800  0.00  0.00    +0.000 A 
ATOM     19  C   UNL     1      47.311   9.471  19.142  0.00  0.00    +0.000 A 
ATOM     20  C   UNL     1      46.852   9.572  20.453  0.00  0.00    +0.000 A 
ATOM     21  C   UNL     1      47.306   8.678  21.421  0.00  0.00    +0.000 A 
ATOM     22  C   UNL     1      48.237   7.694  21.084  0.00  0.00    +0.000 A 
ENDBRANCH  16  17
ENDBRANCH   8  16
ENDBRANCH   7   8
ENDBRANCH   1   7
BRANCH   4  23
ATOM     23  C   UNL     1      48.409   8.077  11.994  0.00  0.00    +0.000 C 
BRANCH  23  24
ATOM     24  N   UNL     1      47.681   6.966  11.431  0.00  0.00    +0.000 N 
ATOM     25  C   UNL     1      46.312   6.945  11.428  0.00  0.00    +0.000 C 
ATOM     26  O   UNL     1      45.645   7.881  11.863  0.00  0.00    +0.000 OA
ATOM     27  H   UNL     1      48.198   6.107  11.275  0.00  0.00    +0.000 HD
BRANCH  25  28
ATOM     28  C   UNL     1      45.674   5.771  10.820  0.00  0.00    +0.000 A 
ATOM     29  C   UNL     1      45.796   5.554   9.455  0.00  0.00    +0.000 A 
ATOM     30  S   UNL     1      45.038   4.123   8.919  0.00  0.00    +0.000 S 
ATOM     31  C   UNL     1      44.478   3.771  10.486  0.00  0.00    +0.000 A 
ATOM     32  N   UNL     1      43.721   2.664  10.725  0.00  0.00    +0.000 NA
ATOM     33  C   UNL     1      43.341   2.536  11.952  0.00  0.00    +0.000 A 
ATOM     34  N   UNL     1      43.651   3.403  12.963  0.00  0.00    +0.000 N 
ATOM     35  C   UNL     1      44.435   4.521  12.774  0.00  0.00    +0.000 A 
ATOM     36  O   UNL     1      44.730   5.257  13.710  0.00  0.00    +0.000 OA
ATOM     37  C   UNL     1      44.881   4.719  11.409  0.00  0.00    +0.000 A 
ATOM     38  H   UNL     1      43.332   3.241  13.904  0.00  0.00    +0.000 HD
ENDBRANCH  25  28
ENDBRANCH  23  24
ENDBRANCH   4  23
TORSDOF 10
ENDMDL
MODEL 6
REMARK VINA RESULT:    -7.131      1.981      2.647
REMARK INTER + INTRA:         -13.003
REMARK INTER:                 -11.812
REMARK INTRA:                  -1.190
REMARK UNBOUND:                -1.703
REMARK  Name = 
REMARK  10 active torsions:
REMARK  status: ('A' for Active; 'I' for Inactive)
REMARK    1  A    between atoms: C_2  and  C_4
REMARK    2  A    between atoms: C_4  and  C_5
REMARK    3  A    between atoms: C_5  and  N_6
REMARK    4  A    between atoms: N_6  and  C_7
REMARK    5  A    between atoms: N_6  and  C_14
REMARK    6  A    between atoms: C_7  and  C_8
REMARK    7  A    between atoms: C_14  and  C_15
REMARK    8  A    between atoms: C_18  and  C_19
REMARK    9  A    between atoms: C_19  and  N_20
REMARK   10  A    between atoms: C_21  and  C_23
REMARK                            x       y       z     vdW  Elec       q    Type
REMARK                         _______ _______ _______ _____ _____    ______ ____
ROOT
ATOM      1  C   UNL     1      46.124   6.262  11.383  0.00  0.00    +0.000 A 
ATOM      2  C   UNL     1      46.530   5.561  12.526  0.00  0.00    +0.000 A 
ATOM      3  C   UNL     1      47.571   6.042  13.323  0.00  0.00    +0.000 A 
ATOM      4  C   UNL     1      48.227   7.234  12.991  0.00  0.00    +0.000 A 
ATOM      5  C   UNL     1      47.829   7.928  11.842  0.00  0.00    +0.000 A 
ATOM      6  C   UNL     1      46.784   7.451  11.049  0.00  0.00    +0.000 A 
ENDROOT
BRANCH   1   7
ATOM      7  C   UNL     1      45.048   5.711  10.470  0.00  0.00    +0.000 C 
BRANCH   7   8
ATOM      8  N   UNL     1      45.261   4.302  10.053  0.00  0.00    +0.000 NA
BRANCH   8   9
ATOM      9  C   UNL     1      44.415   3.401  10.879  0.00  0.00    +0.000 C 
BRANCH   9  10
ATOM     10  C   UNL     1      43.099   3.982  11.415  0.00  0.00    +0.000 C 
BRANCH  10  12
ATOM     11  N   UNL     1      42.665   5.625  13.173  0.00  0.00    +0.000 N 
ATOM     12  C   UNL     1      43.101   4.371  12.879  0.00  0.00    +0.000 C 
ATOM     13  O   UNL     1      43.558   3.644  13.756  0.00  0.00    +0.000 OA
ATOM     14  H   UNL     1      42.613   5.907  14.141  0.00  0.00    +0.000 HD
ATOM     15  H   UNL     1      42.156   6.154  12.467  0.00  0.00    +0.000 HD
ENDBRANCH  10  12
ENDBRANCH   9  10
ENDBRANCH   8   9
BRANCH   8  16
ATOM     16  C   UNL     1      44.968   4.156   8.605  0.00  0.00    +0.000 C 
BRANCH  16  17
ATOM     17  C   UNL     1      45.902   3.183   7.906  0.00  0.00    +0.000 A 
ATOM     18  C   UNL     1      46.618   3.566   6.761  0.00  0.00    +0.000 A 
ATOM     19  C   UNL     1      47.386   2.636   6.060  0.00  0.00    +0.000 A 
ATOM     20  C   UNL     1      47.465   1.319   6.506  0.00  0.00    +0.000 A 
ATOM     21  C   UNL     1      46.789   0.933   7.661  0.00  0.00    +0.000 A 
ATOM     22  C   UNL     1      46.012   1.859   8.361  0.00  0.00    +0.000 A 
ENDBRANCH  16  17
ENDBRANCH   8  16
ENDBRANCH   7   8
ENDBRANCH   1   7
BRANCH   4  23
ATOM     23  C   UNL     1      49.382   7.737  13.816  0.00  0.00    +0.000 C 
BRANCH  23  24
ATOM     24  N   UNL     1      49.691   6.820  14.886  0.00  0.00    +0.000 N 
ATOM     25  C   UNL     1      49.378   7.116  16.186  0.00  0.00    +0.000 C 
ATOM     26  O   UNL     1      48.787   8.148  16.494  0.00  0.00    +0.000 OA
ATOM     27  H   UNL     1      50.362   6.085  14.684  0.00  0.00    +0.000 HD
BRANCH  25  28
ATOM     28  C   UNL     1      49.728   6.106  17.192  0.00  0.00    +0.000 A 
ATOM     29  C   UNL     1      48.739   5.583  18.012  0.00  0.00    +0.000 A 
ATOM     30  S   UNL     1      49.306   4.389  19.090  0.00  0.00    +0.000 S 
ATOM     31  C   UNL     1      50.903   4.568  18.532  0.00  0.00    +0.000 A 
ATOM     32  N   UNL     1      51.916   3.835  19.070  0.00  0.00    +0.000 NA
ATOM     33  C   UNL     1      53.080   4.093  18.573  0.00  0.00    +0.000 A 
ATOM     34  N   UNL     1      53.324   5.006  17.585  0.00  0.00    +0.000 N 
ATOM     35  C   UNL     1      52.327   5.751  16.993  0.00  0.00    +0.000 A 
ATOM     36  O   UNL     1      52.573   6.533  16.079  0.00  0.00    +0.000 OA
ATOM     37  C   UNL     1      51.000   5.509  17.523  0.00  0.00    +0.000 A 
ATOM     38  H   UNL     1      54.255   5.154  17.231  0.00  0.00    +0.000 HD
ENDBRANCH  25  28
ENDBRANCH  23  24
ENDBRANCH   4  23
TORSDOF 10
ENDMDL
MODEL 7
REMARK VINA RESULT:    -7.109      3.522      4.791
REMARK INTER + INTRA:         -12.967
REMARK INTER:                 -11.033
REMARK INTRA:                  -1.933
REMARK UNBOUND:                -1.703
REMARK  Name = 
REMARK  10 active torsions:
REMARK  status: ('A' for Active; 'I' for Inactive)
REMARK    1  A    between atoms: C_2  and  C_4
REMARK    2  A    between atoms: C_4  and  C_5
REMARK    3  A    between atoms: C_5  and  N_6
REMARK    4  A    between atoms: N_6  and  C_7
REMARK    5  A    between atoms: N_6  and  C_14
REMARK    6  A    between atoms: C_7  and  C_8
REMARK    7  A    between atoms: C_14  and  C_15
REMARK    8  A    between atoms: C_18  and  C_19
REMARK    9  A    between atoms: C_19  and  N_20
REMARK   10  A    between atoms: C_21  and  C_23
REMARK                            x       y       z     vdW  Elec       q    Type
REMARK                         _______ _______ _______ _____ _____    ______ ____
ROOT
ATOM      1  C   UNL     1      45.727   7.005  11.574  0.00  0.00    +0.000 A 
ATOM      2  C   UNL     1      45.282   7.971  12.487  0.00  0.00    +0.000 A 
ATOM      3  C   UNL     1      46.195   8.694  13.259  0.00  0.00    +0.000 A 
ATOM      4  C   UNL     1      47.571   8.463  13.133  0.00  0.00    +0.000 A 
ATOM      5  C   UNL     1      48.014   7.489  12.229  0.00  0.00    +0.000 A 
ATOM      6  C   UNL     1      47.103   6.772  11.453  0.00  0.00    +0.000 A 
ENDROOT
BRANCH   1   7
ATOM      7  C   UNL     1      44.744   6.163  10.788  0.00  0.00    +0.000 C 
BRANCH   7   8
ATOM      8  N   UNL     1      45.068   4.715  10.753  0.00  0.00    +0.000 NA
BRANCH   8   9
ATOM      9  C   UNL     1      44.760   4.099  12.071  0.00  0.00    +0.000 C 
BRANCH   9  10
ATOM     10  C   UNL     1      45.830   3.177  12.672  0.00  0.00    +0.000 C 
BRANCH  10  12
ATOM     11  N   UNL     1      46.205   4.965  14.296  0.00  0.00    +0.000 N 
ATOM     12  C   UNL     1      46.587   3.736  13.859  0.00  0.00    +0.000 C 
ATOM     13  O   UNL     1      47.558   3.169  14.351  0.00  0.00    +0.000 OA
ATOM     14  H   UNL     1      46.659   5.354  15.110  0.00  0.00    +0.000 HD
ATOM     15  H   UNL     1      45.317   5.353  13.983  0.00  0.00    +0.000 HD
ENDBRANCH  10  12
ENDBRANCH   9  10
ENDBRANCH   8   9
BRANCH   8  16
ATOM     16  C   UNL     1      44.319   4.057   9.652  0.00  0.00    +0.000 C 
BRANCH  16  17
ATOM     17  C   UNL     1      45.217   3.273   8.710  0.00  0.00    +0.000 A 
ATOM     18  C   UNL     1      45.370   1.884   8.850  0.00  0.00    +0.000 A 
ATOM     19  C   UNL     1      46.281   1.187   8.056  0.00  0.00    +0.000 A 
ATOM     20  C   UNL     1      47.033   1.864   7.099  0.00  0.00    +0.000 A 
ATOM     21  C   UNL     1      46.866   3.236   6.925  0.00  0.00    +0.000 A 
ATOM     22  C   UNL     1      45.961   3.938   7.724  0.00  0.00    +0.000 A 
ENDBRANCH  16  17
ENDBRANCH   8  16
ENDBRANCH   7   8
ENDBRANCH   1   7
BRANCH   4  23
ATOM     23  C   UNL     1      48.561   9.202  13.993  0.00  0.00    +0.000 C 
BRANCH  23  24
ATOM     24  N   UNL     1      49.910   8.775  13.714  0.00  0.00    +0.000 N 
ATOM     25  C   UNL     1      50.922   9.682  13.552  0.00  0.00    +0.000 C 
ATOM     26  O   UNL     1      50.738  10.891  13.675  0.00  0.00    +0.000 OA
ATOM     27  H   UNL     1      50.035   7.819  13.396  0.00  0.00    +0.000 HD
BRANCH  25  28
ATOM     28  C   UNL     1      52.257   9.136  13.283  0.00  0.00    +0.000 A 
ATOM     29  C   UNL     1      53.291   9.379  14.176  0.00  0.00    +0.000 A 
ATOM     30  S   UNL     1      54.762   8.634  13.739  0.00  0.00    +0.000 S 
ATOM     31  C   UNL     1      54.080   8.003  12.314  0.00  0.00    +0.000 A 
ATOM     32  N   UNL     1      54.829   7.266  11.449  0.00  0.00    +0.000 NA
ATOM     33  C   UNL     1      54.193   6.876  10.395  0.00  0.00    +0.000 A 
ATOM     34  N   UNL     1      52.879   7.145  10.129  0.00  0.00    +0.000 N 
ATOM     35  C   UNL     1      52.075   7.865  10.987  0.00  0.00    +0.000 A 
ATOM     36  O   UNL     1      50.888   8.054  10.739  0.00  0.00    +0.000 OA
ATOM     37  C   UNL     1      52.744   8.338  12.183  0.00  0.00    +0.000 A 
ATOM     38  H   UNL     1      52.436   6.803   9.292  0.00  0.00    +0.000 HD
ENDBRANCH  25  28
ENDBRANCH  23  24
ENDBRANCH   4  23
TORSDOF 10
ENDMDL
MODEL 8
REMARK VINA RESULT:    -6.979      3.437      9.422
REMARK INTER + INTRA:         -12.761
REMARK INTER:                 -10.746
REMARK INTRA:                  -2.015
REMARK UNBOUND:                -1.703
REMARK  Name = 
REMARK  10 active torsions:
REMARK  status: ('A' for Active; 'I' for Inactive)
REMARK    1  A    between atoms: C_2  and  C_4
REMARK    2  A    between atoms: C_4  and  C_5
REMARK    3  A    between atoms: C_5  and  N_6
REMARK    4  A    between atoms: N_6  and  C_7
REMARK    5  A    between atoms: N_6  and  C_14
REMARK    6  A    between atoms: C_7  and  C_8
REMARK    7  A    between atoms: C_14  and  C_15
REMARK    8  A    between atoms: C_18  and  C_19
REMARK    9  A    between atoms: C_19  and  N_20
REMARK   10  A    between atoms: C_21  and  C_23
REMARK                            x       y       z     vdW  Elec       q    Type
REMARK                         _______ _______ _______ _____ _____    ______ ____
ROOT
ATOM      1  C   UNL     1      49.452   8.002  15.783  0.00  0.00    +0.000 A 
ATOM      2  C   UNL     1      50.037   7.280  14.733  0.00  0.00    +0.000 A 
ATOM      3  C   UNL     1      49.452   7.270  13.465  0.00  0.00    +0.000 A 
ATOM      4  C   UNL     1      48.269   7.980  13.223  0.00  0.00    +0.000 A 
ATOM      5  C   UNL     1      47.679   8.691  14.275  0.00  0.00    +0.000 A 
ATOM      6  C   UNL     1      48.268   8.708  15.540  0.00  0.00    +0.000 A 
ENDROOT
BRANCH   1   7
ATOM      7  C   UNL     1      50.037   7.959  17.180  0.00  0.00    +0.000 C 
BRANCH   7   8
ATOM      8  N   UNL     1      49.232   7.183  18.157  0.00  0.00    +0.000 NA
BRANCH   8   9
ATOM      9  C   UNL     1      49.468   5.728  17.959  0.00  0.00    +0.000 C 
BRANCH   9  10
ATOM     10  C   UNL     1      48.504   4.991  17.019  0.00  0.00    +0.000 C 
BRANCH  10  12
ATOM     11  N   UNL     1      46.661   5.354  18.584  0.00  0.00    +0.000 N 
ATOM     12  C   UNL     1      47.200   4.536  17.642  0.00  0.00    +0.000 C 
ATOM     13  O   UNL     1      46.693   3.446  17.394  0.00  0.00    +0.000 OA
ATOM     14  H   UNL     1      45.772   5.105  18.993  0.00  0.00    +0.000 HD
ATOM     15  H   UNL     1      47.004   6.309  18.671  0.00  0.00    +0.000 HD
ENDBRANCH  10  12
ENDBRANCH   9  10
ENDBRANCH   8   9
BRANCH   8  16
ATOM     16  C   UNL     1      49.568   7.611  19.538  0.00  0.00    +0.000 C 
BRANCH  16  17
ATOM     17  C   UNL     1      48.497   8.487  20.164  0.00  0.00    +0.000 A 
ATOM     18  C   UNL     1      47.430   8.982  19.397  0.00  0.00    +0.000 A 
ATOM     19  C   UNL     1      46.513   9.876  19.949  0.00  0.00    +0.000 A 
ATOM     20  C   UNL     1      46.637  10.270  21.280  0.00  0.00    +0.000 A 
ATOM     21  C   UNL     1      47.670   9.759  22.063  0.00  0.00    +0.000 A 
ATOM     22  C   UNL     1      48.594   8.870  21.511  0.00  0.00    +0.000 A 
ENDBRANCH  16  17
ENDBRANCH   8  16
ENDBRANCH   7   8
ENDBRANCH   1   7
BRANCH   4  23
ATOM     23  C   UNL     1      47.604   7.937  11.873  0.00  0.00    +0.000 C 
BRANCH  23  24
ATOM     24  N   UNL     1      46.912   6.686  11.676  0.00  0.00    +0.000 N 
ATOM     25  C   UNL     1      45.562   6.583  11.881  0.00  0.00    +0.000 C 
ATOM     26  O   UNL     1      44.877   7.552  12.200  0.00  0.00    +0.000 OA
ATOM     27  H   UNL     1      47.480   5.846  11.633  0.00  0.00    +0.000 HD
BRANCH  25  28
ATOM     28  C   UNL     1      44.960   5.266  11.641  0.00  0.00    +0.000 A 
ATOM     29  C   UNL     1      44.274   4.629  12.664  0.00  0.00    +0.000 A 
ATOM     30  S   UNL     1      43.597   3.132  12.205  0.00  0.00    +0.000 S 
ATOM     31  C   UNL     1      44.243   3.261  10.637  0.00  0.00    +0.000 A 
ATOM     32  N   UNL     1      44.049   2.275   9.719  0.00  0.00    +0.000 NA
ATOM     33  C   UNL     1      44.619   2.490   8.581  0.00  0.00    +0.000 A 
ATOM     34  N   UNL     1      45.356   3.600   8.271  0.00  0.00    +0.000 N 
ATOM     35  C   UNL     1      45.557   4.635   9.158  0.00  0.00    +0.000 A 
ATOM     36  O   UNL     1      46.188   5.637   8.836  0.00  0.00    +0.000 OA
ATOM     37  C   UNL     1      44.947   4.439  10.459  0.00  0.00    +0.000 A 
ATOM     38  H   UNL     1      45.767   3.714   7.359  0.00  0.00    +0.000 HD
ENDBRANCH  25  28
ENDBRANCH  23  24
ENDBRANCH   4  23
TORSDOF 10
ENDMDL
MODEL 9
REMARK VINA RESULT:    -6.855      4.504      6.075
REMARK INTER + INTRA:         -12.565
REMARK INTER:                 -10.888
REMARK INTRA:                  -1.677
REMARK UNBOUND:                -1.703
REMARK  Name = 
REMARK  10 active torsions:
REMARK  status: ('A' for Active; 'I' for Inactive)
REMARK    1  A    between atoms: C_2  and  C_4
REMARK    2  A    between atoms: C_4  and  C_5
REMARK    3  A    between atoms: C_5  and  N_6
REMARK    4  A    between atoms: N_6  and  C_7
REMARK    5  A    between atoms: N_6  and  C_14
REMARK    6  A    between atoms: C_7  and  C_8
REMARK    7  A    between atoms: C_14  and  C_15
REMARK    8  A    between atoms: C_18  and  C_19
REMARK    9  A    between atoms: C_19  and  N_20
REMARK   10  A    between atoms: C_21  and  C_23
REMARK                            x       y       z     vdW  Elec       q    Type
REMARK                         _______ _______ _______ _____ _____    ______ ____
ROOT
ATOM      1  C   UNL     1      45.693   7.087  11.462  0.00  0.00    +0.000 A 
ATOM      2  C   UNL     1      47.038   6.696  11.420  0.00  0.00    +0.000 A 
ATOM      3  C   UNL     1      48.049   7.585  11.793  0.00  0.00    +0.000 A 
ATOM      4  C   UNL     1      47.733   8.883  12.214  0.00  0.00    +0.000 A 
ATOM      5  C   UNL     1      46.390   9.278  12.244  0.00  0.00    +0.000 A 
ATOM      6  C   UNL     1      45.379   8.387  11.878  0.00  0.00    +0.000 A 
ENDROOT
BRANCH   1   7
ATOM      7  C   UNL     1      44.595   6.158  10.988  0.00  0.00    +0.000 C 
BRANCH   7   8
ATOM      8  N   UNL     1      45.037   4.762  10.743  0.00  0.00    +0.000 NA
BRANCH   8   9
ATOM      9  C   UNL     1      44.673   3.908  11.905  0.00  0.00    +0.000 C 
BRANCH   9  10
ATOM     10  C   UNL     1      45.820   3.169  12.608  0.00  0.00    +0.000 C 
BRANCH  10  12
ATOM     11  N   UNL     1      47.341   3.183  14.523  0.00  0.00    +0.000 N 
ATOM     12  C   UNL     1      46.433   3.885  13.794  0.00  0.00    +0.000 C 
ATOM     13  O   UNL     1      46.072   5.003  14.151  0.00  0.00    +0.000 OA
ATOM     14  H   UNL     1      47.802   3.640  15.296  0.00  0.00    +0.000 HD
ATOM     15  H   UNL     1      47.737   2.328  14.136  0.00  0.00    +0.000 HD
ENDBRANCH  10  12
ENDBRANCH   9  10
ENDBRANCH   8   9
BRANCH   8  16
ATOM     16  C   UNL     1      44.437   4.258   9.482  0.00  0.00    +0.000 C 
BRANCH  16  17
ATOM     17  C   UNL     1      45.396   3.403   8.670  0.00  0.00    +0.000 A 
ATOM     18  C   UNL     1      46.203   3.974   7.673  0.00  0.00    +0.000 A 
ATOM     19  C   UNL     1      46.997   3.170   6.855  0.00  0.00    +0.000 A 
ATOM     20  C   UNL     1      47.011   1.789   7.038  0.00  0.00    +0.000 A 
ATOM     21  C   UNL     1      46.242   1.212   8.047  0.00  0.00    +0.000 A 
ATOM     22  C   UNL     1      45.440   2.014   8.861  0.00  0.00    +0.000 A 
ENDBRANCH  16  17
ENDBRANCH   8  16
ENDBRANCH   7   8
ENDBRANCH   1   7
BRANCH   4  23
ATOM     23  C   UNL     1      48.817   9.864  12.573  0.00  0.00    +0.000 C 
BRANCH  23  24
ATOM     24  N   UNL     1      49.711  10.077  11.461  0.00  0.00    +0.000 N 
ATOM     25  C   UNL     1      51.024   9.694  11.523  0.00  0.00    +0.000 C 
ATOM     26  O   UNL     1      51.488   9.119  12.506  0.00  0.00    +0.000 OA
ATOM     27  H   UNL     1      49.412  10.734  10.747  0.00  0.00    +0.000 HD
BRANCH  25  28
ATOM     28  C   UNL     1      51.841   9.949  10.330  0.00  0.00    +0.000 A 
ATOM     29  C   UNL     1      52.045  11.253   9.905  0.00  0.00    +0.000 A 
ATOM     30  S   UNL     1      53.053  11.376   8.534  0.00  0.00    +0.000 S 
ATOM     31  C   UNL     1      53.208   9.685   8.432  0.00  0.00    +0.000 A 
ATOM     32  N   UNL     1      53.942   9.110   7.440  0.00  0.00    +0.000 NA
ATOM     33  C   UNL     1      53.949   7.819   7.466  0.00  0.00    +0.000 A 
ATOM     34  N   UNL     1      53.302   7.050   8.393  0.00  0.00    +0.000 N 
ATOM     35  C   UNL     1      52.571   7.588   9.430  0.00  0.00    +0.000 A 
ATOM     36  O   UNL     1      52.036   6.871  10.270  0.00  0.00    +0.000 OA
ATOM     37  C   UNL     1      52.519   9.036   9.441  0.00  0.00    +0.000 A 
ATOM     38  H   UNL     1      53.356   6.045   8.365  0.00  0.00    +0.000 HD
ENDBRANCH  25  28
ENDBRANCH  23  24
ENDBRANCH   4  23
TORSDOF 10
ENDMDL
