MODEL 1
REMARK VINA RESULT:    -9.400      0.000      0.000
REMARK INTER + INTRA:         -13.387
REMARK INTER:                 -12.422
REMARK INTRA:                  -0.965
REMARK UNBOUND:                -0.965
REMARK  Name = 
REMARK  6 active torsions:
REMARK  status: ('A' for Active; 'I' for Inactive)
REMARK    1  A    between atoms: C_2  and  C_4
REMARK    2  A    between atoms: N_8  and  C_9
REMARK    3  A    between atoms: C_9  and  C_10
REMARK    4  A    between atoms: C_10  and  O_11
REMARK    5  A    between atoms: C_10  and  C_12
REMARK    6  A    between atoms: C_16  and  C_17
REMARK                            x       y       z     vdW  Elec       q    Type
REMARK                         _______ _______ _______ _____ _____    ______ ____
ROOT
ATOM      1  C   UNL     1      43.413   5.655  12.194  0.00  0.00    +0.000 C 
ENDROOT
BRANCH   1   2
ATOM      2  C   UNL     1      44.855   5.737  12.665  0.00  0.00    +0.000 A 
ATOM      3  C   UNL     1      45.393   4.696  13.429  0.00  0.00    +0.000 A 
ATOM      4  C   UNL     1      46.720   4.745  13.855  0.00  0.00    +0.000 A 
ATOM      5  C   UNL     1      47.535   5.823  13.500  0.00  0.00    +0.000 A 
ATOM      6  C   UNL     1      47.056   6.863  12.688  0.00  0.00    +0.000 A 
ATOM      7  C   UNL     1      45.704   6.801  12.300  0.00  0.00    +0.000 A 
BRANCH   6   8
ATOM      8  C   UNL     1      47.942   7.931  12.169  0.00  0.00    +0.000 A 
ATOM      9  C   UNL     1      47.506   9.269  12.132  0.00  0.00    +0.000 A 
ATOM     10  C   UNL     1      48.359  10.308  11.752  0.00  0.00    +0.000 A 
ATOM     11  C   UNL     1      49.679  10.037  11.405  0.00  0.00    +0.000 A 
ATOM     12  C   UNL     1      50.134   8.721  11.411  0.00  0.00    +0.000 A 
ATOM     13  C   UNL     1      49.272   7.680  11.778  0.00  0.00    +0.000 A 
ENDBRANCH   6   8
ENDBRANCH   1   2
BRANCH   1  14
ATOM     14  O   UNL     1      42.604   5.201  13.283  0.00  0.00    +0.000 OA
ATOM     15  H   UNL     1      41.693   5.112  12.952  0.00  0.00    +0.000 HD
ENDBRANCH   1  14
BRANCH   1  16
ATOM     16  C   UNL     1      43.222   4.721  10.976  0.00  0.00    +0.000 C 
BRANCH  16  21
ATOM     17  C   UNL     1      46.407   2.367   7.746  0.00  0.00    +0.000 A 
ATOM     18  C   UNL     1      45.676   1.895   8.828  0.00  0.00    +0.000 A 
ATOM     19  C   UNL     1      44.882   2.786   9.546  0.00  0.00    +0.000 A 
ATOM     20  C   UNL     1      44.809   4.128   9.165  0.00  0.00    +0.000 A 
ATOM     21  N   UNL     1      44.090   5.064   9.867  0.00  0.00    +0.000 N 
ATOM     22  N   UNL     1      45.501   4.588   8.107  0.00  0.00    +0.000 NA
ATOM     23  C   UNL     1      46.296   3.714   7.434  0.00  0.00    +0.000 A 
ATOM     24  H   UNL     1      43.983   5.955   9.394  0.00  0.00    +0.000 HD
BRANCH  17  26
ATOM     25  N   UNL     1      48.493   2.054   6.536  0.00  0.00    +0.000 N 
ATOM     26  C   UNL     1      47.314   1.504   6.958  0.00  0.00    +0.000 C 
ATOM     27  O   UNL     1      47.033   0.339   6.718  0.00  0.00    +0.000 OA
ATOM     28  H   UNL     1      49.136   1.427   6.073  0.00  0.00    +0.000 HD
ATOM     29  H   UNL     1      48.859   2.916   6.907  0.00  0.00    +0.000 HD
ENDBRANCH  17  26
ENDBRANCH  16  21
ENDBRANCH   1  16
TORSDOF 6
ENDMDL
MODEL 2
REMARK VINA RESULT:    -8.849      1.260      1.928
REMARK INTER + INTRA:         -12.659
REMARK INTER:                 -11.888
REMARK INTRA:                  -0.771
REMARK UNBOUND:                -0.965
REMARK  Name = 
REMARK  6 active torsions:
REMARK  status: ('A' for Active; 'I' for Inactive)
REMARK    1  A    between atoms: C_2  and  C_4
REMARK    2  A    between atoms: N_8  and  C_9
REMARK    3  A    between atoms: C_9  and  C_10
REMARK    4  A    between atoms: C_10  and  O_11
REMARK    5  A    between atoms: C_10  and  C_12
REMARK    6  A    between atoms: C_16  and  C_17
REMARK                            x       y       z     vdW  Elec       q    Type
REMARK                         _______ _______ _______ _____ _____    ______ ____
ROOT
ATOM      1  C   UNL     1      43.629   4.560  12.478  0.00  0.00    +0.000 C 
ENDROOT
BRANCH   1   2
ATOM      2  C   UNL     1      44.883   5.390  12.698  0.00  0.00    +0.000 A 
ATOM      3  C   UNL     1      46.088   4.752  13.010  0.00  0.00    +0.000 A 
ATOM      4  C   UNL     1      47.253   5.496  13.197  0.00  0.00    +0.000 A 
ATOM      5  C   UNL     1      47.234   6.885  13.048  0.00  0.00    +0.000 A 
ATOM      6  C   UNL     1      46.061   7.562  12.680  0.00  0.00    +0.000 A 
ATOM      7  C   UNL     1      44.895   6.788  12.529  0.00  0.00    +0.000 A 
BRANCH   6   8
ATOM      8  C   UNL     1      46.053   9.010  12.362  0.00  0.00    +0.000 A 
ATOM      9  C   UNL     1      47.260   9.724  12.241  0.00  0.00    +0.000 A 
ATOM     10  C   UNL     1      47.284  11.060  11.834  0.00  0.00    +0.000 A 
ATOM     11  C   UNL     1      46.096  11.719  11.530  0.00  0.00    +0.000 A 
ATOM     12  C   UNL     1      44.885  11.047  11.662  0.00  0.00    +0.000 A 
ATOM     13  C   UNL     1      44.863   9.712  12.083  0.00  0.00    +0.000 A 
ENDBRANCH   6   8
ENDBRANCH   1   2
BRANCH   1  14
ATOM     14  O   UNL     1      43.892   3.218  12.900  0.00  0.00    +0.000 OA
ATOM     15  H   UNL     1      43.973   2.672  12.098  0.00  0.00    +0.000 HD
ENDBRANCH   1  14
BRANCH   1  16
ATOM     16  C   UNL     1      43.148   4.560  11.008  0.00  0.00    +0.000 C 
BRANCH  16  21
ATOM     17  C   UNL     1      46.480   2.551   7.694  0.00  0.00    +0.000 A 
ATOM     18  C   UNL     1      45.587   1.960   8.576  0.00  0.00    +0.000 A 
ATOM     19  C   UNL     1      44.794   2.774   9.381  0.00  0.00    +0.000 A 
ATOM     20  C   UNL     1      44.883   4.164   9.281  0.00  0.00    +0.000 A 
ATOM     21  N   UNL     1      44.169   5.017  10.086  0.00  0.00    +0.000 N 
ATOM     22  N   UNL     1      45.734   4.744   8.415  0.00  0.00    +0.000 NA
ATOM     23  C   UNL     1      46.525   3.938   7.658  0.00  0.00    +0.000 A 
ATOM     24  H   UNL     1      44.197   5.990   9.799  0.00  0.00    +0.000 HD
BRANCH  17  26
ATOM     25  N   UNL     1      48.427   2.439   6.241  0.00  0.00    +0.000 N 
ATOM     26  C   UNL     1      47.397   1.766   6.839  0.00  0.00    +0.000 C 
ATOM     27  O   UNL     1      47.256   0.560   6.696  0.00  0.00    +0.000 OA
ATOM     28  H   UNL     1      49.091   1.873   5.730  0.00  0.00    +0.000 HD
ATOM     29  H   UNL     1      48.711   3.364   6.518  0.00  0.00    +0.000 HD
ENDBRANCH  17  26
ENDBRANCH  16  21
ENDBRANCH   1  16
TORSDOF 6
ENDMDL
MODEL 3
REMARK VINA RESULT:    -8.755      1.805      3.688
REMARK INTER + INTRA:         -12.535
REMARK INTER:                 -11.432
REMARK INTRA:                  -1.103
REMARK UNBOUND:                -0.965
REMARK  Name = 
REMARK  6 active torsions:
REMARK  status: ('A' for Active; 'I' for Inactive)
REMARK    1  A    between atoms: C_2  and  C_4
REMARK    2  A    between atoms: N_8  and  C_9
REMARK    3  A    between atoms: C_9  and  C_10
REMARK    4  A    between atoms: C_10  and  O_11
REMARK    5  A    between atoms: C_10  and  C_12
REMARK    6  A    between atoms: C_16  and  C_17
REMARK                            x       y       z     vdW  Elec       q    Type
REMARK                         _______ _______ _______ _____ _____    ______ ____
ROOT
ATOM      1  C   UNL     1      43.566   5.429  12.230  0.00  0.00    +0.000 C 
ENDROOT
BRANCH   1   2
ATOM      2  C   UNL     1      45.039   5.657  12.525  0.00  0.00    +0.000 A 
ATOM      3  C   UNL     1      45.795   6.477  11.680  0.00  0.00    +0.000 A 
ATOM      4  C   UNL     1      47.143   6.713  11.946  0.00  0.00    +0.000 A 
ATOM      5  C   UNL     1      47.748   6.153  13.075  0.00  0.00    +0.000 A 
ATOM      6  C   UNL     1      47.015   5.371  13.981  0.00  0.00    +0.000 A 
ATOM      7  C   UNL     1      45.665   5.125  13.670  0.00  0.00    +0.000 A 
BRANCH   6   8
ATOM      8  C   UNL     1      47.593   4.901  15.263  0.00  0.00    +0.000 A 
ATOM      9  C   UNL     1      47.337   3.598  15.728  0.00  0.00    +0.000 A 
ATOM     10  C   UNL     1      47.957   3.094  16.875  0.00  0.00    +0.000 A 
ATOM     11  C   UNL     1      48.858   3.882  17.585  0.00  0.00    +0.000 A 
ATOM     12  C   UNL     1      49.115   5.182  17.162  0.00  0.00    +0.000 A 
ATOM     13  C   UNL     1      48.481   5.689  16.021  0.00  0.00    +0.000 A 
ENDBRANCH   6   8
ENDBRANCH   1   2
BRANCH   1  14
ATOM     14  O   UNL     1      43.085   4.391  13.090  0.00  0.00    +0.000 OA
ATOM     15  H   UNL     1      43.847   3.835  13.328  0.00  0.00    +0.000 HD
ENDBRANCH   1  14
BRANCH   1  16
ATOM     16  C   UNL     1      43.291   5.054  10.755  0.00  0.00    +0.000 C 
BRANCH  16  21
ATOM     17  C   UNL     1      46.499   2.515   7.692  0.00  0.00    +0.000 A 
ATOM     18  C   UNL     1      46.228   3.870   7.823  0.00  0.00    +0.000 A 
ATOM     19  C   UNL     1      45.278   4.282   8.755  0.00  0.00    +0.000 A 
ATOM     20  C   UNL     1      44.627   3.342   9.558  0.00  0.00    +0.000 A 
ATOM     21  N   UNL     1      43.642   3.681  10.453  0.00  0.00    +0.000 N 
ATOM     22  N   UNL     1      44.899   2.029   9.448  0.00  0.00    +0.000 NA
ATOM     23  C   UNL     1      45.806   1.639   8.514  0.00  0.00    +0.000 A 
ATOM     24  H   UNL     1      43.375   2.936  11.087  0.00  0.00    +0.000 HD
BRANCH  17  26
ATOM     25  N   UNL     1      48.525   2.774   6.372  0.00  0.00    +0.000 N 
ATOM     26  C   UNL     1      47.455   1.985   6.695  0.00  0.00    +0.000 C 
ATOM     27  O   UNL     1      47.310   0.876   6.203  0.00  0.00    +0.000 OA
ATOM     28  H   UNL     1      49.211   2.362   5.755  0.00  0.00    +0.000 HD
ATOM     29  H   UNL     1      48.803   3.573   6.920  0.00  0.00    +0.000 HD
ENDBRANCH  17  26
ENDBRANCH  16  21
ENDBRANCH   1  16
TORSDOF 6
ENDMDL
MODEL 4
REMARK VINA RESULT:    -8.054      3.455      7.045
REMARK INTER + INTRA:         -11.608
REMARK INTER:                 -10.864
REMARK INTRA:                  -0.744
REMARK UNBOUND:                -0.965
REMARK  Name = 
REMARK  6 active torsions:
REMARK  status: ('A' for Active; 'I' for Inactive)
REMARK    1  A    between atoms: C_2  and  C_4
REMARK    2  A    between atoms: N_8  and  C_9
REMARK    3  A    between atoms: C_9  and  C_10
REMARK    4  A    between atoms: C_10  and  O_11
REMARK    5  A    between atoms: C_10  and  C_12
REMARK    6  A    between atoms: C_16  and  C_17
REMARK                            x       y       z     vdW  Elec       q    Type
REMARK                         _______ _______ _______ _____ _____    ______ ____
ROOT
ATOM      1  C   UNL     1      45.124   6.606  11.797  0.00  0.00    +0.000 C 
ENDROOT
BRANCH   1   2
ATOM      2  C   UNL     1      44.743   5.230  11.279  0.00  0.00    +0.000 A 
ATOM      3  C   UNL     1      43.637   4.567  11.824  0.00  0.00    +0.000 A 
ATOM      4  C   UNL     1      43.261   3.312  11.348  0.00  0.00    +0.000 A 
ATOM      5  C   UNL     1      43.969   2.713  10.302  0.00  0.00    +0.000 A 
ATOM      6  C   UNL     1      45.049   3.364   9.687  0.00  0.00    +0.000 A 
ATOM      7  C   UNL     1      45.425   4.616  10.209  0.00  0.00    +0.000 A 
BRANCH   6   8
ATOM      8  C   UNL     1      45.712   2.821   8.477  0.00  0.00    +0.000 A 
ATOM      9  C   UNL     1      45.989   3.654   7.378  0.00  0.00    +0.000 A 
ATOM     10  C   UNL     1      46.711   3.194   6.273  0.00  0.00    +0.000 A 
ATOM     11  C   UNL     1      47.182   1.885   6.242  0.00  0.00    +0.000 A 
ATOM     12  C   UNL     1      46.905   1.030   7.306  0.00  0.00    +0.000 A 
ATOM     13  C   UNL     1      46.169   1.490   8.405  0.00  0.00    +0.000 A 
ENDBRANCH   6   8
ENDBRANCH   1   2
BRANCH   1  14
ATOM     14  O   UNL     1      44.442   7.592  11.015  0.00  0.00    +0.000 OA
ATOM     15  H   UNL     1      44.223   7.183  10.159  0.00  0.00    +0.000 HD
ENDBRANCH   1  14
BRANCH   1  16
ATOM     16  C   UNL     1      46.647   6.871  11.759  0.00  0.00    +0.000 C 
BRANCH  16  21
ATOM     17  C   UNL     1      47.772   4.046  15.866  0.00  0.00    +0.000 A 
ATOM     18  C   UNL     1      47.153   3.723  14.666  0.00  0.00    +0.000 A 
ATOM     19  C   UNL     1      46.968   4.721  13.713  0.00  0.00    +0.000 A 
ATOM     20  C   UNL     1      47.420   6.019  13.956  0.00  0.00    +0.000 A 
ATOM     21  N   UNL     1      47.216   7.056  13.079  0.00  0.00    +0.000 N 
ATOM     22  N   UNL     1      48.037   6.335  15.110  0.00  0.00    +0.000 NA
ATOM     23  C   UNL     1      48.184   5.358  16.044  0.00  0.00    +0.000 A 
ATOM     24  H   UNL     1      47.737   7.900  13.295  0.00  0.00    +0.000 HD
BRANCH  17  26
ATOM     25  N   UNL     1      46.872   2.744  17.713  0.00  0.00    +0.000 N 
ATOM     26  C   UNL     1      47.966   3.062  16.955  0.00  0.00    +0.000 C 
ATOM     27  O   UNL     1      49.051   2.536  17.150  0.00  0.00    +0.000 OA
ATOM     28  H   UNL     1      47.003   2.010  18.395  0.00  0.00    +0.000 HD
ATOM     29  H   UNL     1      45.930   2.970  17.438  0.00  0.00    +0.000 HD
ENDBRANCH  17  26
ENDBRANCH  16  21
ENDBRANCH   1  16
TORSDOF 6
ENDMDL
MODEL 5
REMARK VINA RESULT:    -7.804      1.366      2.173
REMARK INTER + INTRA:         -11.279
REMARK INTER:                 -10.623
REMARK INTRA:                  -0.657
REMARK UNBOUND:                -0.965
REMARK  Name = 
REMARK  6 active torsions:
REMARK  status: ('A' for Active; 'I' for Inactive)
REMARK    1  A    between atoms: C_2  and  C_4
REMARK    2  A    between atoms: N_8  and  C_9
REMARK    3  A    between atoms: C_9  and  C_10
REMARK    4  A    between atoms: C_10  and  O_11
REMARK    5  A    between atoms: C_10  and  C_12
REMARK    6  A    between atoms: C_16  and  C_17
REMARK                            x       y       z     vdW  Elec       q    Type
REMARK                         _______ _______ _______ _____ _____    ______ ____
ROOT
ATOM      1  C   UNL     1      43.773   5.305  12.408  0.00  0.00    +0.000 C 
ENDROOT
BRANCH   1   2
ATOM      2  C   UNL     1      44.696   6.505  12.284  0.00  0.00    +0.000 A 
ATOM      3  C   UNL     1      44.212   7.697  11.732  0.00  0.00    +0.000 A 
ATOM      4  C   UNL     1      45.039   8.814  11.626  0.00  0.00    +0.000 A 
ATOM      5  C   UNL     1      46.354   8.764  12.095  0.00  0.00    +0.000 A 
ATOM      6  C   UNL     1      46.866   7.610  12.708  0.00  0.00    +0.000 A 
ATOM      7  C   UNL     1      46.018   6.488  12.772  0.00  0.00    +0.000 A 
BRANCH   6   8
ATOM      8  C   UNL     1      48.201   7.585  13.353  0.00  0.00    +0.000 A 
ATOM      9  C   UNL     1      49.315   8.160  12.716  0.00  0.00    +0.000 A 
ATOM     10  C   UNL     1      50.558   8.248  13.349  0.00  0.00    +0.000 A 
ATOM     11  C   UNL     1      50.717   7.767  14.646  0.00  0.00    +0.000 A 
ATOM     12  C   UNL     1      49.638   7.173  15.294  0.00  0.00    +0.000 A 
ATOM     13  C   UNL     1      48.398   7.073  14.651  0.00  0.00    +0.000 A 
ENDBRANCH   6   8
ENDBRANCH   1   2
BRANCH   1  14
ATOM     14  O   UNL     1      44.429   4.307  13.196  0.00  0.00    +0.000 OA
ATOM     15  H   UNL     1      44.427   3.482  12.680  0.00  0.00    +0.000 HD
ENDBRANCH   1  14
BRANCH   1  16
ATOM     16  C   UNL     1      43.363   4.707  11.043  0.00  0.00    +0.000 C 
BRANCH  16  21
ATOM     17  C   UNL     1      46.413   2.405   7.650  0.00  0.00    +0.000 A 
ATOM     18  C   UNL     1      45.632   1.899   8.680  0.00  0.00    +0.000 A 
ATOM     19  C   UNL     1      44.896   2.782   9.465  0.00  0.00    +0.000 A 
ATOM     20  C   UNL     1      44.929   4.153   9.202  0.00  0.00    +0.000 A 
ATOM     21  N   UNL     1      44.271   5.077   9.975  0.00  0.00    +0.000 N 
ATOM     22  N   UNL     1      45.670   4.648   8.193  0.00  0.00    +0.000 NA
ATOM     23  C   UNL     1      46.408   3.778   7.454  0.00  0.00    +0.000 A 
ATOM     24  H   UNL     1      44.238   6.011   9.580  0.00  0.00    +0.000 HD
BRANCH  17  26
ATOM     25  N   UNL     1      48.431   2.089   6.329  0.00  0.00    +0.000 N 
ATOM     26  C   UNL     1      47.266   1.546   6.798  0.00  0.00    +0.000 C 
ATOM     27  O   UNL     1      46.955   0.391   6.547  0.00  0.00    +0.000 OA
ATOM     28  H   UNL     1      49.040   1.463   5.820  0.00  0.00    +0.000 HD
ATOM     29  H   UNL     1      48.829   2.936   6.700  0.00  0.00    +0.000 HD
ENDBRANCH  17  26
ENDBRANCH  16  21
ENDBRANCH   1  16
TORSDOF 6
ENDMDL
MODEL 6
REMARK VINA RESULT:    -7.793      3.416      6.943
REMARK INTER + INTRA:         -11.264
REMARK INTER:                 -10.319
REMARK INTRA:                  -0.945
REMARK UNBOUND:                -0.965
REMARK  Name = 
REMARK  6 active torsions:
REMARK  status: ('A' for Active; 'I' for Inactive)
REMARK    1  A    between atoms: C_2  and  C_4
REMARK    2  A    between atoms: N_8  and  C_9
REMARK    3  A    between atoms: C_9  and  C_10
REMARK    4  A    between atoms: C_10  and  O_11
REMARK    5  A    between atoms: C_10  and  C_12
REMARK    6  A    between atoms: C_16  and  C_17
REMARK                            x       y       z     vdW  Elec       q    Type
REMARK                         _______ _______ _______ _____ _____    ______ ____
ROOT
ATOM      1  C   UNL     1      43.727   6.470  11.661  0.00  0.00    +0.000 C 
ENDROOT
BRANCH   1   2
ATOM      2  C   UNL     1      43.889   5.011  11.271  0.00  0.00    +0.000 A 
ATOM      3  C   UNL     1      43.146   4.030  11.937  0.00  0.00    +0.000 A 
ATOM      4  C   UNL     1      43.267   2.688  11.580  0.00  0.00    +0.000 A 
ATOM      5  C   UNL     1      44.114   2.310  10.534  0.00  0.00    +0.000 A 
ATOM      6  C   UNL     1      44.835   3.264   9.800  0.00  0.00    +0.000 A 
ATOM      7  C   UNL     1      44.716   4.608  10.204  0.00  0.00    +0.000 A 
BRANCH   6   8
ATOM      8  C   UNL     1      45.613   2.906   8.590  0.00  0.00    +0.000 A 
ATOM      9  C   UNL     1      45.974   3.891   7.653  0.00  0.00    +0.000 A 
ATOM     10  C   UNL     1      46.799   3.600   6.563  0.00  0.00    +0.000 A 
ATOM     11  C   UNL     1      47.292   2.310   6.386  0.00  0.00    +0.000 A 
ATOM     12  C   UNL     1      46.935   1.309   7.285  0.00  0.00    +0.000 A 
ATOM     13  C   UNL     1      46.097   1.601   8.367  0.00  0.00    +0.000 A 
ENDBRANCH   6   8
ENDBRANCH   1   2
BRANCH   1  14
ATOM     14  O   UNL     1      42.486   6.947  11.131  0.00  0.00    +0.000 OA
ATOM     15  H   UNL     1      41.792   6.735  11.780  0.00  0.00    +0.000 HD
ENDBRANCH   1  14
BRANCH   1  16
ATOM     16  C   UNL     1      44.886   7.366  11.166  0.00  0.00    +0.000 C 
BRANCH  16  21
ATOM     17  C   UNL     1      48.785   7.234  14.467  0.00  0.00    +0.000 A 
ATOM     18  C   UNL     1      48.333   6.308  13.537  0.00  0.00    +0.000 A 
ATOM     19  C   UNL     1      47.216   6.618  12.764  0.00  0.00    +0.000 A 
ATOM     20  C   UNL     1      46.580   7.852  12.910  0.00  0.00    +0.000 A 
ATOM     21  N   UNL     1      45.444   8.192  12.218  0.00  0.00    +0.000 N 
ATOM     22  N   UNL     1      47.025   8.761  13.797  0.00  0.00    +0.000 NA
ATOM     23  C   UNL     1      48.096   8.434  14.567  0.00  0.00    +0.000 A 
ATOM     24  H   UNL     1      45.184   9.170  12.289  0.00  0.00    +0.000 HD
BRANCH  17  26
ATOM     25  N   UNL     1      50.961   7.869  15.347  0.00  0.00    +0.000 N 
ATOM     26  C   UNL     1      49.931   6.969  15.365  0.00  0.00    +0.000 C 
ATOM     27  O   UNL     1      49.943   6.002  16.112  0.00  0.00    +0.000 OA
ATOM     28  H   UNL     1      51.695   7.719  16.025  0.00  0.00    +0.000 HD
ATOM     29  H   UNL     1      50.884   8.783  14.931  0.00  0.00    +0.000 HD
ENDBRANCH  17  26
ENDBRANCH  16  21
ENDBRANCH   1  16
TORSDOF 6
ENDMDL
MODEL 7
REMARK VINA RESULT:    -7.587      3.942      7.718
REMARK INTER + INTRA:         -10.992
REMARK INTER:                 -10.278
REMARK INTRA:                  -0.713
REMARK UNBOUND:                -0.965
REMARK  Name = 
REMARK  6 active torsions:
REMARK  status: ('A' for Active; 'I' for Inactive)
REMARK    1  A    between atoms: C_2  and  C_4
REMARK    2  A    between atoms: N_8  and  C_9
REMARK    3  A    between atoms: C_9  and  C_10
REMARK    4  A    between atoms: C_10  and  O_11
REMARK    5  A    between atoms: C_10  and  C_12
REMARK    6  A    between atoms: C_16  and  C_17
REMARK                            x       y       z     vdW  Elec       q    Type
REMARK                         _______ _______ _______ _____ _____    ______ ____
ROOT
ATOM      1  C   UNL     1      44.860   6.064  12.504  0.00  0.00    +0.000 C 
ENDROOT
BRANCH   1   2
ATOM      2  C   UNL     1      44.583   4.768  11.761  0.00  0.00    +0.000 A 
ATOM      3  C   UNL     1      43.511   3.960  12.156  0.00  0.00    +0.000 A 
ATOM      4  C   UNL     1      43.230   2.777  11.474  0.00  0.00    +0.000 A 
ATOM      5  C   UNL     1      44.000   2.397  10.372  0.00  0.00    +0.000 A 
ATOM      6  C   UNL     1      45.049   3.204   9.904  0.00  0.00    +0.000 A 
ATOM      7  C   UNL     1      45.329   4.377  10.631  0.00  0.00    +0.000 A 
BRANCH   6   8
ATOM      8  C   UNL     1      45.775   2.904   8.647  0.00  0.00    +0.000 A 
ATOM      9  C   UNL     1      46.185   1.590   8.353  0.00  0.00    +0.000 A 
ATOM     10  C   UNL     1      46.771   1.262   7.128  0.00  0.00    +0.000 A 
ATOM     11  C   UNL     1      46.957   2.242   6.157  0.00  0.00    +0.000 A 
ATOM     12  C   UNL     1      46.582   3.555   6.428  0.00  0.00    +0.000 A 
ATOM     13  C   UNL     1      46.008   3.884   7.662  0.00  0.00    +0.000 A 
ENDBRANCH   6   8
ENDBRANCH   1   2
BRANCH   1  14
ATOM     14  O   UNL     1      44.915   7.131  11.551  0.00  0.00    +0.000 OA
ATOM     15  H   UNL     1      44.101   7.088  11.020  0.00  0.00    +0.000 HD
ENDBRANCH   1  14
BRANCH   1  16
ATOM     16  C   UNL     1      46.171   6.028  13.323  0.00  0.00    +0.000 C 
BRANCH  16  21
ATOM     17  C   UNL     1      48.923   4.349  17.289  0.00  0.00    +0.000 A 
ATOM     18  C   UNL     1      48.967   5.538  16.574  0.00  0.00    +0.000 A 
ATOM     19  C   UNL     1      48.083   5.720  15.513  0.00  0.00    +0.000 A 
ATOM     20  C   UNL     1      47.153   4.729  15.193  0.00  0.00    +0.000 A 
ATOM     21  N   UNL     1      46.296   4.827  14.125  0.00  0.00    +0.000 N 
ATOM     22  N   UNL     1      47.094   3.581  15.894  0.00  0.00    +0.000 NA
ATOM     23  C   UNL     1      47.982   3.403  16.907  0.00  0.00    +0.000 A 
ATOM     24  H   UNL     1      45.564   4.123  14.106  0.00  0.00    +0.000 HD
BRANCH  17  26
ATOM     25  N   UNL     1      50.769   3.050  18.195  0.00  0.00    +0.000 N 
ATOM     26  C   UNL     1      49.856   4.049  18.398  0.00  0.00    +0.000 C 
ATOM     27  O   UNL     1      49.831   4.686  19.440  0.00  0.00    +0.000 OA
ATOM     28  H   UNL     1      51.451   2.916  18.928  0.00  0.00    +0.000 HD
ATOM     29  H   UNL     1      50.974   2.671  17.284  0.00  0.00    +0.000 HD
ENDBRANCH  17  26
ENDBRANCH  16  21
ENDBRANCH   1  16
TORSDOF 6
ENDMDL
MODEL 8
REMARK VINA RESULT:    -7.313      3.490      6.897
REMARK INTER + INTRA:         -10.630
REMARK INTER:                  -9.809
REMARK INTRA:                  -0.822
REMARK UNBOUND:                -0.965
REMARK  Name = 
REMARK  6 active torsions:
REMARK  status: ('A' for Active; 'I' for Inactive)
REMARK    1  A    between atoms: C_2  and  C_4
REMARK    2  A    between atoms: N_8  and  C_9
REMARK    3  A    between atoms: C_9  and  C_10
REMARK    4  A    between atoms: C_10  and  O_11
REMARK    5  A    between atoms: C_10  and  C_12
REMARK    6  A    between atoms: C_16  and  C_17
REMARK                            x       y       z     vdW  Elec       q    Type
REMARK                         _______ _______ _______ _____ _____    ______ ____
ROOT
ATOM      1  C   UNL     1      44.530   6.765  11.935  0.00  0.00    +0.000 C 
ENDROOT
BRANCH   1   2
ATOM      2  C   UNL     1      44.366   5.326  11.475  0.00  0.00    +0.000 A 
ATOM      3  C   UNL     1      43.412   4.508  12.091  0.00  0.00    +0.000 A 
ATOM      4  C   UNL     1      43.234   3.191  11.670  0.00  0.00    +0.000 A 
ATOM      5  C   UNL     1      43.989   2.681  10.610  0.00  0.00    +0.000 A 
ATOM      6  C   UNL     1      44.916   3.482   9.925  0.00  0.00    +0.000 A 
ATOM      7  C   UNL     1      45.096   4.797  10.393  0.00  0.00    +0.000 A 
BRANCH   6   8
ATOM      8  C   UNL     1      45.610   3.014   8.701  0.00  0.00    +0.000 A 
ATOM      9  C   UNL     1      46.005   3.928   7.708  0.00  0.00    +0.000 A 
ATOM     10  C   UNL     1      46.757   3.529   6.600  0.00  0.00    +0.000 A 
ATOM     11  C   UNL     1      47.141   2.198   6.460  0.00  0.00    +0.000 A 
ATOM     12  C   UNL     1      46.747   1.266   7.415  0.00  0.00    +0.000 A 
ATOM     13  C   UNL     1      45.982   1.667   8.517  0.00  0.00    +0.000 A 
ENDBRANCH   6   8
ENDBRANCH   1   2
BRANCH   1  14
ATOM     14  O   UNL     1      44.525   7.614  10.783  0.00  0.00    +0.000 OA
ATOM     15  H   UNL     1      45.040   7.165  10.089  0.00  0.00    +0.000 HD
ENDBRANCH   1  14
BRANCH   1  16
ATOM     16  C   UNL     1      45.823   7.000  12.751  0.00  0.00    +0.000 C 
BRANCH  16  21
ATOM     17  C   UNL     1      50.294   9.044  11.355  0.00  0.00    +0.000 A 
ATOM     18  C   UNL     1      49.915   7.730  11.590  0.00  0.00    +0.000 A 
ATOM     19  C   UNL     1      48.603   7.465  11.975  0.00  0.00    +0.000 A 
ATOM     20  C   UNL     1      47.682   8.507  12.100  0.00  0.00    +0.000 A 
ATOM     21  N   UNL     1      46.392   8.315  12.531  0.00  0.00    +0.000 N 
ATOM     22  N   UNL     1      48.039   9.781  11.857  0.00  0.00    +0.000 NA
ATOM     23  C   UNL     1      49.330  10.029  11.511  0.00  0.00    +0.000 A 
ATOM     24  H   UNL     1      45.784   9.119  12.415  0.00  0.00    +0.000 HD
BRANCH  17  26
ATOM     25  N   UNL     1      52.173  10.579  11.531  0.00  0.00    +0.000 N 
ATOM     26  C   UNL     1      51.677   9.423  10.991  0.00  0.00    +0.000 C 
ATOM     27  O   UNL     1      52.358   8.718  10.262  0.00  0.00    +0.000 OA
ATOM     28  H   UNL     1      53.145  10.778  11.340  0.00  0.00    +0.000 HD
ATOM     29  H   UNL     1      51.738  11.052  12.307  0.00  0.00    +0.000 HD
ENDBRANCH  17  26
ENDBRANCH  16  21
ENDBRANCH   1  16
TORSDOF 6
ENDMDL
MODEL 9
REMARK VINA RESULT:    -6.755      4.899      7.083
REMARK INTER + INTRA:          -9.893
REMARK INTER:                  -9.209
REMARK INTRA:                  -0.684
REMARK UNBOUND:                -0.965
REMARK  Name = 
REMARK  6 active torsions:
REMARK  status: ('A' for Active; 'I' for Inactive)
REMARK    1  A    between atoms: C_2  and  C_4
REMARK    2  A    between atoms: N_8  and  C_9
REMARK    3  A    between atoms: C_9  and  C_10
REMARK    4  A    between atoms: C_10  and  O_11
REMARK    5  A    between atoms: C_10  and  C_12
REMARK    6  A    between atoms: C_16  and  C_17
REMARK                            x       y       z     vdW  Elec       q    Type
REMARK                         _______ _______ _______ _____ _____    ______ ____
ROOT
ATOM      1  C   UNL     1      48.942   7.472  15.954  0.00  0.00    +0.000 C 
ENDROOT
BRANCH   1   2
ATOM      2  C   UNL     1      49.064   6.415  17.040  0.00  0.00    +0.000 A 
ATOM      3  C   UNL     1      48.088   6.335  18.039  0.00  0.00    +0.000 A 
ATOM      4  C   UNL     1      48.174   5.360  19.033  0.00  0.00    +0.000 A 
ATOM      5  C   UNL     1      49.222   4.436  19.026  0.00  0.00    +0.000 A 
ATOM      6  C   UNL     1      50.192   4.442  18.012  0.00  0.00    +0.000 A 
ATOM      7  C   UNL     1      50.097   5.457  17.040  0.00  0.00    +0.000 A 
BRANCH   6   8
ATOM      8  C   UNL     1      51.218   3.379  17.895  0.00  0.00    +0.000 A 
ATOM      9  C   UNL     1      52.514   3.575  18.406  0.00  0.00    +0.000 A 
ATOM     10  C   UNL     1      53.465   2.550  18.408  0.00  0.00    +0.000 A 
ATOM     11  C   UNL     1      53.139   1.295  17.902  0.00  0.00    +0.000 A 
ATOM     12  C   UNL     1      51.872   1.077  17.369  0.00  0.00    +0.000 A 
ATOM     13  C   UNL     1      50.927   2.110  17.356  0.00  0.00    +0.000 A 
ENDBRANCH   6   8
ENDBRANCH   1   2
BRANCH   1  14
ATOM     14  O   UNL     1      47.940   8.414  16.348  0.00  0.00    +0.000 OA
ATOM     15  H   UNL     1      47.546   8.090  17.177  0.00  0.00    +0.000 HD
ENDBRANCH   1  14
BRANCH   1  16
ATOM     16  C   UNL     1      48.590   6.883  14.568  0.00  0.00    +0.000 C 
BRANCH  16  21
ATOM     17  C   UNL     1      44.968   4.816  11.614  0.00  0.00    +0.000 A 
ATOM     18  C   UNL     1      45.813   5.899  11.415  0.00  0.00    +0.000 A 
ATOM     19  C   UNL     1      46.714   6.246  12.419  0.00  0.00    +0.000 A 
ATOM     20  C   UNL     1      46.776   5.499  13.597  0.00  0.00    +0.000 A 
ATOM     21  N   UNL     1      47.602   5.825  14.645  0.00  0.00    +0.000 N 
ATOM     22  N   UNL     1      45.972   4.437  13.789  0.00  0.00    +0.000 NA
ATOM     23  C   UNL     1      45.077   4.128  12.814  0.00  0.00    +0.000 A 
ATOM     24  H   UNL     1      47.674   5.112  15.363  0.00  0.00    +0.000 HD
BRANCH  17  26
ATOM     25  N   UNL     1      44.196   4.700   9.311  0.00  0.00    +0.000 N 
ATOM     26  C   UNL     1      43.947   4.407  10.624  0.00  0.00    +0.000 C 
ATOM     27  O   UNL     1      42.938   3.807  10.963  0.00  0.00    +0.000 OA
ATOM     28  H   UNL     1      43.531   4.339   8.642  0.00  0.00    +0.000 HD
ATOM     29  H   UNL     1      45.104   4.973   8.973  0.00  0.00    +0.000 HD
ENDBRANCH  17  26
ENDBRANCH  16  21
ENDBRANCH   1  16
TORSDOF 6
ENDMDL
