MODEL 1
REMARK VINA RESULT:    -8.320      0.000      0.000
REMARK INTER + INTRA:         -12.116
REMARK INTER:                 -11.238
REMARK INTRA:                  -0.878
REMARK UNBOUND:                -0.878
REMARK  Name = 
REMARK  6 active torsions:
REMARK  status: ('A' for Active; 'I' for Inactive)
REMARK    1  A    between atoms: C_2  and  C_4
REMARK    2  A    between atoms: C_7  and  O_8
REMARK    3  A    between atoms: O_8  and  C_9
REMARK    4  A    between atoms: C_9  and  C_10
REMARK    5  A    between atoms: C_10  and  C_11
REMARK    6  A    between atoms: C_15  and  C_16
REMARK                            x       y       z     vdW  Elec       q    Type
REMARK                         _______ _______ _______ _____ _____    ______ ____
ROOT
ATOM      1  C   UNL     1      43.421   3.810  11.338  0.00  0.00    +0.000 C 
ENDROOT
BRANCH   1   2
ATOM      2  O   UNL     1      43.661   4.503  10.106  0.00  0.00    +0.000 OA
BRANCH   2   6
ATOM      3  C   UNL     1      46.370   2.469   7.754  0.00  0.00    +0.000 A 
ATOM      4  C   UNL     1      45.591   1.765   8.674  0.00  0.00    +0.000 A 
ATOM      5  C   UNL     1      44.679   2.465   9.471  0.00  0.00    +0.000 A 
ATOM      6  C   UNL     1      44.580   3.841   9.314  0.00  0.00    +0.000 A 
ATOM      7  N   UNL     1      45.332   4.545   8.440  0.00  0.00    +0.000 NA
ATOM      8  C   UNL     1      46.215   3.849   7.687  0.00  0.00    +0.000 A 
BRANCH   3  10
ATOM      9  N   UNL     1      48.434   2.588   6.477  0.00  0.00    +0.000 N 
ATOM     10  C   UNL     1      47.363   1.834   6.864  0.00  0.00    +0.000 C 
ATOM     11  O   UNL     1      47.257   0.664   6.522  0.00  0.00    +0.000 OA
ATOM     12  H   UNL     1      49.161   2.099   5.967  0.00  0.00    +0.000 HD
ATOM     13  H   UNL     1      48.691   3.448   6.939  0.00  0.00    +0.000 HD
ENDBRANCH   3  10
ENDBRANCH   2   6
ENDBRANCH   1   2
BRANCH   1  14
ATOM     14  C   UNL     1      43.545   4.790  12.505  0.00  0.00    +0.000 C 
BRANCH  14  15
ATOM     15  C   UNL     1      44.979   5.162  12.772  0.00  0.00    +0.000 A 
ATOM     16  C   UNL     1      45.855   4.260  13.362  0.00  0.00    +0.000 A 
ATOM     17  N   UNL     1      47.154   4.525  13.606  0.00  0.00    +0.000 NA
ATOM     18  C   UNL     1      47.607   5.748  13.236  0.00  0.00    +0.000 A 
ATOM     19  C   UNL     1      46.844   6.739  12.615  0.00  0.00    +0.000 A 
ATOM     20  C   UNL     1      45.496   6.408  12.390  0.00  0.00    +0.000 A 
BRANCH  19  21
ATOM     21  C   UNL     1      47.419   8.041  12.215  0.00  0.00    +0.000 A 
ATOM     22  C   UNL     1      48.750   8.176  11.786  0.00  0.00    +0.000 A 
ATOM     23  C   UNL     1      49.259   9.420  11.411  0.00  0.00    +0.000 A 
ATOM     24  C   UNL     1      48.420  10.517  11.466  0.00  0.00    +0.000 A 
ATOM     25  N   UNL     1      47.137  10.449  11.870  0.00  0.00    +0.000 NA
ATOM     26  C   UNL     1      46.677   9.226  12.235  0.00  0.00    +0.000 A 
ENDBRANCH  19  21
ENDBRANCH  14  15
ENDBRANCH   1  14
TORSDOF 6
ENDMDL
MODEL 2
REMARK VINA RESULT:    -8.010      2.099      3.820
REMARK INTER + INTRA:         -11.697
REMARK INTER:                 -10.837
REMARK INTRA:                  -0.860
REMARK UNBOUND:                -0.878
REMARK  Name = 
REMARK  6 active torsions:
REMARK  status: ('A' for Active; 'I' for Inactive)
REMARK    1  A    between atoms: C_2  and  C_4
REMARK    2  A    between atoms: C_7  and  O_8
REMARK    3  A    between atoms: O_8  and  C_9
REMARK    4  A    between atoms: C_9  and  C_10
REMARK    5  A    between atoms: C_10  and  C_11
REMARK    6  A    between atoms: C_15  and  C_16
REMARK                            x       y       z     vdW  Elec       q    Type
REMARK                         _______ _______ _______ _____ _____    ______ ____
ROOT
ATOM      1  C   UNL     1      43.428   4.914  10.646  0.00  0.00    +0.000 C 
ENDROOT
BRANCH   1   2
ATOM      2  O   UNL     1      43.611   3.501  10.485  0.00  0.00    +0.000 OA
BRANCH   2   6
ATOM      3  C   UNL     1      46.390   2.699   7.546  0.00  0.00    +0.000 A 
ATOM      4  C   UNL     1      45.995   4.017   7.779  0.00  0.00    +0.000 A 
ATOM      5  C   UNL     1      45.048   4.278   8.775  0.00  0.00    +0.000 A 
ATOM      6  C   UNL     1      44.535   3.210   9.499  0.00  0.00    +0.000 A 
ATOM      7  N   UNL     1      44.894   1.926   9.283  0.00  0.00    +0.000 NA
ATOM      8  C   UNL     1      45.803   1.696   8.309  0.00  0.00    +0.000 A 
BRANCH   3  10
ATOM      9  N   UNL     1      47.450   3.071   5.391  0.00  0.00    +0.000 N 
ATOM     10  C   UNL     1      47.381   2.308   6.522  0.00  0.00    +0.000 C 
ATOM     11  O   UNL     1      48.142   1.367   6.697  0.00  0.00    +0.000 OA
ATOM     12  H   UNL     1      48.213   2.860   4.759  0.00  0.00    +0.000 HD
ATOM     13  H   UNL     1      47.036   3.990   5.327  0.00  0.00    +0.000 HD
ENDBRANCH   3  10
ENDBRANCH   2   6
ENDBRANCH   1   2
BRANCH   1  14
ATOM     14  C   UNL     1      43.605   5.284  12.118  0.00  0.00    +0.000 C 
BRANCH  14  15
ATOM     15  C   UNL     1      45.046   5.555  12.458  0.00  0.00    +0.000 A 
ATOM     16  C   UNL     1      45.836   6.357  11.642  0.00  0.00    +0.000 A 
ATOM     17  N   UNL     1      47.124   6.654  11.904  0.00  0.00    +0.000 NA
ATOM     18  C   UNL     1      47.652   6.136  13.039  0.00  0.00    +0.000 A 
ATOM     19  C   UNL     1      46.969   5.336  13.957  0.00  0.00    +0.000 A 
ATOM     20  C   UNL     1      45.630   5.055  13.631  0.00  0.00    +0.000 A 
BRANCH  19  21
ATOM     21  C   UNL     1      47.608   4.830  15.191  0.00  0.00    +0.000 A 
ATOM     22  C   UNL     1      47.418   3.516  15.651  0.00  0.00    +0.000 A 
ATOM     23  C   UNL     1      48.041   3.070  16.817  0.00  0.00    +0.000 A 
ATOM     24  C   UNL     1      48.854   3.949  17.506  0.00  0.00    +0.000 A 
ATOM     25  N   UNL     1      49.072   5.219  17.114  0.00  0.00    +0.000 NA
ATOM     26  C   UNL     1      48.445   5.623  15.981  0.00  0.00    +0.000 A 
ENDBRANCH  19  21
ENDBRANCH  14  15
ENDBRANCH   1  14
TORSDOF 6
ENDMDL
MODEL 3
REMARK VINA RESULT:    -7.552      3.184      7.660
REMARK INTER + INTRA:         -11.078
REMARK INTER:                 -10.444
REMARK INTRA:                  -0.634
REMARK UNBOUND:                -0.878
REMARK  Name = 
REMARK  6 active torsions:
REMARK  status: ('A' for Active; 'I' for Inactive)
REMARK    1  A    between atoms: C_2  and  C_4
REMARK    2  A    between atoms: C_7  and  O_8
REMARK    3  A    between atoms: O_8  and  C_9
REMARK    4  A    between atoms: C_9  and  C_10
REMARK    5  A    between atoms: C_10  and  C_11
REMARK    6  A    between atoms: C_15  and  C_16
REMARK                            x       y       z     vdW  Elec       q    Type
REMARK                         _______ _______ _______ _____ _____    ______ ____
ROOT
ATOM      1  C   UNL     1      45.312   6.335  12.849  0.00  0.00    +0.000 C 
ENDROOT
BRANCH   1   2
ATOM      2  O   UNL     1      46.579   5.665  12.779  0.00  0.00    +0.000 OA
BRANCH   2   6
ATOM      3  C   UNL     1      48.059   4.813  16.532  0.00  0.00    +0.000 A 
ATOM      4  C   UNL     1      48.486   5.965  15.868  0.00  0.00    +0.000 A 
ATOM      5  C   UNL     1      47.981   6.242  14.594  0.00  0.00    +0.000 A 
ATOM      6  C   UNL     1      47.069   5.358  14.034  0.00  0.00    +0.000 A 
ATOM      7  N   UNL     1      46.652   4.232  14.652  0.00  0.00    +0.000 NA
ATOM      8  C   UNL     1      47.160   3.978  15.880  0.00  0.00    +0.000 A 
BRANCH   3  10
ATOM      9  N   UNL     1      47.762   4.808  18.944  0.00  0.00    +0.000 N 
ATOM     10  C   UNL     1      48.525   4.423  17.878  0.00  0.00    +0.000 C 
ATOM     11  O   UNL     1      49.531   3.743  18.034  0.00  0.00    +0.000 OA
ATOM     12  H   UNL     1      48.034   4.430  19.844  0.00  0.00    +0.000 HD
ATOM     13  H   UNL     1      46.811   5.132  18.845  0.00  0.00    +0.000 HD
ENDBRANCH   3  10
ENDBRANCH   2   6
ENDBRANCH   1   2
BRANCH   1  14
ATOM     14  C   UNL     1      44.648   6.310  11.473  0.00  0.00    +0.000 C 
BRANCH  14  15
ATOM     15  C   UNL     1      44.521   4.908  10.939  0.00  0.00    +0.000 A 
ATOM     16  C   UNL     1      43.620   4.009  11.496  0.00  0.00    +0.000 A 
ATOM     17  N   UNL     1      43.444   2.750  11.048  0.00  0.00    +0.000 NA
ATOM     18  C   UNL     1      44.195   2.368   9.986  0.00  0.00    +0.000 A 
ATOM     19  C   UNL     1      45.119   3.174   9.318  0.00  0.00    +0.000 A 
ATOM     20  C   UNL     1      45.264   4.475   9.831  0.00  0.00    +0.000 A 
BRANCH  19  21
ATOM     21  C   UNL     1      45.882   2.694   8.147  0.00  0.00    +0.000 A 
ATOM     22  C   UNL     1      46.150   3.511   7.036  0.00  0.00    +0.000 A 
ATOM     23  C   UNL     1      46.878   3.026   5.949  0.00  0.00    +0.000 A 
ATOM     24  C   UNL     1      47.336   1.723   5.993  0.00  0.00    +0.000 A 
ATOM     25  N   UNL     1      47.109   0.893   7.030  0.00  0.00    +0.000 NA
ATOM     26  C   UNL     1      46.391   1.394   8.066  0.00  0.00    +0.000 A 
ENDBRANCH  19  21
ENDBRANCH  14  15
ENDBRANCH   1  14
TORSDOF 6
ENDMDL
MODEL 4
REMARK VINA RESULT:    -7.277      1.827      2.768
REMARK INTER + INTRA:         -10.707
REMARK INTER:                  -9.969
REMARK INTRA:                  -0.738
REMARK UNBOUND:                -0.878
REMARK  Name = 
REMARK  6 active torsions:
REMARK  status: ('A' for Active; 'I' for Inactive)
REMARK    1  A    between atoms: C_2  and  C_4
REMARK    2  A    between atoms: C_7  and  O_8
REMARK    3  A    between atoms: O_8  and  C_9
REMARK    4  A    between atoms: C_9  and  C_10
REMARK    5  A    between atoms: C_10  and  C_11
REMARK    6  A    between atoms: C_15  and  C_16
REMARK                            x       y       z     vdW  Elec       q    Type
REMARK                         _______ _______ _______ _____ _____    ______ ____
ROOT
ATOM      1  C   UNL     1      43.451   4.481  10.830  0.00  0.00    +0.000 C 
ENDROOT
BRANCH   1   2
ATOM      2  O   UNL     1      43.693   3.109  10.488  0.00  0.00    +0.000 OA
BRANCH   2   6
ATOM      3  C   UNL     1      46.405   2.817   7.395  0.00  0.00    +0.000 A 
ATOM      4  C   UNL     1      45.890   4.067   7.745  0.00  0.00    +0.000 A 
ATOM      5  C   UNL     1      44.968   4.155   8.792  0.00  0.00    +0.000 A 
ATOM      6  C   UNL     1      44.597   2.989   9.450  0.00  0.00    +0.000 A 
ATOM      7  N   UNL     1      45.072   1.768   9.121  0.00  0.00    +0.000 NA
ATOM      8  C   UNL     1      45.956   1.706   8.099  0.00  0.00    +0.000 A 
BRANCH   3  10
ATOM      9  N   UNL     1      48.570   2.016   6.635  0.00  0.00    +0.000 N 
ATOM     10  C   UNL     1      47.383   2.608   6.308  0.00  0.00    +0.000 C 
ATOM     11  O   UNL     1      47.126   2.912   5.151  0.00  0.00    +0.000 OA
ATOM     12  H   UNL     1      49.174   1.774   5.858  0.00  0.00    +0.000 HD
ATOM     13  H   UNL     1      48.711   1.521   7.504  0.00  0.00    +0.000 HD
ENDBRANCH   3  10
ENDBRANCH   2   6
ENDBRANCH   1   2
BRANCH   1  14
ATOM     14  C   UNL     1      43.982   4.755  12.237  0.00  0.00    +0.000 C 
BRANCH  14  15
ATOM     15  C   UNL     1      44.875   5.966  12.272  0.00  0.00    +0.000 A 
ATOM     16  C   UNL     1      44.509   7.144  11.633  0.00  0.00    +0.000 A 
ATOM     17  N   UNL     1      45.254   8.268  11.647  0.00  0.00    +0.000 NA
ATOM     18  C   UNL     1      46.419   8.220  12.339  0.00  0.00    +0.000 A 
ATOM     19  C   UNL     1      46.896   7.112  13.042  0.00  0.00    +0.000 A 
ATOM     20  C   UNL     1      46.080   5.969  12.989  0.00  0.00    +0.000 A 
BRANCH  19  21
ATOM     21  C   UNL     1      48.166   7.147  13.798  0.00  0.00    +0.000 A 
ATOM     22  C   UNL     1      49.216   8.019  13.465  0.00  0.00    +0.000 A 
ATOM     23  C   UNL     1      50.400   8.028  14.202  0.00  0.00    +0.000 A 
ATOM     24  C   UNL     1      50.514   7.163  15.274  0.00  0.00    +0.000 A 
ATOM     25  N   UNL     1      49.543   6.304  15.640  0.00  0.00    +0.000 NA
ATOM     26  C   UNL     1      48.408   6.316  14.896  0.00  0.00    +0.000 A 
ENDBRANCH  19  21
ENDBRANCH  14  15
ENDBRANCH   1  14
TORSDOF 6
ENDMDL
MODEL 5
REMARK VINA RESULT:    -6.976      2.778      6.793
REMARK INTER + INTRA:         -10.300
REMARK INTER:                  -9.539
REMARK INTRA:                  -0.762
REMARK UNBOUND:                -0.878
REMARK  Name = 
REMARK  6 active torsions:
REMARK  status: ('A' for Active; 'I' for Inactive)
REMARK    1  A    between atoms: C_2  and  C_4
REMARK    2  A    between atoms: C_7  and  O_8
REMARK    3  A    between atoms: O_8  and  C_9
REMARK    4  A    between atoms: C_9  and  C_10
REMARK    5  A    between atoms: C_10  and  C_11
REMARK    6  A    between atoms: C_15  and  C_16
REMARK                            x       y       z     vdW  Elec       q    Type
REMARK                         _______ _______ _______ _____ _____    ______ ____
ROOT
ATOM      1  C   UNL     1      45.036   6.784  12.571  0.00  0.00    +0.000 C 
ENDROOT
BRANCH   1   2
ATOM      2  O   UNL     1      45.543   8.114  12.397  0.00  0.00    +0.000 OA
BRANCH   2   6
ATOM      3  C   UNL     1      49.645   8.082  11.970  0.00  0.00    +0.000 A 
ATOM      4  C   UNL     1      48.982   6.912  12.345  0.00  0.00    +0.000 A 
ATOM      5  C   UNL     1      47.592   6.935  12.492  0.00  0.00    +0.000 A 
ATOM      6  C   UNL     1      46.918   8.126  12.256  0.00  0.00    +0.000 A 
ATOM      7  N   UNL     1      47.540   9.273  11.903  0.00  0.00    +0.000 NA
ATOM      8  C   UNL     1      48.885   9.230  11.777  0.00  0.00    +0.000 A 
BRANCH   3  10
ATOM      9  N   UNL     1      51.676   7.350  10.855  0.00  0.00    +0.000 N 
ATOM     10  C   UNL     1      51.108   8.173  11.785  0.00  0.00    +0.000 C 
ATOM     11  O   UNL     1      51.781   8.983  12.408  0.00  0.00    +0.000 OA
ATOM     12  H   UNL     1      52.658   7.511  10.660  0.00  0.00    +0.000 HD
ATOM     13  H   UNL     1      51.137   6.869  10.150  0.00  0.00    +0.000 HD
ENDBRANCH   3  10
ENDBRANCH   2   6
ENDBRANCH   1   2
BRANCH   1  14
ATOM     14  C   UNL     1      43.986   6.496  11.497  0.00  0.00    +0.000 C 
BRANCH  14  15
ATOM     15  C   UNL     1      44.028   5.061  11.045  0.00  0.00    +0.000 A 
ATOM     16  C   UNL     1      43.222   4.099  11.640  0.00  0.00    +0.000 A 
ATOM     17  N   UNL     1      43.198   2.805  11.265  0.00  0.00    +0.000 NA
ATOM     18  C   UNL     1      44.009   2.451  10.239  0.00  0.00    +0.000 A 
ATOM     19  C   UNL     1      44.851   3.317   9.538  0.00  0.00    +0.000 A 
ATOM     20  C   UNL     1      44.838   4.653   9.976  0.00  0.00    +0.000 A 
BRANCH  19  21
ATOM     21  C   UNL     1      45.688   2.859   8.408  0.00  0.00    +0.000 A 
ATOM     22  C   UNL     1      46.188   1.550   8.325  0.00  0.00    +0.000 A 
ATOM     23  C   UNL     1      46.972   1.150   7.242  0.00  0.00    +0.000 A 
ATOM     24  C   UNL     1      47.239   2.072   6.248  0.00  0.00    +0.000 A 
ATOM     25  N   UNL     1      46.788   3.341   6.274  0.00  0.00    +0.000 NA
ATOM     26  C   UNL     1      46.036   3.699   7.346  0.00  0.00    +0.000 A 
ENDBRANCH  19  21
ENDBRANCH  14  15
ENDBRANCH   1  14
TORSDOF 6
ENDMDL
MODEL 6
REMARK VINA RESULT:    -6.433      3.700      7.959
REMARK INTER + INTRA:          -9.568
REMARK INTER:                  -8.993
REMARK INTRA:                  -0.575
REMARK UNBOUND:                -0.878
REMARK  Name = 
REMARK  6 active torsions:
REMARK  status: ('A' for Active; 'I' for Inactive)
REMARK    1  A    between atoms: C_2  and  C_4
REMARK    2  A    between atoms: C_7  and  O_8
REMARK    3  A    between atoms: O_8  and  C_9
REMARK    4  A    between atoms: C_9  and  C_10
REMARK    5  A    between atoms: C_10  and  C_11
REMARK    6  A    between atoms: C_15  and  C_16
REMARK                            x       y       z     vdW  Elec       q    Type
REMARK                         _______ _______ _______ _____ _____    ______ ____
ROOT
ATOM      1  C   UNL     1      47.432   6.497  12.916  0.00  0.00    +0.000 C 
ENDROOT
BRANCH   1   2
ATOM      2  O   UNL     1      48.070   7.258  13.951  0.00  0.00    +0.000 OA
BRANCH   2   6
ATOM      3  C   UNL     1      48.656   5.076  17.401  0.00  0.00    +0.000 A 
ATOM      4  C   UNL     1      49.128   6.387  17.326  0.00  0.00    +0.000 A 
ATOM      5  C   UNL     1      48.929   7.117  16.150  0.00  0.00    +0.000 A 
ATOM      6  C   UNL     1      48.263   6.507  15.096  0.00  0.00    +0.000 A 
ATOM      7  N   UNL     1      47.808   5.236  15.141  0.00  0.00    +0.000 NA
ATOM      8  C   UNL     1      48.020   4.546  16.284  0.00  0.00    +0.000 A 
BRANCH   3  10
ATOM      9  N   UNL     1      49.357   2.977  18.405  0.00  0.00    +0.000 N 
ATOM     10  C   UNL     1      48.810   4.215  18.592  0.00  0.00    +0.000 C 
ATOM     11  O   UNL     1      48.502   4.608  19.708  0.00  0.00    +0.000 OA
ATOM     12  H   UNL     1      49.564   2.452  19.247  0.00  0.00    +0.000 HD
ATOM     13  H   UNL     1      49.857   2.722  17.566  0.00  0.00    +0.000 HD
ENDBRANCH   3  10
ENDBRANCH   2   6
ENDBRANCH   1   2
BRANCH   1  14
ATOM     14  C   UNL     1      46.088   7.139  12.570  0.00  0.00    +0.000 C 
BRANCH  14  15
ATOM     15  C   UNL     1      45.235   6.230  11.727  0.00  0.00    +0.000 A 
ATOM     16  C   UNL     1      43.848   6.289  11.789  0.00  0.00    +0.000 A 
ATOM     17  N   UNL     1      43.031   5.518  11.044  0.00  0.00    +0.000 NA
ATOM     18  C   UNL     1      43.622   4.651  10.186  0.00  0.00    +0.000 A 
ATOM     19  C   UNL     1      45.000   4.505  10.007  0.00  0.00    +0.000 A 
ATOM     20  C   UNL     1      45.802   5.330  10.813  0.00  0.00    +0.000 A 
BRANCH  19  21
ATOM     21  C   UNL     1      45.570   3.553   9.029  0.00  0.00    +0.000 A 
ATOM     22  C   UNL     1      46.230   3.978   7.864  0.00  0.00    +0.000 A 
ATOM     23  C   UNL     1      46.761   3.053   6.965  0.00  0.00    +0.000 A 
ATOM     24  C   UNL     1      46.628   1.708   7.249  0.00  0.00    +0.000 A 
ATOM     25  N   UNL     1      46.003   1.241   8.349  0.00  0.00    +0.000 NA
ATOM     26  C   UNL     1      45.492   2.168   9.198  0.00  0.00    +0.000 A 
ENDBRANCH  19  21
ENDBRANCH  14  15
ENDBRANCH   1  14
TORSDOF 6
ENDMDL
MODEL 7
REMARK VINA RESULT:    -6.431      1.652      2.341
REMARK INTER + INTRA:          -9.565
REMARK INTER:                  -8.601
REMARK INTRA:                  -0.964
REMARK UNBOUND:                -0.878
REMARK  Name = 
REMARK  6 active torsions:
REMARK  status: ('A' for Active; 'I' for Inactive)
REMARK    1  A    between atoms: C_2  and  C_4
REMARK    2  A    between atoms: C_7  and  O_8
REMARK    3  A    between atoms: O_8  and  C_9
REMARK    4  A    between atoms: C_9  and  C_10
REMARK    5  A    between atoms: C_10  and  C_11
REMARK    6  A    between atoms: C_15  and  C_16
REMARK                            x       y       z     vdW  Elec       q    Type
REMARK                         _______ _______ _______ _____ _____    ______ ____
ROOT
ATOM      1  C   UNL     1      44.177   6.484  11.173  0.00  0.00    +0.000 C 
ENDROOT
BRANCH   1   2
ATOM      2  O   UNL     1      43.746   5.119  11.277  0.00  0.00    +0.000 OA
BRANCH   2   6
ATOM      3  C   UNL     1      45.740   2.733   8.568  0.00  0.00    +0.000 A 
ATOM      4  C   UNL     1      45.991   4.107   8.592  0.00  0.00    +0.000 A 
ATOM      5  C   UNL     1      45.306   4.908   9.511  0.00  0.00    +0.000 A 
ATOM      6  C   UNL     1      44.398   4.304  10.371  0.00  0.00    +0.000 A 
ATOM      7  N   UNL     1      44.130   2.980  10.357  0.00  0.00    +0.000 NA
ATOM      8  C   UNL     1      44.797   2.226   9.454  0.00  0.00    +0.000 A 
BRANCH   3  10
ATOM      9  N   UNL     1      46.907   2.308   6.479  0.00  0.00    +0.000 N 
ATOM     10  C   UNL     1      46.404   1.794   7.641  0.00  0.00    +0.000 C 
ATOM     11  O   UNL     1      46.541   0.611   7.920  0.00  0.00    +0.000 OA
ATOM     12  H   UNL     1      47.461   1.673   5.916  0.00  0.00    +0.000 HD
ATOM     13  H   UNL     1      47.047   3.297   6.336  0.00  0.00    +0.000 HD
ENDBRANCH   3  10
ENDBRANCH   2   6
ENDBRANCH   1   2
BRANCH   1  14
ATOM     14  C   UNL     1      44.697   6.957  12.530  0.00  0.00    +0.000 C 
BRANCH  14  15
ATOM     15  C   UNL     1      46.192   6.824  12.633  0.00  0.00    +0.000 A 
ATOM     16  C   UNL     1      46.773   5.704  13.217  0.00  0.00    +0.000 A 
ATOM     17  N   UNL     1      48.104   5.517  13.318  0.00  0.00    +0.000 NA
ATOM     18  C   UNL     1      48.899   6.488  12.804  0.00  0.00    +0.000 A 
ATOM     19  C   UNL     1      48.450   7.650  12.173  0.00  0.00    +0.000 A 
ATOM     20  C   UNL     1      47.054   7.794  12.101  0.00  0.00    +0.000 A 
BRANCH  19  21
ATOM     21  C   UNL     1      49.382   8.652  11.613  0.00  0.00    +0.000 A 
ATOM     22  C   UNL     1      49.000   9.982  11.374  0.00  0.00    +0.000 A 
ATOM     23  C   UNL     1      49.907  10.903  10.848  0.00  0.00    +0.000 A 
ATOM     24  C   UNL     1      51.192  10.478  10.574  0.00  0.00    +0.000 A 
ATOM     25  N   UNL     1      51.615   9.215  10.780  0.00  0.00    +0.000 NA
ATOM     26  C   UNL     1      50.705   8.343  11.285  0.00  0.00    +0.000 A 
ENDBRANCH  19  21
ENDBRANCH  14  15
ENDBRANCH   1  14
TORSDOF 6
ENDMDL
MODEL 8
REMARK VINA RESULT:    -6.428      3.803      7.636
REMARK INTER + INTRA:          -9.561
REMARK INTER:                  -8.741
REMARK INTRA:                  -0.820
REMARK UNBOUND:                -0.878
REMARK  Name = 
REMARK  6 active torsions:
REMARK  status: ('A' for Active; 'I' for Inactive)
REMARK    1  A    between atoms: C_2  and  C_4
REMARK    2  A    between atoms: C_7  and  O_8
REMARK    3  A    between atoms: O_8  and  C_9
REMARK    4  A    between atoms: C_9  and  C_10
REMARK    5  A    between atoms: C_10  and  C_11
REMARK    6  A    between atoms: C_15  and  C_16
REMARK                            x       y       z     vdW  Elec       q    Type
REMARK                         _______ _______ _______ _____ _____    ______ ____
ROOT
ATOM      1  C   UNL     1      49.727   7.438  13.453  0.00  0.00    +0.000 C 
ENDROOT
BRANCH   1   2
ATOM      2  O   UNL     1      49.134   7.850  14.692  0.00  0.00    +0.000 OA
BRANCH   2   6
ATOM      3  C   UNL     1      48.017   4.662  17.057  0.00  0.00    +0.000 A 
ATOM      4  C   UNL     1      48.741   5.716  17.618  0.00  0.00    +0.000 A 
ATOM      5  C   UNL     1      49.119   6.790  16.806  0.00  0.00    +0.000 A 
ATOM      6  C   UNL     1      48.757   6.769  15.466  0.00  0.00    +0.000 A 
ATOM      7  N   UNL     1      48.068   5.754  14.899  0.00  0.00    +0.000 NA
ATOM      8  C   UNL     1      47.721   4.722  15.701  0.00  0.00    +0.000 A 
BRANCH   3  10
ATOM      9  N   UNL     1      48.254   3.166  18.958  0.00  0.00    +0.000 N 
ATOM     10  C   UNL     1      47.567   3.479  17.820  0.00  0.00    +0.000 C 
ATOM     11  O   UNL     1      46.590   2.830  17.472  0.00  0.00    +0.000 OA
ATOM     12  H   UNL     1      47.857   2.427  19.527  0.00  0.00    +0.000 HD
ATOM     13  H   UNL     1      48.882   3.813  19.411  0.00  0.00    +0.000 HD
ENDBRANCH   3  10
ENDBRANCH   2   6
ENDBRANCH   1   2
BRANCH   1  14
ATOM     14  C   UNL     1      49.162   8.286  12.313  0.00  0.00    +0.000 C 
BRANCH  14  15
ATOM     15  C   UNL     1      47.675   8.108  12.168  0.00  0.00    +0.000 A 
ATOM     16  C   UNL     1      46.822   9.205  12.148  0.00  0.00    +0.000 A 
ATOM     17  N   UNL     1      45.485   9.113  11.998  0.00  0.00    +0.000 NA
ATOM     18  C   UNL     1      44.971   7.867  11.853  0.00  0.00    +0.000 A 
ATOM     19  C   UNL     1      45.713   6.684  11.833  0.00  0.00    +0.000 A 
ATOM     20  C   UNL     1      47.100   6.840  11.998  0.00  0.00    +0.000 A 
BRANCH  19  21
ATOM     21  C   UNL     1      45.081   5.361  11.642  0.00  0.00    +0.000 A 
ATOM     22  C   UNL     1      44.538   4.958  10.411  0.00  0.00    +0.000 A 
ATOM     23  C   UNL     1      43.952   3.699  10.265  0.00  0.00    +0.000 A 
ATOM     24  C   UNL     1      43.925   2.855  11.359  0.00  0.00    +0.000 A 
ATOM     25  N   UNL     1      44.428   3.188  12.564  0.00  0.00    +0.000 NA
ATOM     26  C   UNL     1      44.983   4.421  12.673  0.00  0.00    +0.000 A 
ENDBRANCH  19  21
ENDBRANCH  14  15
ENDBRANCH   1  14
TORSDOF 6
ENDMDL
MODEL 9
REMARK VINA RESULT:    -6.298      5.650      7.865
REMARK INTER + INTRA:          -9.385
REMARK INTER:                  -8.824
REMARK INTRA:                  -0.560
REMARK UNBOUND:                -0.878
REMARK  Name = 
REMARK  6 active torsions:
REMARK  status: ('A' for Active; 'I' for Inactive)
REMARK    1  A    between atoms: C_2  and  C_4
REMARK    2  A    between atoms: C_7  and  O_8
REMARK    3  A    between atoms: O_8  and  C_9
REMARK    4  A    between atoms: C_9  and  C_10
REMARK    5  A    between atoms: C_10  and  C_11
REMARK    6  A    between atoms: C_15  and  C_16
REMARK                            x       y       z     vdW  Elec       q    Type
REMARK                         _______ _______ _______ _____ _____    ______ ____
ROOT
ATOM      1  C   UNL     1      47.166   4.148  15.890  0.00  0.00    +0.000 C 
ENDROOT
BRANCH   1   2
ATOM      2  O   UNL     1      47.570   3.747  14.574  0.00  0.00    +0.000 OA
BRANCH   2   6
ATOM      3  C   UNL     1      44.785   4.813  11.725  0.00  0.00    +0.000 A 
ATOM      4  C   UNL     1      45.528   5.805  12.368  0.00  0.00    +0.000 A 
ATOM      5  C   UNL     1      46.466   5.433  13.336  0.00  0.00    +0.000 A 
ATOM      6  C   UNL     1      46.626   4.084  13.621  0.00  0.00    +0.000 A 
ATOM      7  N   UNL     1      45.910   3.108  13.022  0.00  0.00    +0.000 NA
ATOM      8  C   UNL     1      45.002   3.491  12.096  0.00  0.00    +0.000 A 
BRANCH   3  10
ATOM      9  N   UNL     1      42.864   6.081  10.945  0.00  0.00    +0.000 N 
ATOM     10  C   UNL     1      43.769   5.090  10.689  0.00  0.00    +0.000 C 
ATOM     11  O   UNL     1      43.763   4.489   9.624  0.00  0.00    +0.000 OA
ATOM     12  H   UNL     1      42.255   6.335  10.176  0.00  0.00    +0.000 HD
ATOM     13  H   UNL     1      42.996   6.763  11.677  0.00  0.00    +0.000 HD
ENDBRANCH   3  10
ENDBRANCH   2   6
ENDBRANCH   1   2
BRANCH   1  14
ATOM     14  C   UNL     1      47.744   3.173  16.917  0.00  0.00    +0.000 C 
BRANCH  14  15
ATOM     15  C   UNL     1      49.092   3.620  17.415  0.00  0.00    +0.000 A 
ATOM     16  C   UNL     1      49.264   4.875  17.986  0.00  0.00    +0.000 A 
ATOM     17  N   UNL     1      50.439   5.324  18.470  0.00  0.00    +0.000 NA
ATOM     18  C   UNL     1      51.495   4.478  18.392  0.00  0.00    +0.000 A 
ATOM     19  C   UNL     1      51.458   3.185  17.865  0.00  0.00    +0.000 A 
ATOM     20  C   UNL     1      50.208   2.773  17.371  0.00  0.00    +0.000 A 
BRANCH  19  21
ATOM     21  C   UNL     1      52.650   2.311  17.839  0.00  0.00    +0.000 A 
ATOM     22  C   UNL     1      52.555   0.913  17.732  0.00  0.00    +0.000 A 
ATOM     23  C   UNL     1      53.701   0.118  17.706  0.00  0.00    +0.000 A 
ATOM     24  C   UNL     1      54.933   0.738  17.781  0.00  0.00    +0.000 A 
ATOM     25  N   UNL     1      55.087   2.072  17.887  0.00  0.00    +0.000 NA
ATOM     26  C   UNL     1      53.952   2.815  17.918  0.00  0.00    +0.000 A 
ENDBRANCH  19  21
ENDBRANCH  14  15
ENDBRANCH   1  14
TORSDOF 6
ENDMDL
