MODEL 1
REMARK VINA RESULT:    -7.788      0.000      0.000
REMARK INTER + INTRA:         -12.585
REMARK INTER:                 -11.431
REMARK INTRA:                  -1.154
REMARK UNBOUND:                -1.154
REMARK  Name = 
REMARK  9 active torsions:
REMARK  status: ('A' for Active; 'I' for Inactive)
REMARK    1  A    between atoms: C_1  and  O_2
REMARK    2  A    between atoms: O_2  and  C_3
REMARK    3  A    between atoms: C_8  and  C_9
REMARK    4  A    between atoms: C_9  and  N_10
REMARK    5  A    between atoms: N_10  and  C_11
REMARK    6  A    between atoms: C_11  and  C_12
REMARK    7  A    between atoms: C_15  and  C_16
REMARK    8  A    between atoms: C_16  and  N_17
REMARK    9  A    between atoms: C_18  and  C_20
REMARK                            x       y       z     vdW  Elec       q    Type
REMARK                         _______ _______ _______ _____ _____    ______ ____
ROOT
ATOM      1  C   UNL     1      44.856   4.975  11.919  0.00  0.00    +0.000 A 
ATOM      2  C   UNL     1      44.516   6.333  11.817  0.00  0.00    +0.000 A 
ATOM      3  C   UNL     1      45.357   7.325  12.333  0.00  0.00    +0.000 A 
ATOM      4  C   UNL     1      46.555   6.982  12.969  0.00  0.00    +0.000 A 
ATOM      5  C   UNL     1      46.873   5.625  13.120  0.00  0.00    +0.000 A 
ATOM      6  C   UNL     1      46.036   4.633  12.594  0.00  0.00    +0.000 A 
ENDROOT
BRANCH   1   7
ATOM      7  C   UNL     1      43.974   3.907  11.302  0.00  0.00    +0.000 C 
BRANCH   7   8
ATOM      8  N   UNL     1      44.775   2.785  10.823  0.00  0.00    +0.000 NA
ATOM      9  H   UNL     1      45.744   3.080  10.694  0.00  0.00    +0.000 HD
BRANCH   8  10
ATOM     10  C   UNL     1      44.315   2.277   9.521  0.00  0.00    +0.000 C 
BRANCH  10  16
ATOM     11  C   UNL     1      45.973   3.284   7.852  0.00  0.00    +0.000 A 
ATOM     12  C   UNL     1      47.028   3.079   6.957  0.00  0.00    +0.000 A 
ATOM     13  C   UNL     1      47.539   1.799   6.766  0.00  0.00    +0.000 A 
ATOM     14  C   UNL     1      46.990   0.758   7.490  0.00  0.00    +0.000 A 
ATOM     15  N   UNL     1      45.985   0.910   8.376  0.00  0.00    +0.000 NA
ATOM     16  C   UNL     1      45.479   2.171   8.548  0.00  0.00    +0.000 A 
BRANCH  11  18
ATOM     17  C   UNL     1      46.250   5.436   8.807  0.00  0.00    +0.000 C 
ATOM     18  O   UNL     1      45.420   4.508   8.115  0.00  0.00    +0.000 OA
ENDBRANCH  11  18
ENDBRANCH  10  16
ENDBRANCH   8  10
ENDBRANCH   7   8
ENDBRANCH   1   7
BRANCH   4  19
ATOM     19  C   UNL     1      47.473   8.047  13.509  0.00  0.00    +0.000 C 
BRANCH  19  20
ATOM     20  N   UNL     1      47.709   7.865  14.918  0.00  0.00    +0.000 N 
ATOM     21  C   UNL     1      48.846   7.252  15.376  0.00  0.00    +0.000 C 
ATOM     22  O   UNL     1      49.733   6.877  14.616  0.00  0.00    +0.000 OA
ATOM     23  H   UNL     1      46.907   7.966  15.534  0.00  0.00    +0.000 HD
BRANCH  21  24
ATOM     24  C   UNL     1      48.979   7.117  16.833  0.00  0.00    +0.000 A 
ATOM     25  C   UNL     1      49.256   8.238  17.603  0.00  0.00    +0.000 A 
ATOM     26  S   UNL     1      49.322   7.920  19.276  0.00  0.00    +0.000 S 
ATOM     27  C   UNL     1      49.037   6.262  19.028  0.00  0.00    +0.000 A 
ATOM     28  N   UNL     1      48.993   5.396  20.077  0.00  0.00    +0.000 NA
ATOM     29  C   UNL     1      48.798   4.164  19.744  0.00  0.00    +0.000 A 
ATOM     30  N   UNL     1      48.639   3.721  18.456  0.00  0.00    +0.000 N 
ATOM     31  C   UNL     1      48.650   4.560  17.368  0.00  0.00    +0.000 A 
ATOM     32  O   UNL     1      48.469   4.133  16.233  0.00  0.00    +0.000 OA
ATOM     33  C   UNL     1      48.875   5.958  17.688  0.00  0.00    +0.000 A 
ATOM     34  H   UNL     1      48.483   2.742  18.261  0.00  0.00    +0.000 HD
ENDBRANCH  21  24
ENDBRANCH  19  20
ENDBRANCH   4  19
TORSDOF 8
ENDMDL
MODEL 2
REMARK VINA RESULT:    -7.699      1.674      2.259
REMARK INTER + INTRA:         -12.454
REMARK INTER:                 -11.241
REMARK INTRA:                  -1.213
REMARK UNBOUND:                -1.154
REMARK  Name = 
REMARK  9 active torsions:
REMARK  status: ('A' for Active; 'I' for Inactive)
REMARK    1  A    between atoms: C_1  and  O_2
REMARK    2  A    between atoms: O_2  and  C_3
REMARK    3  A    between atoms: C_8  and  C_9
REMARK    4  A    between atoms: C_9  and  N_10
REMARK    5  A    between atoms: N_10  and  C_11
REMARK    6  A    between atoms: C_11  and  C_12
REMARK    7  A    between atoms: C_15  and  C_16
REMARK    8  A    between atoms: C_16  and  N_17
REMARK    9  A    between atoms: C_18  and  C_20
REMARK                            x       y       z     vdW  Elec       q    Type
REMARK                         _______ _______ _______ _____ _____    ______ ____
ROOT
ATOM      1  C   UNL     1      45.339   4.567  12.268  0.00  0.00    +0.000 A 
ATOM      2  C   UNL     1      45.536   5.948  12.112  0.00  0.00    +0.000 A 
ATOM      3  C   UNL     1      46.509   6.623  12.859  0.00  0.00    +0.000 A 
ATOM      4  C   UNL     1      47.302   5.935  13.782  0.00  0.00    +0.000 A 
ATOM      5  C   UNL     1      47.072   4.567  13.979  0.00  0.00    +0.000 A 
ATOM      6  C   UNL     1      46.106   3.889  13.226  0.00  0.00    +0.000 A 
ENDROOT
BRANCH   1   7
ATOM      7  C   UNL     1      44.329   3.827  11.413  0.00  0.00    +0.000 C 
BRANCH   7   8
ATOM      8  N   UNL     1      44.899   2.590  10.889  0.00  0.00    +0.000 NA
ATOM      9  H   UNL     1      45.910   2.692  10.783  0.00  0.00    +0.000 HD
BRANCH   8  10
ATOM     10  C   UNL     1      44.372   2.243   9.561  0.00  0.00    +0.000 C 
BRANCH  10  16
ATOM     11  C   UNL     1      45.946   3.284   7.831  0.00  0.00    +0.000 A 
ATOM     12  C   UNL     1      46.969   3.099   6.896  0.00  0.00    +0.000 A 
ATOM     13  C   UNL     1      47.496   1.829   6.683  0.00  0.00    +0.000 A 
ATOM     14  C   UNL     1      46.994   0.777   7.425  0.00  0.00    +0.000 A 
ATOM     15  N   UNL     1      46.022   0.909   8.349  0.00  0.00    +0.000 NA
ATOM     16  C   UNL     1      45.499   2.160   8.543  0.00  0.00    +0.000 A 
BRANCH  11  18
ATOM     17  C   UNL     1      46.230   5.451   8.748  0.00  0.00    +0.000 C 
ATOM     18  O   UNL     1      45.381   4.496   8.117  0.00  0.00    +0.000 OA
ENDBRANCH  11  18
ENDBRANCH  10  16
ENDBRANCH   8  10
ENDBRANCH   7   8
ENDBRANCH   1   7
BRANCH   4  19
ATOM     19  C   UNL     1      48.363   6.654  14.574  0.00  0.00    +0.000 C 
BRANCH  19  20
ATOM     20  N   UNL     1      48.174   6.467  15.989  0.00  0.00    +0.000 N 
ATOM     21  C   UNL     1      49.200   6.049  16.795  0.00  0.00    +0.000 C 
ATOM     22  O   UNL     1      50.334   5.866  16.362  0.00  0.00    +0.000 OA
ATOM     23  H   UNL     1      47.215   6.401  16.318  0.00  0.00    +0.000 HD
BRANCH  21  24
ATOM     24  C   UNL     1      48.892   5.888  18.222  0.00  0.00    +0.000 A 
ATOM     25  C   UNL     1      49.137   4.670  18.843  0.00  0.00    +0.000 A 
ATOM     26  S   UNL     1      48.777   4.667  20.509  0.00  0.00    +0.000 S 
ATOM     27  C   UNL     1      48.230   6.276  20.451  0.00  0.00    +0.000 A 
ATOM     28  N   UNL     1      47.750   6.892  21.565  0.00  0.00    +0.000 NA
ATOM     29  C   UNL     1      47.342   8.101  21.373  0.00  0.00    +0.000 A 
ATOM     30  N   UNL     1      47.373   8.752  20.166  0.00  0.00    +0.000 N 
ATOM     31  C   UNL     1      47.871   8.180  19.020  0.00  0.00    +0.000 A 
ATOM     32  O   UNL     1      47.917   8.804  17.965  0.00  0.00    +0.000 OA
ATOM     33  C   UNL     1      48.336   6.815  19.181  0.00  0.00    +0.000 A 
ATOM     34  H   UNL     1      47.043   9.702  20.081  0.00  0.00    +0.000 HD
ENDBRANCH  21  24
ENDBRANCH  19  20
ENDBRANCH   4  19
TORSDOF 8
ENDMDL
MODEL 3
REMARK VINA RESULT:    -7.166      2.811      8.769
REMARK INTER + INTRA:         -11.671
REMARK INTER:                 -10.115
REMARK INTRA:                  -1.556
REMARK UNBOUND:                -1.154
REMARK  Name = 
REMARK  9 active torsions:
REMARK  status: ('A' for Active; 'I' for Inactive)
REMARK    1  A    between atoms: C_1  and  O_2
REMARK    2  A    between atoms: O_2  and  C_3
REMARK    3  A    between atoms: C_8  and  C_9
REMARK    4  A    between atoms: C_9  and  N_10
REMARK    5  A    between atoms: N_10  and  C_11
REMARK    6  A    between atoms: C_11  and  C_12
REMARK    7  A    between atoms: C_15  and  C_16
REMARK    8  A    between atoms: C_16  and  N_17
REMARK    9  A    between atoms: C_18  and  C_20
REMARK                            x       y       z     vdW  Elec       q    Type
REMARK                         _______ _______ _______ _____ _____    ______ ____
ROOT
ATOM      1  C   UNL     1      50.263   7.653  15.315  0.00  0.00    +0.000 A 
ATOM      2  C   UNL     1      48.888   7.380  15.381  0.00  0.00    +0.000 A 
ATOM      3  C   UNL     1      48.089   7.436  14.233  0.00  0.00    +0.000 A 
ATOM      4  C   UNL     1      48.645   7.772  12.995  0.00  0.00    +0.000 A 
ATOM      5  C   UNL     1      50.007   8.096  12.934  0.00  0.00    +0.000 A 
ATOM      6  C   UNL     1      50.809   8.031  14.081  0.00  0.00    +0.000 A 
ENDROOT
BRANCH   1   7
ATOM      7  C   UNL     1      51.137   7.529  16.548  0.00  0.00    +0.000 C 
BRANCH   7   8
ATOM      8  N   UNL     1      51.373   6.128  16.879  0.00  0.00    +0.000 NA
ATOM      9  H   UNL     1      50.971   5.528  16.157  0.00  0.00    +0.000 HD
BRANCH   8  10
ATOM     10  C   UNL     1      50.746   5.732  18.149  0.00  0.00    +0.000 C 
BRANCH  10  16
ATOM     11  C   UNL     1      49.685   3.529  17.393  0.00  0.00    +0.000 A 
ATOM     12  C   UNL     1      48.520   2.790  17.166  0.00  0.00    +0.000 A 
ATOM     13  C   UNL     1      47.275   3.358  17.420  0.00  0.00    +0.000 A 
ATOM     14  C   UNL     1      47.230   4.650  17.910  0.00  0.00    +0.000 A 
ATOM     15  N   UNL     1      48.326   5.394  18.161  0.00  0.00    +0.000 NA
ATOM     16  C   UNL     1      49.546   4.832  17.895  0.00  0.00    +0.000 A 
BRANCH  11  18
ATOM     17  C   UNL     1      51.106   1.635  17.294  0.00  0.00    +0.000 C 
ATOM     18  O   UNL     1      50.949   3.046  17.188  0.00  0.00    +0.000 OA
ENDBRANCH  11  18
ENDBRANCH  10  16
ENDBRANCH   8  10
ENDBRANCH   7   8
ENDBRANCH   1   7
BRANCH   4  19
ATOM     19  C   UNL     1      47.793   7.814  11.753  0.00  0.00    +0.000 C 
BRANCH  19  20
ATOM     20  N   UNL     1      47.061   6.585  11.582  0.00  0.00    +0.000 N 
ATOM     21  C   UNL     1      45.692   6.557  11.652  0.00  0.00    +0.000 C 
ATOM     22  O   UNL     1      45.029   7.577  11.811  0.00  0.00    +0.000 OA
ATOM     23  H   UNL     1      47.588   5.721  11.670  0.00  0.00    +0.000 HD
BRANCH  21  24
ATOM     24  C   UNL     1      45.051   5.249  11.468  0.00  0.00    +0.000 A 
ATOM     25  C   UNL     1      44.364   4.666  12.524  0.00  0.00    +0.000 A 
ATOM     26  S   UNL     1      43.633   3.179  12.129  0.00  0.00    +0.000 S 
ATOM     27  C   UNL     1      44.253   3.232  10.546  0.00  0.00    +0.000 A 
ATOM     28  N   UNL     1      44.010   2.222   9.667  0.00  0.00    +0.000 NA
ATOM     29  C   UNL     1      44.564   2.377   8.511  0.00  0.00    +0.000 A 
ATOM     30  N   UNL     1      45.336   3.453   8.154  0.00  0.00    +0.000 N 
ATOM     31  C   UNL     1      45.587   4.507   8.999  0.00  0.00    +0.000 A 
ATOM     32  O   UNL     1      46.252   5.471   8.634  0.00  0.00    +0.000 OA
ATOM     33  C   UNL     1      44.993   4.378  10.316  0.00  0.00    +0.000 A 
ATOM     34  H   UNL     1      45.738   3.519   7.230  0.00  0.00    +0.000 HD
ENDBRANCH  21  24
ENDBRANCH  19  20
ENDBRANCH   4  19
TORSDOF 8
ENDMDL
MODEL 4
REMARK VINA RESULT:    -6.977      3.373      8.413
REMARK INTER + INTRA:         -11.394
REMARK INTER:                  -9.846
REMARK INTRA:                  -1.548
REMARK UNBOUND:                -1.154
REMARK  Name = 
REMARK  9 active torsions:
REMARK  status: ('A' for Active; 'I' for Inactive)
REMARK    1  A    between atoms: C_1  and  O_2
REMARK    2  A    between atoms: O_2  and  C_3
REMARK    3  A    between atoms: C_8  and  C_9
REMARK    4  A    between atoms: C_9  and  N_10
REMARK    5  A    between atoms: N_10  and  C_11
REMARK    6  A    between atoms: C_11  and  C_12
REMARK    7  A    between atoms: C_15  and  C_16
REMARK    8  A    between atoms: C_16  and  N_17
REMARK    9  A    between atoms: C_18  and  C_20
REMARK                            x       y       z     vdW  Elec       q    Type
REMARK                         _______ _______ _______ _____ _____    ______ ____
ROOT
ATOM      1  C   UNL     1      50.572   7.215  15.473  0.00  0.00    +0.000 A 
ATOM      2  C   UNL     1      51.115   8.017  14.457  0.00  0.00    +0.000 A 
ATOM      3  C   UNL     1      50.362   8.346  13.324  0.00  0.00    +0.000 A 
ATOM      4  C   UNL     1      49.053   7.877  13.177  0.00  0.00    +0.000 A 
ATOM      5  C   UNL     1      48.527   7.032  14.165  0.00  0.00    +0.000 A 
ATOM      6  C   UNL     1      49.275   6.711  15.303  0.00  0.00    +0.000 A 
ENDROOT
BRANCH   1   7
ATOM      7  C   UNL     1      51.367   6.913  16.729  0.00  0.00    +0.000 C 
BRANCH   7   8
ATOM      8  N   UNL     1      51.574   5.476  16.879  0.00  0.00    +0.000 NA
ATOM      9  H   UNL     1      51.122   4.978  16.111  0.00  0.00    +0.000 HD
BRANCH   8  10
ATOM     10  C   UNL     1      50.991   4.948  18.121  0.00  0.00    +0.000 C 
BRANCH  10  16
ATOM     11  C   UNL     1      49.437   3.179  17.116  0.00  0.00    +0.000 A 
ATOM     12  C   UNL     1      48.130   2.732  16.903  0.00  0.00    +0.000 A 
ATOM     13  C   UNL     1      47.055   3.462  17.404  0.00  0.00    +0.000 A 
ATOM     14  C   UNL     1      47.320   4.614  18.119  0.00  0.00    +0.000 A 
ATOM     15  N   UNL     1      48.563   5.074  18.365  0.00  0.00    +0.000 NA
ATOM     16  C   UNL     1      49.614   4.358  17.857  0.00  0.00    +0.000 A 
BRANCH  11  18
ATOM     17  C   UNL     1      50.987   1.422  17.474  0.00  0.00    +0.000 C 
ATOM     18  O   UNL     1      50.553   2.519  16.677  0.00  0.00    +0.000 OA
ENDBRANCH  11  18
ENDBRANCH  10  16
ENDBRANCH   8  10
ENDBRANCH   7   8
ENDBRANCH   1   7
BRANCH   4  19
ATOM     19  C   UNL     1      48.232   8.245  11.969  0.00  0.00    +0.000 C 
BRANCH  19  20
ATOM     20  N   UNL     1      47.555   7.094  11.430  0.00  0.00    +0.000 N 
ATOM     21  C   UNL     1      46.187   7.040  11.361  0.00  0.00    +0.000 C 
ATOM     22  O   UNL     1      45.482   7.983  11.706  0.00  0.00    +0.000 OA
ATOM     23  H   UNL     1      48.098   6.239  11.348  0.00  0.00    +0.000 HD
BRANCH  21  24
ATOM     24  C   UNL     1      45.604   5.815  10.797  0.00  0.00    +0.000 A 
ATOM     25  C   UNL     1      45.766   5.538   9.446  0.00  0.00    +0.000 A 
ATOM     26  S   UNL     1      45.078   4.055   8.965  0.00  0.00    +0.000 S 
ATOM     27  C   UNL     1      44.494   3.753  10.533  0.00  0.00    +0.000 A 
ATOM     28  N   UNL     1      43.777   2.630  10.808  0.00  0.00    +0.000 NA
ATOM     29  C   UNL     1      43.371   2.542  12.030  0.00  0.00    +0.000 A 
ATOM     30  N   UNL     1      43.620   3.475  13.003  0.00  0.00    +0.000 N 
ATOM     31  C   UNL     1      44.359   4.611  12.779  0.00  0.00    +0.000 A 
ATOM     32  O   UNL     1      44.593   5.407  13.683  0.00  0.00    +0.000 OA
ATOM     33  C   UNL     1      44.833   4.763  11.417  0.00  0.00    +0.000 A 
ATOM     34  H   UNL     1      43.278   3.345  13.945  0.00  0.00    +0.000 HD
ENDBRANCH  21  24
ENDBRANCH  19  20
ENDBRANCH   4  19
TORSDOF 8
ENDMDL
MODEL 5
REMARK VINA RESULT:    -6.865      2.715      8.864
REMARK INTER + INTRA:         -11.229
REMARK INTER:                  -9.678
REMARK INTRA:                  -1.551
REMARK UNBOUND:                -1.154
REMARK  Name = 
REMARK  9 active torsions:
REMARK  status: ('A' for Active; 'I' for Inactive)
REMARK    1  A    between atoms: C_1  and  O_2
REMARK    2  A    between atoms: O_2  and  C_3
REMARK    3  A    between atoms: C_8  and  C_9
REMARK    4  A    between atoms: C_9  and  N_10
REMARK    5  A    between atoms: N_10  and  C_11
REMARK    6  A    between atoms: C_11  and  C_12
REMARK    7  A    between atoms: C_15  and  C_16
REMARK    8  A    between atoms: C_16  and  N_17
REMARK    9  A    between atoms: C_18  and  C_20
REMARK                            x       y       z     vdW  Elec       q    Type
REMARK                         _______ _______ _______ _____ _____    ______ ____
ROOT
ATOM      1  C   UNL     1      48.995   7.764  16.656  0.00  0.00    +0.000 A 
ATOM      2  C   UNL     1      48.405   8.896  16.075  0.00  0.00    +0.000 A 
ATOM      3  C   UNL     1      47.978   8.878  14.742  0.00  0.00    +0.000 A 
ATOM      4  C   UNL     1      48.137   7.731  13.958  0.00  0.00    +0.000 A 
ATOM      5  C   UNL     1      48.774   6.616  14.520  0.00  0.00    +0.000 A 
ATOM      6  C   UNL     1      49.193   6.630  15.856  0.00  0.00    +0.000 A 
ENDROOT
BRANCH   1   7
ATOM      7  C   UNL     1      49.399   7.765  18.118  0.00  0.00    +0.000 C 
BRANCH   7   8
ATOM      8  N   UNL     1      48.659   6.750  18.862  0.00  0.00    +0.000 NA
ATOM      9  H   UNL     1      48.017   7.199  19.517  0.00  0.00    +0.000 HD
BRANCH   8  10
ATOM     10  C   UNL     1      49.537   5.885  19.664  0.00  0.00    +0.000 C 
BRANCH  10  16
ATOM     11  C   UNL     1      49.182   3.841  18.166  0.00  0.00    +0.000 A 
ATOM     12  C   UNL     1      49.749   2.785  17.447  0.00  0.00    +0.000 A 
ATOM     13  C   UNL     1      51.131   2.621  17.424  0.00  0.00    +0.000 A 
ATOM     14  C   UNL     1      51.911   3.532  18.111  0.00  0.00    +0.000 A 
ATOM     15  N   UNL     1      51.411   4.576  18.802  0.00  0.00    +0.000 NA
ATOM     16  C   UNL     1      50.050   4.721  18.830  0.00  0.00    +0.000 A 
BRANCH  11  18
ATOM     17  C   UNL     1      47.093   3.820  17.045  0.00  0.00    +0.000 C 
ATOM     18  O   UNL     1      47.837   4.089  18.229  0.00  0.00    +0.000 OA
ENDBRANCH  11  18
ENDBRANCH  10  16
ENDBRANCH   8  10
ENDBRANCH   7   8
ENDBRANCH   1   7
BRANCH   4  19
ATOM     19  C   UNL     1      47.661   7.701  12.529  0.00  0.00    +0.000 C 
BRANCH  19  20
ATOM     20  N   UNL     1      46.956   6.478  12.242  0.00  0.00    +0.000 N 
ATOM     21  C   UNL     1      45.625   6.484  11.914  0.00  0.00    +0.000 C 
ATOM     22  O   UNL     1      44.988   7.527  11.802  0.00  0.00    +0.000 OA
ATOM     23  H   UNL     1      47.399   5.613  12.539  0.00  0.00    +0.000 HD
BRANCH  21  24
ATOM     24  C   UNL     1      45.008   5.178  11.645  0.00  0.00    +0.000 A 
ATOM     25  C   UNL     1      44.327   4.519  12.660  0.00  0.00    +0.000 A 
ATOM     26  S   UNL     1      43.624   3.046  12.168  0.00  0.00    +0.000 S 
ATOM     27  C   UNL     1      44.249   3.210  10.595  0.00  0.00    +0.000 A 
ATOM     28  N   UNL     1      44.029   2.253   9.653  0.00  0.00    +0.000 NA
ATOM     29  C   UNL     1      44.584   2.489   8.512  0.00  0.00    +0.000 A 
ATOM     30  N   UNL     1      45.338   3.599   8.227  0.00  0.00    +0.000 N 
ATOM     31  C   UNL     1      45.567   4.602   9.138  0.00  0.00    +0.000 A 
ATOM     32  O   UNL     1      46.216   5.598   8.837  0.00  0.00    +0.000 OA
ATOM     33  C   UNL     1      44.970   4.381  10.441  0.00  0.00    +0.000 A 
ATOM     34  H   UNL     1      45.742   3.729   7.311  0.00  0.00    +0.000 HD
ENDBRANCH  21  24
ENDBRANCH  19  20
ENDBRANCH   4  19
TORSDOF 8
ENDMDL
MODEL 6
REMARK VINA RESULT:    -6.842      3.355      4.994
REMARK INTER + INTRA:         -11.196
REMARK INTER:                  -9.652
REMARK INTRA:                  -1.544
REMARK UNBOUND:                -1.154
REMARK  Name = 
REMARK  9 active torsions:
REMARK  status: ('A' for Active; 'I' for Inactive)
REMARK    1  A    between atoms: C_1  and  O_2
REMARK    2  A    between atoms: O_2  and  C_3
REMARK    3  A    between atoms: C_8  and  C_9
REMARK    4  A    between atoms: C_9  and  N_10
REMARK    5  A    between atoms: N_10  and  C_11
REMARK    6  A    between atoms: C_11  and  C_12
REMARK    7  A    between atoms: C_15  and  C_16
REMARK    8  A    between atoms: C_16  and  N_17
REMARK    9  A    between atoms: C_18  and  C_20
REMARK                            x       y       z     vdW  Elec       q    Type
REMARK                         _______ _______ _______ _____ _____    ______ ____
ROOT
ATOM      1  C   UNL     1      47.355   5.714  13.708  0.00  0.00    +0.000 A 
ATOM      2  C   UNL     1      46.904   4.385  13.675  0.00  0.00    +0.000 A 
ATOM      3  C   UNL     1      47.030   3.557  14.796  0.00  0.00    +0.000 A 
ATOM      4  C   UNL     1      47.614   4.035  15.973  0.00  0.00    +0.000 A 
ATOM      5  C   UNL     1      48.114   5.345  15.992  0.00  0.00    +0.000 A 
ATOM      6  C   UNL     1      47.980   6.177  14.874  0.00  0.00    +0.000 A 
ENDROOT
BRANCH   1   7
ATOM      7  C   UNL     1      47.161   6.627  12.513  0.00  0.00    +0.000 C 
BRANCH   7   8
ATOM      8  N   UNL     1      45.780   7.093  12.435  0.00  0.00    +0.000 NA
ATOM      9  H   UNL     1      45.166   6.443  12.928  0.00  0.00    +0.000 HD
BRANCH   8  10
ATOM     10  C   UNL     1      45.285   7.168  11.052  0.00  0.00    +0.000 C 
BRANCH  10  16
ATOM     11  C   UNL     1      44.176   4.864  11.172  0.00  0.00    +0.000 A 
ATOM     12  C   UNL     1      44.009   3.598  10.605  0.00  0.00    +0.000 A 
ATOM     13  C   UNL     1      44.675   3.269   9.427  0.00  0.00    +0.000 A 
ATOM     14  C   UNL     1      45.481   4.226   8.840  0.00  0.00    +0.000 A 
ATOM     15  N   UNL     1      45.658   5.465   9.340  0.00  0.00    +0.000 NA
ATOM     16  C   UNL     1      45.011   5.775  10.506  0.00  0.00    +0.000 A 
BRANCH  11  18
ATOM     17  C   UNL     1      43.230   4.262  13.260  0.00  0.00    +0.000 C 
ATOM     18  O   UNL     1      43.550   5.279  12.316  0.00  0.00    +0.000 OA
ENDBRANCH  11  18
ENDBRANCH  10  16
ENDBRANCH   8  10
ENDBRANCH   7   8
ENDBRANCH   1   7
BRANCH   4  19
ATOM     19  C   UNL     1      47.733   3.153  17.189  0.00  0.00    +0.000 C 
BRANCH  19  20
ATOM     20  N   UNL     1      49.107   3.019  17.601  0.00  0.00    +0.000 N 
ATOM     21  C   UNL     1      49.979   2.210  16.920  0.00  0.00    +0.000 C 
ATOM     22  O   UNL     1      49.646   1.606  15.904  0.00  0.00    +0.000 OA
ATOM     23  H   UNL     1      49.335   3.327  18.542  0.00  0.00    +0.000 HD
BRANCH  21  24
ATOM     24  C   UNL     1      51.354   2.146  17.432  0.00  0.00    +0.000 A 
ATOM     25  C   UNL     1      51.957   0.910  17.624  0.00  0.00    +0.000 A 
ATOM     26  S   UNL     1      53.569   1.013  18.169  0.00  0.00    +0.000 S 
ATOM     27  C   UNL     1      53.502   2.711  18.219  0.00  0.00    +0.000 A 
ATOM     28  N   UNL     1      54.574   3.440  18.633  0.00  0.00    +0.000 NA
ATOM     29  C   UNL     1      54.376   4.716  18.650  0.00  0.00    +0.000 A 
ATOM     30  N   UNL     1      53.204   5.329  18.288  0.00  0.00    +0.000 N 
ATOM     31  C   UNL     1      52.105   4.636  17.840  0.00  0.00    +0.000 A 
ATOM     32  O   UNL     1      51.085   5.219  17.489  0.00  0.00    +0.000 OA
ATOM     33  C   UNL     1      52.272   3.195  17.809  0.00  0.00    +0.000 A 
ATOM     34  H   UNL     1      53.114   6.334  18.318  0.00  0.00    +0.000 HD
ENDBRANCH  21  24
ENDBRANCH  19  20
ENDBRANCH   4  19
TORSDOF 8
ENDMDL
MODEL 7
REMARK VINA RESULT:    -6.736      3.446      8.618
REMARK INTER + INTRA:         -11.041
REMARK INTER:                  -9.858
REMARK INTRA:                  -1.183
REMARK UNBOUND:                -1.154
REMARK  Name = 
REMARK  9 active torsions:
REMARK  status: ('A' for Active; 'I' for Inactive)
REMARK    1  A    between atoms: C_1  and  O_2
REMARK    2  A    between atoms: O_2  and  C_3
REMARK    3  A    between atoms: C_8  and  C_9
REMARK    4  A    between atoms: C_9  and  N_10
REMARK    5  A    between atoms: N_10  and  C_11
REMARK    6  A    between atoms: C_11  and  C_12
REMARK    7  A    between atoms: C_15  and  C_16
REMARK    8  A    between atoms: C_16  and  N_17
REMARK    9  A    between atoms: C_18  and  C_20
REMARK                            x       y       z     vdW  Elec       q    Type
REMARK                         _______ _______ _______ _____ _____    ______ ____
ROOT
ATOM      1  C   UNL     1      49.816   7.023  15.982  0.00  0.00    +0.000 A 
ATOM      2  C   UNL     1      50.659   7.702  15.089  0.00  0.00    +0.000 A 
ATOM      3  C   UNL     1      50.239   7.995  13.786  0.00  0.00    +0.000 A 
ATOM      4  C   UNL     1      48.968   7.611  13.345  0.00  0.00    +0.000 A 
ATOM      5  C   UNL     1      48.144   6.886  14.216  0.00  0.00    +0.000 A 
ATOM      6  C   UNL     1      48.560   6.602  15.523  0.00  0.00    +0.000 A 
ENDROOT
BRANCH   1   7
ATOM      7  C   UNL     1      50.250   6.763  17.411  0.00  0.00    +0.000 C 
BRANCH   7   8
ATOM      8  N   UNL     1      51.467   5.958  17.447  0.00  0.00    +0.000 NA
ATOM      9  H   UNL     1      51.509   5.358  16.622  0.00  0.00    +0.000 HD
BRANCH   8  10
ATOM     10  C   UNL     1      51.522   5.068  18.616  0.00  0.00    +0.000 C 
BRANCH  10  16
ATOM     11  C   UNL     1      50.709   2.928  17.470  0.00  0.00    +0.000 A 
ATOM     12  C   UNL     1      50.957   1.593  17.138  0.00  0.00    +0.000 A 
ATOM     13  C   UNL     1      52.149   0.989  17.528  0.00  0.00    +0.000 A 
ATOM     14  C   UNL     1      53.070   1.745  18.229  0.00  0.00    +0.000 A 
ATOM     15  N   UNL     1      52.883   3.039  18.555  0.00  0.00    +0.000 NA
ATOM     16  C   UNL     1      51.702   3.622  18.179  0.00  0.00    +0.000 A 
BRANCH  11  18
ATOM     17  C   UNL     1      48.446   2.808  16.774  0.00  0.00    +0.000 C 
ATOM     18  O   UNL     1      49.575   3.607  17.114  0.00  0.00    +0.000 OA
ENDBRANCH  11  18
ENDBRANCH  10  16
ENDBRANCH   8  10
ENDBRANCH   7   8
ENDBRANCH   1   7
BRANCH   4  19
ATOM     19  C   UNL     1      48.504   7.942  11.950  0.00  0.00    +0.000 C 
BRANCH  19  20
ATOM     20  N   UNL     1      47.747   6.855  11.383  0.00  0.00    +0.000 N 
ATOM     21  C   UNL     1      46.377   6.880  11.357  0.00  0.00    +0.000 C 
ATOM     22  O   UNL     1      45.736   7.844  11.767  0.00  0.00    +0.000 OA
ATOM     23  H   UNL     1      48.238   5.977  11.246  0.00  0.00    +0.000 HD
BRANCH  21  24
ATOM     24  C   UNL     1      45.709   5.717  10.758  0.00  0.00    +0.000 A 
ATOM     25  C   UNL     1      45.809   5.497   9.391  0.00  0.00    +0.000 A 
ATOM     26  S   UNL     1      45.026   4.077   8.867  0.00  0.00    +0.000 S 
ATOM     27  C   UNL     1      44.479   3.732  10.440  0.00  0.00    +0.000 A 
ATOM     28  N   UNL     1      43.712   2.636  10.688  0.00  0.00    +0.000 NA
ATOM     29  C   UNL     1      43.343   2.510  11.918  0.00  0.00    +0.000 A 
ATOM     30  N   UNL     1      43.675   3.380  12.924  0.00  0.00    +0.000 N 
ATOM     31  C   UNL     1      44.468   4.486  12.727  0.00  0.00    +0.000 A 
ATOM     32  O   UNL     1      44.775   5.223  13.657  0.00  0.00    +0.000 OA
ATOM     33  C   UNL     1      44.903   4.678  11.356  0.00  0.00    +0.000 A 
ATOM     34  H   UNL     1      43.359   3.224  13.871  0.00  0.00    +0.000 HD
ENDBRANCH  21  24
ENDBRANCH  19  20
ENDBRANCH   4  19
TORSDOF 8
ENDMDL
MODEL 8
REMARK VINA RESULT:    -6.555      3.531      8.193
REMARK INTER + INTRA:         -10.774
REMARK INTER:                  -8.637
REMARK INTRA:                  -2.138
REMARK UNBOUND:                -1.154
REMARK  Name = 
REMARK  9 active torsions:
REMARK  status: ('A' for Active; 'I' for Inactive)
REMARK    1  A    between atoms: C_1  and  O_2
REMARK    2  A    between atoms: O_2  and  C_3
REMARK    3  A    between atoms: C_8  and  C_9
REMARK    4  A    between atoms: C_9  and  N_10
REMARK    5  A    between atoms: N_10  and  C_11
REMARK    6  A    between atoms: C_11  and  C_12
REMARK    7  A    between atoms: C_15  and  C_16
REMARK    8  A    between atoms: C_16  and  N_17
REMARK    9  A    between atoms: C_18  and  C_20
REMARK                            x       y       z     vdW  Elec       q    Type
REMARK                         _______ _______ _______ _____ _____    ______ ____
ROOT
ATOM      1  C   UNL     1      50.970   7.285  17.458  0.00  0.00    +0.000 A 
ATOM      2  C   UNL     1      50.922   6.912  16.106  0.00  0.00    +0.000 A 
ATOM      3  C   UNL     1      50.042   7.541  15.218  0.00  0.00    +0.000 A 
ATOM      4  C   UNL     1      49.185   8.553  15.662  0.00  0.00    +0.000 A 
ATOM      5  C   UNL     1      49.192   8.891  17.022  0.00  0.00    +0.000 A 
ATOM      6  C   UNL     1      50.080   8.269  17.909  0.00  0.00    +0.000 A 
ENDROOT
BRANCH   1   7
ATOM      7  C   UNL     1      51.969   6.646  18.403  0.00  0.00    +0.000 C 
BRANCH   7   8
ATOM      8  N   UNL     1      51.868   5.191  18.359  0.00  0.00    +0.000 NA
ATOM      9  H   UNL     1      51.620   4.888  17.416  0.00  0.00    +0.000 HD
BRANCH   8  10
ATOM     10  C   UNL     1      50.824   4.670  19.254  0.00  0.00    +0.000 C 
BRANCH  10  16
ATOM     11  C   UNL     1      49.620   3.442  17.359  0.00  0.00    +0.000 A 
ATOM     12  C   UNL     1      48.423   3.190  16.681  0.00  0.00    +0.000 A 
ATOM     13  C   UNL     1      47.245   3.803  17.097  0.00  0.00    +0.000 A 
ATOM     14  C   UNL     1      47.294   4.642  18.194  0.00  0.00    +0.000 A 
ATOM     15  N   UNL     1      48.419   4.901  18.890  0.00  0.00    +0.000 NA
ATOM     16  C   UNL     1      49.576   4.304  18.465  0.00  0.00    +0.000 A 
BRANCH  11  18
ATOM     17  C   UNL     1      50.968   1.493  17.355  0.00  0.00    +0.000 C 
ATOM     18  O   UNL     1      50.820   2.872  17.031  0.00  0.00    +0.000 OA
ENDBRANCH  11  18
ENDBRANCH  10  16
ENDBRANCH   8  10
ENDBRANCH   7   8
ENDBRANCH   1   7
BRANCH   4  19
ATOM     19  C   UNL     1      48.250   9.246  14.706  0.00  0.00    +0.000 C 
BRANCH  19  20
ATOM     20  N   UNL     1      47.263   8.333  14.190  0.00  0.00    +0.000 N 
ATOM     21  C   UNL     1      47.071   8.181  12.842  0.00  0.00    +0.000 C 
ATOM     22  O   UNL     1      47.759   8.773  12.016  0.00  0.00    +0.000 OA
ATOM     23  H   UNL     1      46.552   8.010  14.840  0.00  0.00    +0.000 HD
BRANCH  21  24
ATOM     24  C   UNL     1      46.034   7.226  12.429  0.00  0.00    +0.000 A 
ATOM     25  C   UNL     1      44.920   7.679  11.736  0.00  0.00    +0.000 A 
ATOM     26  S   UNL     1      43.843   6.438  11.283  0.00  0.00    +0.000 S 
ATOM     27  C   UNL     1      44.800   5.255  12.042  0.00  0.00    +0.000 A 
ATOM     28  N   UNL     1      44.423   3.948  12.045  0.00  0.00    +0.000 NA
ATOM     29  C   UNL     1      45.226   3.162  12.681  0.00  0.00    +0.000 A 
ATOM     30  N   UNL     1      46.375   3.566  13.312  0.00  0.00    +0.000 N 
ATOM     31  C   UNL     1      46.808   4.870  13.314  0.00  0.00    +0.000 A 
ATOM     32  O   UNL     1      47.860   5.190  13.858  0.00  0.00    +0.000 OA
ATOM     33  C   UNL     1      45.935   5.797  12.618  0.00  0.00    +0.000 A 
ATOM     34  H   UNL     1      46.965   2.901  13.789  0.00  0.00    +0.000 HD
ENDBRANCH  21  24
ENDBRANCH  19  20
ENDBRANCH   4  19
TORSDOF 8
ENDMDL
MODEL 9
REMARK VINA RESULT:    -6.408      2.733      9.239
REMARK INTER + INTRA:         -10.559
REMARK INTER:                  -9.189
REMARK INTRA:                  -1.370
REMARK UNBOUND:                -1.154
REMARK  Name = 
REMARK  9 active torsions:
REMARK  status: ('A' for Active; 'I' for Inactive)
REMARK    1  A    between atoms: C_1  and  O_2
REMARK    2  A    between atoms: O_2  and  C_3
REMARK    3  A    between atoms: C_8  and  C_9
REMARK    4  A    between atoms: C_9  and  N_10
REMARK    5  A    between atoms: N_10  and  C_11
REMARK    6  A    between atoms: C_11  and  C_12
REMARK    7  A    between atoms: C_15  and  C_16
REMARK    8  A    between atoms: C_16  and  N_17
REMARK    9  A    between atoms: C_18  and  C_20
REMARK                            x       y       z     vdW  Elec       q    Type
REMARK                         _______ _______ _______ _____ _____    ______ ____
ROOT
ATOM      1  C   UNL     1      50.584   7.355  15.488  0.00  0.00    +0.000 A 
ATOM      2  C   UNL     1      50.958   7.993  14.296  0.00  0.00    +0.000 A 
ATOM      3  C   UNL     1      50.061   8.099  13.227  0.00  0.00    +0.000 A 
ATOM      4  C   UNL     1      48.772   7.565  13.323  0.00  0.00    +0.000 A 
ATOM      5  C   UNL     1      48.413   6.880  14.493  0.00  0.00    +0.000 A 
ATOM      6  C   UNL     1      49.307   6.782  15.566  0.00  0.00    +0.000 A 
ENDROOT
BRANCH   1   7
ATOM      7  C   UNL     1      51.537   7.297  16.667  0.00  0.00    +0.000 C 
BRANCH   7   8
ATOM      8  N   UNL     1      51.714   5.923  17.125  0.00  0.00    +0.000 NA
ATOM      9  H   UNL     1      51.061   5.308  16.638  0.00  0.00    +0.000 HD
BRANCH   8  10
ATOM     10  C   UNL     1      51.444   5.766  18.562  0.00  0.00    +0.000 C 
BRANCH  10  16
ATOM     11  C   UNL     1      49.065   4.844  18.354  0.00  0.00    +0.000 A 
ATOM     12  C   UNL     1      47.704   4.999  18.633  0.00  0.00    +0.000 A 
ATOM     13  C   UNL     1      47.263   6.108  19.349  0.00  0.00    +0.000 A 
ATOM     14  C   UNL     1      48.202   7.026  19.782  0.00  0.00    +0.000 A 
ATOM     15  N   UNL     1      49.525   6.909  19.552  0.00  0.00    +0.000 NA
ATOM     16  C   UNL     1      49.948   5.822  18.835  0.00  0.00    +0.000 A 
BRANCH  11  18
ATOM     17  C   UNL     1      48.653   2.941  17.002  0.00  0.00    +0.000 C 
ATOM     18  O   UNL     1      49.589   3.779  17.672  0.00  0.00    +0.000 OA
ENDBRANCH  11  18
ENDBRANCH  10  16
ENDBRANCH   8  10
ENDBRANCH   7   8
ENDBRANCH   1   7
BRANCH   4  19
ATOM     19  C   UNL     1      47.796   7.694  12.183  0.00  0.00    +0.000 C 
BRANCH  19  20
ATOM     20  N   UNL     1      47.058   6.473  11.989  0.00  0.00    +0.000 N 
ATOM     21  C   UNL     1      45.736   6.490  11.629  0.00  0.00    +0.000 C 
ATOM     22  O   UNL     1      45.136   7.538  11.407  0.00  0.00    +0.000 OA
ATOM     23  H   UNL     1      47.465   5.625  12.374  0.00  0.00    +0.000 HD
BRANCH  21  24
ATOM     24  C   UNL     1      45.082   5.185  11.463  0.00  0.00    +0.000 A 
ATOM     25  C   UNL     1      44.410   4.614  12.536  0.00  0.00    +0.000 A 
ATOM     26  S   UNL     1      43.661   3.129  12.162  0.00  0.00    +0.000 S 
ATOM     27  C   UNL     1      44.252   3.169  10.568  0.00  0.00    +0.000 A 
ATOM     28  N   UNL     1      43.987   2.157   9.698  0.00  0.00    +0.000 NA
ATOM     29  C   UNL     1      44.521   2.301   8.532  0.00  0.00    +0.000 A 
ATOM     30  N   UNL     1      45.294   3.369   8.155  0.00  0.00    +0.000 N 
ATOM     31  C   UNL     1      45.568   4.426   8.990  0.00  0.00    +0.000 A 
ATOM     32  O   UNL     1      46.233   5.383   8.608  0.00  0.00    +0.000 OA
ATOM     33  C   UNL     1      44.997   4.309  10.318  0.00  0.00    +0.000 A 
ATOM     34  H   UNL     1      45.680   3.427   7.224  0.00  0.00    +0.000 HD
ENDBRANCH  21  24
ENDBRANCH  19  20
ENDBRANCH   4  19
TORSDOF 8
ENDMDL
