MODEL 1
REMARK VINA RESULT:    -8.255      0.000      0.000
REMARK INTER + INTRA:         -13.707
REMARK INTER:                 -12.357
REMARK INTRA:                  -1.350
REMARK UNBOUND:                -1.350
REMARK  Name = 
REMARK  10 active torsions:
REMARK  status: ('A' for Active; 'I' for Inactive)
REMARK    1  A    between atoms: C_1  and  C_2
REMARK    2  A    between atoms: C_2  and  C_3
REMARK    3  A    between atoms: C_6  and  C_7
REMARK    4  A    between atoms: N_9  and  C_10
REMARK    5  A    between atoms: C_10  and  C_11
REMARK    6  A    between atoms: C_14  and  C_15
REMARK    7  A    between atoms: C_15  and  N_16
REMARK    8  A    between atoms: N_16  and  C_17
REMARK    9  A    between atoms: C_17  and  C_18
REMARK   10  A    between atoms: C_30  and  O_31
REMARK                            x       y       z     vdW  Elec       q    Type
REMARK                         _______ _______ _______ _____ _____    ______ ____
ROOT
ATOM      1  C   UNL     1      48.999   7.689  15.031  0.00  0.00    +0.000 C 
ATOM      2  O   UNL     1      50.000   7.754  14.328  0.00  0.00    +0.000 OA
ATOM      3  N   UNL     1      47.727   7.730  14.514  0.00  0.00    +0.000 N 
ATOM      4  H   UNL     1      46.959   7.959  15.130  0.00  0.00    +0.000 HD
ENDROOT
BRANCH   1   8
ATOM      5  C   UNL     1      48.291   4.212  18.123  0.00  0.00    +0.000 A 
ATOM      6  C   UNL     1      48.407   5.127  17.071  0.00  0.00    +0.000 A 
ATOM      7  C   UNL     1      48.807   6.458  17.339  0.00  0.00    +0.000 A 
ATOM      8  C   UNL     1      49.078   7.603  16.491  0.00  0.00    +0.000 A 
ATOM      9  C   UNL     1      49.522   8.680  17.241  0.00  0.00    +0.000 A 
ATOM     10  S   UNL     1      49.567   8.361  18.915  0.00  0.00    +0.000 S 
ATOM     11  C   UNL     1      49.053   6.757  18.679  0.00  0.00    +0.000 A 
ATOM     12  N   UNL     1      48.939   5.921  19.732  0.00  0.00    +0.000 NA
ATOM     13  C   UNL     1      48.573   4.677  19.395  0.00  0.00    +0.000 A 
BRANCH   5  15
ATOM     14  C   UNL     1      48.533   2.323  16.506  0.00  0.00    +0.000 C 
ATOM     15  C   UNL     1      47.953   2.774  17.840  0.00  0.00    +0.000 C 
ENDBRANCH   5  15
BRANCH  13  16
ATOM     16  O   UNL     1      48.521   3.837  20.462  0.00  0.00    +0.000 OA
ATOM     17  H   UNL     1      48.317   2.997  20.009  0.00  0.00    +0.000 HD
ENDBRANCH  13  16
ENDBRANCH   1   8
BRANCH   3  18
ATOM     18  C   UNL     1      47.503   7.826  13.091  0.00  0.00    +0.000 C 
BRANCH  18  19
ATOM     19  C   UNL     1      46.676   6.661  12.615  0.00  0.00    +0.000 A 
ATOM     20  C   UNL     1      46.108   6.675  11.335  0.00  0.00    +0.000 A 
ATOM     21  C   UNL     1      45.277   5.633  10.916  0.00  0.00    +0.000 A 
ATOM     22  C   UNL     1      44.994   4.555  11.768  0.00  0.00    +0.000 A 
ATOM     23  C   UNL     1      45.570   4.538  13.045  0.00  0.00    +0.000 A 
ATOM     24  C   UNL     1      46.401   5.581  13.465  0.00  0.00    +0.000 A 
BRANCH  22  25
ATOM     25  C   UNL     1      44.073   3.443  11.314  0.00  0.00    +0.000 C 
BRANCH  25  26
ATOM     26  N   UNL     1      44.823   2.397  10.629  0.00  0.00    +0.000 NA
ATOM     27  H   UNL     1      44.702   1.514  11.125  0.00  0.00    +0.000 HD
BRANCH  26  28
ATOM     28  C   UNL     1      44.396   2.225   9.242  0.00  0.00    +0.000 C 
BRANCH  28  29
ATOM     29  C   UNL     1      45.582   2.344   8.312  0.00  0.00    +0.000 A 
ATOM     30  C   UNL     1      45.917   3.567   7.717  0.00  0.00    +0.000 A 
ATOM     31  C   UNL     1      46.992   3.650   6.826  0.00  0.00    +0.000 A 
ATOM     32  C   UNL     1      47.743   2.514   6.528  0.00  0.00    +0.000 A 
ATOM     33  C   UNL     1      47.431   1.297   7.127  0.00  0.00    +0.000 A 
ATOM     34  C   UNL     1      46.362   1.213   8.018  0.00  0.00    +0.000 A 
ENDBRANCH  28  29
ENDBRANCH  26  28
ENDBRANCH  25  26
ENDBRANCH  22  25
ENDBRANCH  18  19
ENDBRANCH   3  18
TORSDOF 9
ENDMDL
MODEL 2
REMARK VINA RESULT:    -7.864      1.609      1.889
REMARK INTER + INTRA:         -13.122
REMARK INTER:                 -11.955
REMARK INTRA:                  -1.167
REMARK UNBOUND:                -1.350
REMARK  Name = 
REMARK  10 active torsions:
REMARK  status: ('A' for Active; 'I' for Inactive)
REMARK    1  A    between atoms: C_1  and  C_2
REMARK    2  A    between atoms: C_2  and  C_3
REMARK    3  A    between atoms: C_6  and  C_7
REMARK    4  A    between atoms: N_9  and  C_10
REMARK    5  A    between atoms: C_10  and  C_11
REMARK    6  A    between atoms: C_14  and  C_15
REMARK    7  A    between atoms: C_15  and  N_16
REMARK    8  A    between atoms: N_16  and  C_17
REMARK    9  A    between atoms: C_17  and  C_18
REMARK   10  A    between atoms: C_30  and  O_31
REMARK                            x       y       z     vdW  Elec       q    Type
REMARK                         _______ _______ _______ _____ _____    ______ ____
ROOT
ATOM      1  C   UNL     1      48.827   8.001  14.872  0.00  0.00    +0.000 C 
ATOM      2  O   UNL     1      48.124   8.878  15.359  0.00  0.00    +0.000 OA
ATOM      3  N   UNL     1      48.543   7.409  13.665  0.00  0.00    +0.000 N 
ATOM      4  H   UNL     1      48.971   6.519  13.447  0.00  0.00    +0.000 HD
ENDROOT
BRANCH   1   8
ATOM      5  C   UNL     1      49.622   4.225  17.566  0.00  0.00    +0.000 A 
ATOM      6  C   UNL     1      49.190   5.310  16.796  0.00  0.00    +0.000 A 
ATOM      7  C   UNL     1      50.119   6.299  16.392  0.00  0.00    +0.000 A 
ATOM      8  C   UNL     1      50.011   7.481  15.559  0.00  0.00    +0.000 A 
ATOM      9  C   UNL     1      51.246   8.089  15.401  0.00  0.00    +0.000 A 
ATOM     10  S   UNL     1      52.495   7.310  16.261  0.00  0.00    +0.000 S 
ATOM     11  C   UNL     1      51.433   6.104  16.819  0.00  0.00    +0.000 A 
ATOM     12  N   UNL     1      51.899   5.089  17.576  0.00  0.00    +0.000 NA
ATOM     13  C   UNL     1      50.963   4.187  17.903  0.00  0.00    +0.000 A 
BRANCH   5  15
ATOM     14  C   UNL     1      47.268   3.410  17.389  0.00  0.00    +0.000 C 
ATOM     15  C   UNL     1      48.664   3.124  17.926  0.00  0.00    +0.000 C 
ENDBRANCH   5  15
BRANCH  13  16
ATOM     16  O   UNL     1      51.465   3.144  18.615  0.00  0.00    +0.000 OA
ATOM     17  H   UNL     1      51.578   3.569  19.486  0.00  0.00    +0.000 HD
ENDBRANCH  13  16
ENDBRANCH   1   8
BRANCH   3  18
ATOM     18  C   UNL     1      47.397   7.816  12.886  0.00  0.00    +0.000 C 
BRANCH  18  19
ATOM     19  C   UNL     1      46.582   6.613  12.491  0.00  0.00    +0.000 A 
ATOM     20  C   UNL     1      46.039   6.520  11.204  0.00  0.00    +0.000 A 
ATOM     21  C   UNL     1      45.220   5.444  10.856  0.00  0.00    +0.000 A 
ATOM     22  C   UNL     1      44.922   4.438  11.787  0.00  0.00    +0.000 A 
ATOM     23  C   UNL     1      45.473   4.528  13.072  0.00  0.00    +0.000 A 
ATOM     24  C   UNL     1      46.293   5.605  13.422  0.00  0.00    +0.000 A 
BRANCH  22  25
ATOM     25  C   UNL     1      44.013   3.288  11.408  0.00  0.00    +0.000 C 
BRANCH  25  26
ATOM     26  N   UNL     1      44.685   2.380  10.487  0.00  0.00    +0.000 NA
ATOM     27  H   UNL     1      44.447   1.418  10.728  0.00  0.00    +0.000 HD
BRANCH  26  28
ATOM     28  C   UNL     1      44.316   2.626   9.095  0.00  0.00    +0.000 C 
BRANCH  28  29
ATOM     29  C   UNL     1      45.515   2.436   8.195  0.00  0.00    +0.000 A 
ATOM     30  C   UNL     1      46.183   1.205   8.127  0.00  0.00    +0.000 A 
ATOM     31  C   UNL     1      47.316   1.059   7.321  0.00  0.00    +0.000 A 
ATOM     32  C   UNL     1      47.788   2.137   6.573  0.00  0.00    +0.000 A 
ATOM     33  C   UNL     1      47.123   3.359   6.619  0.00  0.00    +0.000 A 
ATOM     34  C   UNL     1      45.990   3.506   7.420  0.00  0.00    +0.000 A 
ENDBRANCH  28  29
ENDBRANCH  26  28
ENDBRANCH  25  26
ENDBRANCH  22  25
ENDBRANCH  18  19
ENDBRANCH   3  18
TORSDOF 9
ENDMDL
MODEL 3
REMARK VINA RESULT:    -7.812      1.984      3.143
REMARK INTER + INTRA:         -13.044
REMARK INTER:                 -12.054
REMARK INTRA:                  -0.990
REMARK UNBOUND:                -1.350
REMARK  Name = 
REMARK  10 active torsions:
REMARK  status: ('A' for Active; 'I' for Inactive)
REMARK    1  A    between atoms: C_1  and  C_2
REMARK    2  A    between atoms: C_2  and  C_3
REMARK    3  A    between atoms: C_6  and  C_7
REMARK    4  A    between atoms: N_9  and  C_10
REMARK    5  A    between atoms: C_10  and  C_11
REMARK    6  A    between atoms: C_14  and  C_15
REMARK    7  A    between atoms: C_15  and  N_16
REMARK    8  A    between atoms: N_16  and  C_17
REMARK    9  A    between atoms: C_17  and  C_18
REMARK   10  A    between atoms: C_30  and  O_31
REMARK                            x       y       z     vdW  Elec       q    Type
REMARK                         _______ _______ _______ _____ _____    ______ ____
ROOT
ATOM      1  C   UNL     1      49.167   6.470  16.263  0.00  0.00    +0.000 C 
ATOM      2  O   UNL     1      50.301   6.362  15.814  0.00  0.00    +0.000 OA
ATOM      3  N   UNL     1      48.086   6.786  15.477  0.00  0.00    +0.000 N 
ATOM      4  H   UNL     1      47.249   7.139  15.919  0.00  0.00    +0.000 HD
ENDROOT
BRANCH   1   8
ATOM      5  C   UNL     1      47.430   9.341  19.564  0.00  0.00    +0.000 A 
ATOM      6  C   UNL     1      47.975   8.654  18.473  0.00  0.00    +0.000 A 
ATOM      7  C   UNL     1      48.355   7.298  18.616  0.00  0.00    +0.000 A 
ATOM      8  C   UNL     1      48.876   6.311  17.690  0.00  0.00    +0.000 A 
ATOM      9  C   UNL     1      49.019   5.080  18.309  0.00  0.00    +0.000 A 
ATOM     10  S   UNL     1      48.600   5.105  19.961  0.00  0.00    +0.000 S 
ATOM     11  C   UNL     1      48.156   6.744  19.881  0.00  0.00    +0.000 A 
ATOM     12  N   UNL     1      47.654   7.364  20.969  0.00  0.00    +0.000 NA
ATOM     13  C   UNL     1      47.302   8.638  20.749  0.00  0.00    +0.000 A 
BRANCH   5  15
ATOM     14  C   UNL     1      47.570  11.418  18.184  0.00  0.00    +0.000 C 
ATOM     15  C   UNL     1      46.940  10.753  19.401  0.00  0.00    +0.000 C 
ENDBRANCH   5  15
BRANCH  13  16
ATOM     16  O   UNL     1      46.745   9.226  21.841  0.00  0.00    +0.000 OA
ATOM     17  H   UNL     1      45.949   8.673  21.946  0.00  0.00    +0.000 HD
ENDBRANCH  13  16
ENDBRANCH   1   8
BRANCH   3  18
ATOM     18  C   UNL     1      48.232   6.984  14.053  0.00  0.00    +0.000 C 
BRANCH  18  19
ATOM     19  C   UNL     1      47.266   6.104  13.305  0.00  0.00    +0.000 A 
ATOM     20  C   UNL     1      46.730   6.525  12.082  0.00  0.00    +0.000 A 
ATOM     21  C   UNL     1      45.776   5.749  11.420  0.00  0.00    +0.000 A 
ATOM     22  C   UNL     1      45.333   4.535  11.967  0.00  0.00    +0.000 A 
ATOM     23  C   UNL     1      45.877   4.111  13.187  0.00  0.00    +0.000 A 
ATOM     24  C   UNL     1      46.832   4.888  13.850  0.00  0.00    +0.000 A 
BRANCH  22  25
ATOM     25  C   UNL     1      44.281   3.713  11.255  0.00  0.00    +0.000 C 
BRANCH  25  26
ATOM     26  N   UNL     1      44.872   2.523  10.656  0.00  0.00    +0.000 NA
ATOM     27  H   UNL     1      44.639   1.708  11.223  0.00  0.00    +0.000 HD
BRANCH  26  28
ATOM     28  C   UNL     1      44.407   2.300   9.289  0.00  0.00    +0.000 C 
BRANCH  28  29
ATOM     29  C   UNL     1      45.568   2.372   8.324  0.00  0.00    +0.000 A 
ATOM     30  C   UNL     1      45.890   3.567   7.666  0.00  0.00    +0.000 A 
ATOM     31  C   UNL     1      46.941   3.606   6.745  0.00  0.00    +0.000 A 
ATOM     32  C   UNL     1      47.681   2.455   6.477  0.00  0.00    +0.000 A 
ATOM     33  C   UNL     1      47.382   1.267   7.138  0.00  0.00    +0.000 A 
ATOM     34  C   UNL     1      46.336   1.227   8.060  0.00  0.00    +0.000 A 
ENDBRANCH  28  29
ENDBRANCH  26  28
ENDBRANCH  25  26
ENDBRANCH  22  25
ENDBRANCH  18  19
ENDBRANCH   3  18
TORSDOF 9
ENDMDL
MODEL 4
REMARK VINA RESULT:    -7.402      2.023      2.675
REMARK INTER + INTRA:         -12.430
REMARK INTER:                 -11.288
REMARK INTRA:                  -1.142
REMARK UNBOUND:                -1.350
REMARK  Name = 
REMARK  10 active torsions:
REMARK  status: ('A' for Active; 'I' for Inactive)
REMARK    1  A    between atoms: C_1  and  C_2
REMARK    2  A    between atoms: C_2  and  C_3
REMARK    3  A    between atoms: C_6  and  C_7
REMARK    4  A    between atoms: N_9  and  C_10
REMARK    5  A    between atoms: C_10  and  C_11
REMARK    6  A    between atoms: C_14  and  C_15
REMARK    7  A    between atoms: C_15  and  N_16
REMARK    8  A    between atoms: N_16  and  C_17
REMARK    9  A    between atoms: C_17  and  C_18
REMARK   10  A    between atoms: C_30  and  O_31
REMARK                            x       y       z     vdW  Elec       q    Type
REMARK                         _______ _______ _______ _____ _____    ______ ____
ROOT
ATOM      1  C   UNL     1      48.743   6.451  16.051  0.00  0.00    +0.000 C 
ATOM      2  O   UNL     1      49.887   6.137  15.747  0.00  0.00    +0.000 OA
ATOM      3  N   UNL     1      47.643   5.750  15.620  0.00  0.00    +0.000 N 
ATOM      4  H   UNL     1      46.737   6.197  15.653  0.00  0.00    +0.000 HD
ENDROOT
BRANCH   1   8
ATOM      5  C   UNL     1      47.571   7.056  20.569  0.00  0.00    +0.000 A 
ATOM      6  C   UNL     1      47.873   6.682  19.254  0.00  0.00    +0.000 A 
ATOM      7  C   UNL     1      48.072   7.679  18.269  0.00  0.00    +0.000 A 
ATOM      8  C   UNL     1      48.451   7.629  16.870  0.00  0.00    +0.000 A 
ATOM      9  C   UNL     1      48.591   8.906  16.350  0.00  0.00    +0.000 A 
ATOM     10  S   UNL     1      48.231  10.134  17.477  0.00  0.00    +0.000 S 
ATOM     11  C   UNL     1      47.938   8.997  18.706  0.00  0.00    +0.000 A 
ATOM     12  N   UNL     1      47.630   9.412  19.953  0.00  0.00    +0.000 NA
ATOM     13  C   UNL     1      47.474   8.411  20.830  0.00  0.00    +0.000 A 
BRANCH   5  15
ATOM     14  C   UNL     1      48.479   4.908  21.463  0.00  0.00    +0.000 C 
ATOM     15  C   UNL     1      47.444   6.011  21.642  0.00  0.00    +0.000 C 
ENDBRANCH   5  15
BRANCH  13  16
ATOM     16  O   UNL     1      47.223   8.852  22.091  0.00  0.00    +0.000 OA
ATOM     17  H   UNL     1      48.083   8.668  22.512  0.00  0.00    +0.000 HD
ENDBRANCH  13  16
ENDBRANCH   1   8
BRANCH   3  18
ATOM     18  C   UNL     1      47.786   4.573  14.795  0.00  0.00    +0.000 C 
BRANCH  18  19
ATOM     19  C   UNL     1      46.765   4.587  13.688  0.00  0.00    +0.000 A 
ATOM     20  C   UNL     1      46.227   5.800  13.241  0.00  0.00    +0.000 A 
ATOM     21  C   UNL     1      45.224   5.815  12.268  0.00  0.00    +0.000 A 
ATOM     22  C   UNL     1      44.734   4.619  11.723  0.00  0.00    +0.000 A 
ATOM     23  C   UNL     1      45.280   3.407  12.166  0.00  0.00    +0.000 A 
ATOM     24  C   UNL     1      46.283   3.390  13.140  0.00  0.00    +0.000 A 
BRANCH  22  25
ATOM     25  C   UNL     1      43.630   4.644  10.688  0.00  0.00    +0.000 C 
BRANCH  25  26
ATOM     26  N   UNL     1      43.948   3.762   9.573  0.00  0.00    +0.000 NA
ATOM     27  H   UNL     1      43.092   3.538   9.065  0.00  0.00    +0.000 HD
BRANCH  26  28
ATOM     28  C   UNL     1      44.906   4.361   8.646  0.00  0.00    +0.000 C 
BRANCH  28  29
ATOM     29  C   UNL     1      45.762   3.287   8.014  0.00  0.00    +0.000 A 
ATOM     30  C   UNL     1      46.574   3.565   6.906  0.00  0.00    +0.000 A 
ATOM     31  C   UNL     1      47.328   2.550   6.309  0.00  0.00    +0.000 A 
ATOM     32  C   UNL     1      47.280   1.251   6.815  0.00  0.00    +0.000 A 
ATOM     33  C   UNL     1      46.491   0.967   7.926  0.00  0.00    +0.000 A 
ATOM     34  C   UNL     1      45.742   1.979   8.525  0.00  0.00    +0.000 A 
ENDBRANCH  28  29
ENDBRANCH  26  28
ENDBRANCH  25  26
ENDBRANCH  22  25
ENDBRANCH  18  19
ENDBRANCH   3  18
TORSDOF 9
ENDMDL
MODEL 5
REMARK VINA RESULT:    -7.126      4.042      6.123
REMARK INTER + INTRA:         -12.017
REMARK INTER:                 -10.913
REMARK INTRA:                  -1.104
REMARK UNBOUND:                -1.350
REMARK  Name = 
REMARK  10 active torsions:
REMARK  status: ('A' for Active; 'I' for Inactive)
REMARK    1  A    between atoms: C_1  and  C_2
REMARK    2  A    between atoms: C_2  and  C_3
REMARK    3  A    between atoms: C_6  and  C_7
REMARK    4  A    between atoms: N_9  and  C_10
REMARK    5  A    between atoms: C_10  and  C_11
REMARK    6  A    between atoms: C_14  and  C_15
REMARK    7  A    between atoms: C_15  and  N_16
REMARK    8  A    between atoms: N_16  and  C_17
REMARK    9  A    between atoms: C_17  and  C_18
REMARK   10  A    between atoms: C_30  and  O_31
REMARK                            x       y       z     vdW  Elec       q    Type
REMARK                         _______ _______ _______ _____ _____    ______ ____
ROOT
ATOM      1  C   UNL     1      49.283   8.788  12.882  0.00  0.00    +0.000 C 
ATOM      2  O   UNL     1      48.950   9.232  13.974  0.00  0.00    +0.000 OA
ATOM      3  N   UNL     1      49.029   7.493  12.501  0.00  0.00    +0.000 N 
ATOM      4  H   UNL     1      49.558   7.098  11.736  0.00  0.00    +0.000 HD
ENDROOT
BRANCH   1   8
ATOM      5  C   UNL     1      52.779   7.848   9.874  0.00  0.00    +0.000 A 
ATOM      6  C   UNL     1      51.788   7.953  10.857  0.00  0.00    +0.000 A 
ATOM      7  C   UNL     1      51.111   9.182  11.043  0.00  0.00    +0.000 A 
ATOM      8  C   UNL     1      50.020   9.593  11.906  0.00  0.00    +0.000 A 
ATOM      9  C   UNL     1      49.659  10.907  11.655  0.00  0.00    +0.000 A 
ATOM     10  S   UNL     1      50.624  11.653  10.463  0.00  0.00    +0.000 S 
ATOM     11  C   UNL     1      51.509  10.224  10.206  0.00  0.00    +0.000 A 
ATOM     12  N   UNL     1      52.469  10.184   9.259  0.00  0.00    +0.000 NA
ATOM     13  C   UNL     1      53.051   8.983   9.132  0.00  0.00    +0.000 A 
BRANCH   5  15
ATOM     14  C   UNL     1      54.430   6.171  10.710  0.00  0.00    +0.000 C 
ATOM     15  C   UNL     1      53.442   6.526   9.607  0.00  0.00    +0.000 C 
ENDBRANCH   5  15
BRANCH  13  16
ATOM     16  O   UNL     1      53.972   8.948   8.134  0.00  0.00    +0.000 OA
ATOM     17  H   UNL     1      53.758   9.780   7.673  0.00  0.00    +0.000 HD
ENDBRANCH  13  16
ENDBRANCH   1   8
BRANCH   3  18
ATOM     18  C   UNL     1      48.320   6.584  13.372  0.00  0.00    +0.000 C 
BRANCH  18  19
ATOM     19  C   UNL     1      47.112   6.025  12.668  0.00  0.00    +0.000 A 
ATOM     20  C   UNL     1      46.730   6.525  11.417  0.00  0.00    +0.000 A 
ATOM     21  C   UNL     1      45.568   6.065  10.794  0.00  0.00    +0.000 A 
ATOM     22  C   UNL     1      44.760   5.095  11.407  0.00  0.00    +0.000 A 
ATOM     23  C   UNL     1      45.149   4.589  12.655  0.00  0.00    +0.000 A 
ATOM     24  C   UNL     1      46.312   5.050  13.280  0.00  0.00    +0.000 A 
BRANCH  22  25
ATOM     25  C   UNL     1      43.490   4.620  10.735  0.00  0.00    +0.000 C 
BRANCH  25  26
ATOM     26  N   UNL     1      43.782   4.040   9.430  0.00  0.00    +0.000 NA
ATOM     27  H   UNL     1      44.377   4.678   8.902  0.00  0.00    +0.000 HD
BRANCH  26  28
ATOM     28  C   UNL     1      44.451   2.745   9.535  0.00  0.00    +0.000 C 
BRANCH  28  29
ATOM     29  C   UNL     1      45.512   2.618   8.466  0.00  0.00    +0.000 A 
ATOM     30  C   UNL     1      45.871   3.711   7.666  0.00  0.00    +0.000 A 
ATOM     31  C   UNL     1      46.824   3.565   6.654  0.00  0.00    +0.000 A 
ATOM     32  C   UNL     1      47.430   2.328   6.436  0.00  0.00    +0.000 A 
ATOM     33  C   UNL     1      47.096   1.239   7.236  0.00  0.00    +0.000 A 
ATOM     34  C   UNL     1      46.147   1.385   8.249  0.00  0.00    +0.000 A 
ENDBRANCH  28  29
ENDBRANCH  26  28
ENDBRANCH  25  26
ENDBRANCH  22  25
ENDBRANCH  18  19
ENDBRANCH   3  18
TORSDOF 9
ENDMDL
MODEL 6
REMARK VINA RESULT:    -6.911      3.015      8.867
REMARK INTER + INTRA:         -11.695
REMARK INTER:                 -10.184
REMARK INTRA:                  -1.510
REMARK UNBOUND:                -1.350
REMARK  Name = 
REMARK  10 active torsions:
REMARK  status: ('A' for Active; 'I' for Inactive)
REMARK    1  A    between atoms: C_1  and  C_2
REMARK    2  A    between atoms: C_2  and  C_3
REMARK    3  A    between atoms: C_6  and  C_7
REMARK    4  A    between atoms: N_9  and  C_10
REMARK    5  A    between atoms: C_10  and  C_11
REMARK    6  A    between atoms: C_14  and  C_15
REMARK    7  A    between atoms: C_15  and  N_16
REMARK    8  A    between atoms: N_16  and  C_17
REMARK    9  A    between atoms: C_17  and  C_18
REMARK   10  A    between atoms: C_30  and  O_31
REMARK                            x       y       z     vdW  Elec       q    Type
REMARK                         _______ _______ _______ _____ _____    ______ ____
ROOT
ATOM      1  C   UNL     1      45.635   6.897  11.913  0.00  0.00    +0.000 C 
ATOM      2  O   UNL     1      45.102   7.960  11.618  0.00  0.00    +0.000 OA
ATOM      3  N   UNL     1      46.940   6.817  12.337  0.00  0.00    +0.000 N 
ATOM      4  H   UNL     1      47.411   5.924  12.292  0.00  0.00    +0.000 HD
ENDROOT
BRANCH   1   8
ATOM      5  C   UNL     1      45.349   3.642   8.526  0.00  0.00    +0.000 A 
ATOM      6  C   UNL     1      45.508   4.731   9.391  0.00  0.00    +0.000 A 
ATOM      7  C   UNL     1      44.909   4.704  10.673  0.00  0.00    +0.000 A 
ATOM      8  C   UNL     1      44.935   5.616  11.800  0.00  0.00    +0.000 A 
ATOM      9  C   UNL     1      44.237   5.092  12.876  0.00  0.00    +0.000 A 
ATOM     10  S   UNL     1      43.523   3.580  12.543  0.00  0.00    +0.000 S 
ATOM     11  C   UNL     1      44.177   3.555  10.974  0.00  0.00    +0.000 A 
ATOM     12  N   UNL     1      43.975   2.487  10.174  0.00  0.00    +0.000 NA
ATOM     13  C   UNL     1      44.588   2.581   8.985  0.00  0.00    +0.000 A 
BRANCH   5  15
ATOM     14  C   UNL     1      47.272   2.709   7.234  0.00  0.00    +0.000 C 
ATOM     15  C   UNL     1      46.053   3.621   7.198  0.00  0.00    +0.000 C 
ENDBRANCH   5  15
BRANCH  13  16
ATOM     16  O   UNL     1      44.421   1.472   8.219  0.00  0.00    +0.000 OA
ATOM     17  H   UNL     1      45.328   1.112   8.237  0.00  0.00    +0.000 HD
ENDBRANCH  13  16
ENDBRANCH   1   8
BRANCH   3  18
ATOM     18  C   UNL     1      47.751   8.003  12.482  0.00  0.00    +0.000 C 
BRANCH  18  19
ATOM     19  C   UNL     1      48.347   8.059  13.864  0.00  0.00    +0.000 A 
ATOM     20  C   UNL     1      49.164   7.018  14.323  0.00  0.00    +0.000 A 
ATOM     21  C   UNL     1      49.656   7.027  15.630  0.00  0.00    +0.000 A 
ATOM     22  C   UNL     1      49.342   8.074  16.509  0.00  0.00    +0.000 A 
ATOM     23  C   UNL     1      48.531   9.119  16.045  0.00  0.00    +0.000 A 
ATOM     24  C   UNL     1      48.036   9.111  14.737  0.00  0.00    +0.000 A 
BRANCH  22  25
ATOM     25  C   UNL     1      49.860   8.062  17.931  0.00  0.00    +0.000 C 
BRANCH  25  26
ATOM     26  N   UNL     1      48.868   7.500  18.838  0.00  0.00    +0.000 NA
ATOM     27  H   UNL     1      47.992   7.358  18.335  0.00  0.00    +0.000 HD
BRANCH  26  28
ATOM     28  C   UNL     1      49.298   6.226  19.410  0.00  0.00    +0.000 C 
BRANCH  28  29
ATOM     29  C   UNL     1      48.865   5.082  18.522  0.00  0.00    +0.000 A 
ATOM     30  C   UNL     1      47.549   4.986  18.051  0.00  0.00    +0.000 A 
ATOM     31  C   UNL     1      47.155   3.899  17.265  0.00  0.00    +0.000 A 
ATOM     32  C   UNL     1      48.074   2.902  16.939  0.00  0.00    +0.000 A 
ATOM     33  C   UNL     1      49.389   2.995  17.385  0.00  0.00    +0.000 A 
ATOM     34  C   UNL     1      49.784   4.081  18.166  0.00  0.00    +0.000 A 
ENDBRANCH  28  29
ENDBRANCH  26  28
ENDBRANCH  25  26
ENDBRANCH  22  25
ENDBRANCH  18  19
ENDBRANCH   3  18
TORSDOF 9
ENDMDL
MODEL 7
REMARK VINA RESULT:    -6.708      4.919      8.209
REMARK INTER + INTRA:         -11.391
REMARK INTER:                 -10.438
REMARK INTRA:                  -0.953
REMARK UNBOUND:                -1.350
REMARK  Name = 
REMARK  10 active torsions:
REMARK  status: ('A' for Active; 'I' for Inactive)
REMARK    1  A    between atoms: C_1  and  C_2
REMARK    2  A    between atoms: C_2  and  C_3
REMARK    3  A    between atoms: C_6  and  C_7
REMARK    4  A    between atoms: N_9  and  C_10
REMARK    5  A    between atoms: C_10  and  C_11
REMARK    6  A    between atoms: C_14  and  C_15
REMARK    7  A    between atoms: C_15  and  N_16
REMARK    8  A    between atoms: N_16  and  C_17
REMARK    9  A    between atoms: C_17  and  C_18
REMARK   10  A    between atoms: C_30  and  O_31
REMARK                            x       y       z     vdW  Elec       q    Type
REMARK                         _______ _______ _______ _____ _____    ______ ____
ROOT
ATOM      1  C   UNL     1      44.955   7.323  11.616  0.00  0.00    +0.000 C 
ATOM      2  O   UNL     1      44.286   8.172  11.039  0.00  0.00    +0.000 OA
ATOM      3  N   UNL     1      46.174   7.603  12.184  0.00  0.00    +0.000 N 
ATOM      4  H   UNL     1      46.803   6.838  12.387  0.00  0.00    +0.000 HD
ENDROOT
BRANCH   1   8
ATOM      5  C   UNL     1      45.179   3.649   8.683  0.00  0.00    +0.000 A 
ATOM      6  C   UNL     1      45.154   4.854   9.393  0.00  0.00    +0.000 A 
ATOM      7  C   UNL     1      44.634   4.883  10.710  0.00  0.00    +0.000 A 
ATOM      8  C   UNL     1      44.527   5.927  11.712  0.00  0.00    +0.000 A 
ATOM      9  C   UNL     1      44.002   5.426  12.892  0.00  0.00    +0.000 A 
ATOM     10  S   UNL     1      43.596   3.773  12.800  0.00  0.00    +0.000 S 
ATOM     11  C   UNL     1      44.166   3.665  11.202  0.00  0.00    +0.000 A 
ATOM     12  N   UNL     1      44.149   2.480  10.556  0.00  0.00    +0.000 NA
ATOM     13  C   UNL     1      44.673   2.532   9.323  0.00  0.00    +0.000 A 
BRANCH   5  15
ATOM     14  C   UNL     1      47.132   2.835   7.356  0.00  0.00    +0.000 C 
ATOM     15  C   UNL     1      45.809   3.587   7.320  0.00  0.00    +0.000 C 
ENDBRANCH   5  15
BRANCH  13  16
ATOM     16  O   UNL     1      44.700   1.318   8.712  0.00  0.00    +0.000 OA
ATOM     17  H   UNL     1      45.614   1.316   8.373  0.00  0.00    +0.000 HD
ENDBRANCH  13  16
ENDBRANCH   1   8
BRANCH   3  18
ATOM     18  C   UNL     1      46.724   8.938  12.151  0.00  0.00    +0.000 C 
BRANCH  18  19
ATOM     19  C   UNL     1      48.226   8.880  12.062  0.00  0.00    +0.000 A 
ATOM     20  C   UNL     1      48.995  10.010  12.364  0.00  0.00    +0.000 A 
ATOM     21  C   UNL     1      50.383   9.986  12.210  0.00  0.00    +0.000 A 
ATOM     22  C   UNL     1      51.034   8.832  11.748  0.00  0.00    +0.000 A 
ATOM     23  C   UNL     1      50.264   7.699  11.454  0.00  0.00    +0.000 A 
ATOM     24  C   UNL     1      48.874   7.723  11.608  0.00  0.00    +0.000 A 
BRANCH  22  25
ATOM     25  C   UNL     1      52.536   8.823  11.561  0.00  0.00    +0.000 C 
BRANCH  25  26
ATOM     26  N   UNL     1      53.032   7.459  11.425  0.00  0.00    +0.000 NA
ATOM     27  H   UNL     1      52.291   6.866  11.050  0.00  0.00    +0.000 HD
BRANCH  26  28
ATOM     28  C   UNL     1      54.197   7.376  10.547  0.00  0.00    +0.000 C 
BRANCH  28  29
ATOM     29  C   UNL     1      53.864   6.569   9.313  0.00  0.00    +0.000 A 
ATOM     30  C   UNL     1      54.628   5.453   8.948  0.00  0.00    +0.000 A 
ATOM     31  C   UNL     1      54.332   4.743   7.781  0.00  0.00    +0.000 A 
ATOM     32  C   UNL     1      53.268   5.139   6.971  0.00  0.00    +0.000 A 
ATOM     33  C   UNL     1      52.490   6.235   7.333  0.00  0.00    +0.000 A 
ATOM     34  C   UNL     1      52.782   6.942   8.499  0.00  0.00    +0.000 A 
ENDBRANCH  28  29
ENDBRANCH  26  28
ENDBRANCH  25  26
ENDBRANCH  22  25
ENDBRANCH  18  19
ENDBRANCH   3  18
TORSDOF 9
ENDMDL
MODEL 8
REMARK VINA RESULT:    -6.558      1.483      2.390
REMARK INTER + INTRA:         -11.167
REMARK INTER:                 -10.101
REMARK INTRA:                  -1.066
REMARK UNBOUND:                -1.350
REMARK  Name = 
REMARK  10 active torsions:
REMARK  status: ('A' for Active; 'I' for Inactive)
REMARK    1  A    between atoms: C_1  and  C_2
REMARK    2  A    between atoms: C_2  and  C_3
REMARK    3  A    between atoms: C_6  and  C_7
REMARK    4  A    between atoms: N_9  and  C_10
REMARK    5  A    between atoms: C_10  and  C_11
REMARK    6  A    between atoms: C_14  and  C_15
REMARK    7  A    between atoms: C_15  and  N_16
REMARK    8  A    between atoms: N_16  and  C_17
REMARK    9  A    between atoms: C_17  and  C_18
REMARK   10  A    between atoms: C_30  and  O_31
REMARK                            x       y       z     vdW  Elec       q    Type
REMARK                         _______ _______ _______ _____ _____    ______ ____
ROOT
ATOM      1  C   UNL     1      50.705   7.856  15.893  0.00  0.00    +0.000 C 
ATOM      2  O   UNL     1      51.582   7.401  15.169  0.00  0.00    +0.000 OA
ATOM      3  N   UNL     1      49.782   8.773  15.451  0.00  0.00    +0.000 N 
ATOM      4  H   UNL     1      49.277   9.321  16.133  0.00  0.00    +0.000 HD
ENDROOT
BRANCH   1   8
ATOM      5  C   UNL     1      48.543   4.356  18.178  0.00  0.00    +0.000 A 
ATOM      6  C   UNL     1      49.072   5.345  17.341  0.00  0.00    +0.000 A 
ATOM      7  C   UNL     1      49.865   6.380  17.891  0.00  0.00    +0.000 A 
ATOM      8  C   UNL     1      50.594   7.489  17.306  0.00  0.00    +0.000 A 
ATOM      9  C   UNL     1      51.291   8.190  18.278  0.00  0.00    +0.000 A 
ATOM     10  S   UNL     1      51.046   7.582  19.851  0.00  0.00    +0.000 S 
ATOM     11  C   UNL     1      50.052   6.329  19.273  0.00  0.00    +0.000 A 
ATOM     12  N   UNL     1      49.552   5.413  20.127  0.00  0.00    +0.000 NA
ATOM     13  C   UNL     1      48.827   4.457  19.528  0.00  0.00    +0.000 A 
BRANCH   5  15
ATOM     14  C   UNL     1      47.370   3.482  16.154  0.00  0.00    +0.000 C 
ATOM     15  C   UNL     1      47.774   3.203  17.595  0.00  0.00    +0.000 C 
ENDBRANCH   5  15
BRANCH  13  16
ATOM     16  O   UNL     1      48.382   3.513  20.398  0.00  0.00    +0.000 OA
ATOM     17  H   UNL     1      49.202   3.004  20.535  0.00  0.00    +0.000 HD
ENDBRANCH  13  16
ENDBRANCH   1   8
BRANCH   3  18
ATOM     18  C   UNL     1      49.785   9.232  14.081  0.00  0.00    +0.000 C 
BRANCH  18  19
ATOM     19  C   UNL     1      48.621   8.638  13.332  0.00  0.00    +0.000 A 
ATOM     20  C   UNL     1      47.308   8.940  13.714  0.00  0.00    +0.000 A 
ATOM     21  C   UNL     1      46.226   8.333  13.073  0.00  0.00    +0.000 A 
ATOM     22  C   UNL     1      46.430   7.408  12.038  0.00  0.00    +0.000 A 
ATOM     23  C   UNL     1      47.744   7.114  11.652  0.00  0.00    +0.000 A 
ATOM     24  C   UNL     1      48.829   7.720  12.294  0.00  0.00    +0.000 A 
BRANCH  22  25
ATOM     25  C   UNL     1      45.252   6.738  11.367  0.00  0.00    +0.000 C 
BRANCH  25  26
ATOM     26  N   UNL     1      45.360   5.287  11.462  0.00  0.00    +0.000 NA
ATOM     27  H   UNL     1      45.230   5.002  12.433  0.00  0.00    +0.000 HD
BRANCH  26  28
ATOM     28  C   UNL     1      44.373   4.601  10.630  0.00  0.00    +0.000 C 
BRANCH  28  29
ATOM     29  C   UNL     1      45.062   3.855   9.511  0.00  0.00    +0.000 A 
ATOM     30  C   UNL     1      45.053   2.454   9.459  0.00  0.00    +0.000 A 
ATOM     31  C   UNL     1      45.731   1.779   8.440  0.00  0.00    +0.000 A 
ATOM     32  C   UNL     1      46.419   2.496   7.462  0.00  0.00    +0.000 A 
ATOM     33  C   UNL     1      46.421   3.888   7.492  0.00  0.00    +0.000 A 
ATOM     34  C   UNL     1      45.742   4.563   8.507  0.00  0.00    +0.000 A 
ENDBRANCH  28  29
ENDBRANCH  26  28
ENDBRANCH  25  26
ENDBRANCH  22  25
ENDBRANCH  18  19
ENDBRANCH   3  18
TORSDOF 9
ENDMDL
MODEL 9
REMARK VINA RESULT:    -6.533      2.462      3.043
REMARK INTER + INTRA:         -11.130
REMARK INTER:                 -10.190
REMARK INTRA:                  -0.940
REMARK UNBOUND:                -1.350
REMARK  Name = 
REMARK  10 active torsions:
REMARK  status: ('A' for Active; 'I' for Inactive)
REMARK    1  A    between atoms: C_1  and  C_2
REMARK    2  A    between atoms: C_2  and  C_3
REMARK    3  A    between atoms: C_6  and  C_7
REMARK    4  A    between atoms: N_9  and  C_10
REMARK    5  A    between atoms: C_10  and  C_11
REMARK    6  A    between atoms: C_14  and  C_15
REMARK    7  A    between atoms: C_15  and  N_16
REMARK    8  A    between atoms: N_16  and  C_17
REMARK    9  A    between atoms: C_17  and  C_18
REMARK   10  A    between atoms: C_30  and  O_31
REMARK                            x       y       z     vdW  Elec       q    Type
REMARK                         _______ _______ _______ _____ _____    ______ ____
ROOT
ATOM      1  C   UNL     1      49.444   9.573  14.012  0.00  0.00    +0.000 C 
ATOM      2  O   UNL     1      49.169  10.713  14.364  0.00  0.00    +0.000 OA
ATOM      3  N   UNL     1      48.557   8.771  13.336  0.00  0.00    +0.000 N 
ATOM      4  H   UNL     1      48.716   7.773  13.322  0.00  0.00    +0.000 HD
ENDROOT
BRANCH   1   8
ATOM      5  C   UNL     1      50.785   6.145  16.946  0.00  0.00    +0.000 A 
ATOM      6  C   UNL     1      50.215   7.168  16.179  0.00  0.00    +0.000 A 
ATOM      7  C   UNL     1      51.022   7.904  15.279  0.00  0.00    +0.000 A 
ATOM      8  C   UNL     1      50.735   8.953  14.320  0.00  0.00    +0.000 A 
ATOM      9  C   UNL     1      51.875   9.300  13.611  0.00  0.00    +0.000 A 
ATOM     10  S   UNL     1      53.262   8.441  14.106  0.00  0.00    +0.000 S 
ATOM     11  C   UNL     1      52.368   7.540  15.237  0.00  0.00    +0.000 A 
ATOM     12  N   UNL     1      52.972   6.578  15.966  0.00  0.00    +0.000 NA
ATOM     13  C   UNL     1      52.139   5.916  16.781  0.00  0.00    +0.000 A 
BRANCH   5  15
ATOM     14  C   UNL     1      48.719   4.749  17.084  0.00  0.00    +0.000 C 
ATOM     15  C   UNL     1      49.921   5.299  17.839  0.00  0.00    +0.000 C 
ENDBRANCH   5  15
BRANCH  13  16
ATOM     16  O   UNL     1      52.755   4.914  17.461  0.00  0.00    +0.000 OA
ATOM     17  H   UNL     1      52.493   4.149  16.916  0.00  0.00    +0.000 HD
ENDBRANCH  13  16
ENDBRANCH   1   8
BRANCH   3  18
ATOM     18  C   UNL     1      47.242   9.251  12.979  0.00  0.00    +0.000 C 
BRANCH  18  19
ATOM     19  C   UNL     1      46.433   8.140  12.362  0.00  0.00    +0.000 A 
ATOM     20  C   UNL     1      45.176   8.407  11.806  0.00  0.00    +0.000 A 
ATOM     21  C   UNL     1      44.389   7.370  11.301  0.00  0.00    +0.000 A 
ATOM     22  C   UNL     1      44.838   6.042  11.344  0.00  0.00    +0.000 A 
ATOM     23  C   UNL     1      46.099   5.777  11.894  0.00  0.00    +0.000 A 
ATOM     24  C   UNL     1      46.888   6.815  12.400  0.00  0.00    +0.000 A 
BRANCH  22  25
ATOM     25  C   UNL     1      43.967   4.922  10.818  0.00  0.00    +0.000 C 
BRANCH  25  26
ATOM     26  N   UNL     1      44.408   4.503   9.493  0.00  0.00    +0.000 NA
ATOM     27  H   UNL     1      45.317   4.919   9.293  0.00  0.00    +0.000 HD
BRANCH  26  28
ATOM     28  C   UNL     1      44.514   3.050   9.376  0.00  0.00    +0.000 C 
BRANCH  28  29
ATOM     29  C   UNL     1      45.520   2.685   8.309  0.00  0.00    +0.000 A 
ATOM     30  C   UNL     1      46.128   1.422   8.287  0.00  0.00    +0.000 A 
ATOM     31  C   UNL     1      47.088   1.116   7.318  0.00  0.00    +0.000 A 
ATOM     32  C   UNL     1      47.444   2.064   6.360  0.00  0.00    +0.000 A 
ATOM     33  C   UNL     1      46.834   3.315   6.360  0.00  0.00    +0.000 A 
ATOM     34  C   UNL     1      45.873   3.622   7.324  0.00  0.00    +0.000 A 
ENDBRANCH  28  29
ENDBRANCH  26  28
ENDBRANCH  25  26
ENDBRANCH  22  25
ENDBRANCH  18  19
ENDBRANCH   3  18
TORSDOF 9
ENDMDL
