MODEL 1
REMARK VINA RESULT:    -8.813      0.000      0.000
REMARK INTER + INTRA:         -13.747
REMARK INTER:                 -12.419
REMARK INTRA:                  -1.328
REMARK UNBOUND:                -1.328
REMARK  Name = 
REMARK  8 active torsions:
REMARK  status: ('A' for Active; 'I' for Inactive)
REMARK    1  A    between atoms: C_1  and  O_2
REMARK    2  A    between atoms: O_2  and  C_3
REMARK    3  A    between atoms: C_5  and  C_6
REMARK    4  A    between atoms: C_6  and  C_7
REMARK    5  A    between atoms: C_7  and  N_8
REMARK    6  A    between atoms: C_12  and  C_13
REMARK    7  A    between atoms: C_19  and  C_20
REMARK    8  A    between atoms: C_24  and  C_25
REMARK                            x       y       z     vdW  Elec       q    Type
REMARK                         _______ _______ _______ _____ _____    ______ ____
ROOT
ATOM      1  C   UNL     1      46.910   4.729  13.857  0.00  0.00    +0.000 A 
ATOM      2  C   UNL     1      45.579   4.680  13.434  0.00  0.00    +0.000 A 
ATOM      3  C   UNL     1      45.108   5.585  12.471  0.00  0.00    +0.000 A 
ATOM      4  C   UNL     1      46.017   6.514  11.932  0.00  0.00    +0.000 A 
ATOM      5  C   UNL     1      47.339   6.632  12.382  0.00  0.00    +0.000 A 
ATOM      6  C   UNL     1      47.772   5.696  13.328  0.00  0.00    +0.000 A 
ENDROOT
BRANCH   5   7
ATOM      7  C   UNL     1      48.187   7.773  11.964  0.00  0.00    +0.000 A 
ATOM      8  C   UNL     1      47.721   9.098  12.084  0.00  0.00    +0.000 A 
ATOM      9  C   UNL     1      48.539  10.194  11.817  0.00  0.00    +0.000 A 
ATOM     10  C   UNL     1      49.865   9.994  11.448  0.00  0.00    +0.000 A 
ATOM     11  C   UNL     1      50.369   8.693  11.317  0.00  0.00    +0.000 A 
ATOM     12  C   UNL     1      49.515   7.599  11.540  0.00  0.00    +0.000 A 
BRANCH  11  13
ATOM     13  C   UNL     1      51.822   8.449  10.998  0.00  0.00    +0.000 C 
ATOM     14  F   UNL     1      52.308   9.260  10.019  0.00  0.00    +0.000 F 
ATOM     15  F   UNL     1      52.626   8.652  12.080  0.00  0.00    +0.000 F 
ATOM     16  F   UNL     1      52.064   7.175  10.587  0.00  0.00    +0.000 F 
ENDBRANCH  11  13
ENDBRANCH   5   7
BRANCH   1  18
ATOM     17  C   UNL     1      47.332   4.312  16.160  0.00  0.00    +0.000 C 
ATOM     18  O   UNL     1      47.494   3.931  14.802  0.00  0.00    +0.000 OA
ENDBRANCH   1  18
BRANCH   3  19
ATOM     19  C   UNL     1      43.633   5.586  12.089  0.00  0.00    +0.000 C 
BRANCH  19  20
ATOM     20  C   UNL     1      43.355   5.016  10.693  0.00  0.00    +0.000 C 
BRANCH  20  21
ATOM     21  N   UNL     1      43.599   3.575  10.589  0.00  0.00    +0.000 N 
ATOM     22  C   UNL     1      44.552   3.302   9.578  0.00  0.00    +0.000 A 
ATOM     23  C   UNL     1      44.912   1.983   9.331  0.00  0.00    +0.000 A 
ATOM     24  C   UNL     1      45.860   1.705   8.339  0.00  0.00    +0.000 A 
ATOM     25  C   UNL     1      46.435   2.748   7.610  0.00  0.00    +0.000 A 
ATOM     26  C   UNL     1      46.028   4.029   7.931  0.00  0.00    +0.000 A 
ATOM     27  N   UNL     1      45.114   4.319   8.888  0.00  0.00    +0.000 NA
ATOM     28  H   UNL     1      42.754   3.055  10.373  0.00  0.00    +0.000 HD
BRANCH  25  29
ATOM     29  C   UNL     1      47.429   2.450   6.553  0.00  0.00    +0.000 C 
ATOM     30  N   UNL     1      47.350   3.112   5.358  0.00  0.00    +0.000 N 
ATOM     31  O   UNL     1      48.310   1.616   6.733  0.00  0.00    +0.000 OA
ATOM     32  H   UNL     1      46.676   3.817   5.105  0.00  0.00    +0.000 HD
ATOM     33  H   UNL     1      48.051   2.872   4.666  0.00  0.00    +0.000 HD
ENDBRANCH  25  29
ENDBRANCH  20  21
ENDBRANCH  19  20
ENDBRANCH   3  19
TORSDOF 7
ENDMDL
MODEL 2
REMARK VINA RESULT:    -8.793      1.650      2.159
REMARK INTER + INTRA:         -13.719
REMARK INTER:                 -12.424
REMARK INTRA:                  -1.295
REMARK UNBOUND:                -1.328
REMARK  Name = 
REMARK  8 active torsions:
REMARK  status: ('A' for Active; 'I' for Inactive)
REMARK    1  A    between atoms: C_1  and  O_2
REMARK    2  A    between atoms: O_2  and  C_3
REMARK    3  A    between atoms: C_5  and  C_6
REMARK    4  A    between atoms: C_6  and  C_7
REMARK    5  A    between atoms: C_7  and  N_8
REMARK    6  A    between atoms: C_12  and  C_13
REMARK    7  A    between atoms: C_19  and  C_20
REMARK    8  A    between atoms: C_24  and  C_25
REMARK                            x       y       z     vdW  Elec       q    Type
REMARK                         _______ _______ _______ _____ _____    ______ ____
ROOT
ATOM      1  C   UNL     1      46.464   4.657  13.983  0.00  0.00    +0.000 A 
ATOM      2  C   UNL     1      45.213   4.712  13.364  0.00  0.00    +0.000 A 
ATOM      3  C   UNL     1      44.973   5.631  12.332  0.00  0.00    +0.000 A 
ATOM      4  C   UNL     1      46.030   6.467  11.928  0.00  0.00    +0.000 A 
ATOM      5  C   UNL     1      47.275   6.482  12.571  0.00  0.00    +0.000 A 
ATOM      6  C   UNL     1      47.478   5.534  13.581  0.00  0.00    +0.000 A 
ENDROOT
BRANCH   5   7
ATOM      7  C   UNL     1      48.273   7.536  12.276  0.00  0.00    +0.000 A 
ATOM      8  C   UNL     1      49.646   7.226  12.192  0.00  0.00    +0.000 A 
ATOM      9  C   UNL     1      50.592   8.168  11.795  0.00  0.00    +0.000 A 
ATOM     10  C   UNL     1      50.186   9.450  11.441  0.00  0.00    +0.000 A 
ATOM     11  C   UNL     1      48.831   9.801  11.510  0.00  0.00    +0.000 A 
ATOM     12  C   UNL     1      47.897   8.853  11.961  0.00  0.00    +0.000 A 
BRANCH  11  13
ATOM     13  C   UNL     1      48.353  11.156  11.054  0.00  0.00    +0.000 C 
ATOM     14  F   UNL     1      48.652  11.430   9.755  0.00  0.00    +0.000 F 
ATOM     15  F   UNL     1      47.000  11.285  11.158  0.00  0.00    +0.000 F 
ATOM     16  F   UNL     1      48.884  12.174  11.784  0.00  0.00    +0.000 F 
ENDBRANCH  11  13
ENDBRANCH   5   7
BRANCH   1  18
ATOM     17  C   UNL     1      47.557   4.418  16.082  0.00  0.00    +0.000 C 
ATOM     18  O   UNL     1      46.827   3.834  15.013  0.00  0.00    +0.000 OA
ENDBRANCH   1  18
BRANCH   3  19
ATOM     19  C   UNL     1      43.578   5.750  11.731  0.00  0.00    +0.000 C 
BRANCH  19  20
ATOM     20  C   UNL     1      43.445   5.108  10.345  0.00  0.00    +0.000 C 
BRANCH  20  21
ATOM     21  N   UNL     1      43.717   3.669  10.336  0.00  0.00    +0.000 N 
ATOM     22  C   UNL     1      44.693   3.352   9.359  0.00  0.00    +0.000 A 
ATOM     23  C   UNL     1      45.082   2.027   9.202  0.00  0.00    +0.000 A 
ATOM     24  C   UNL     1      46.051   1.706   8.245  0.00  0.00    +0.000 A 
ATOM     25  C   UNL     1      46.619   2.713   7.461  0.00  0.00    +0.000 A 
ATOM     26  C   UNL     1      46.183   4.003   7.693  0.00  0.00    +0.000 A 
ATOM     27  N   UNL     1      45.247   4.334   8.616  0.00  0.00    +0.000 NA
ATOM     28  H   UNL     1      42.886   3.119  10.139  0.00  0.00    +0.000 HD
BRANCH  25  29
ATOM     29  C   UNL     1      47.636   2.369   6.441  0.00  0.00    +0.000 C 
ATOM     30  N   UNL     1      47.664   3.068   5.265  0.00  0.00    +0.000 N 
ATOM     31  O   UNL     1      48.443   1.465   6.634  0.00  0.00    +0.000 OA
ATOM     32  H   UNL     1      47.059   3.830   5.004  0.00  0.00    +0.000 HD
ATOM     33  H   UNL     1      48.377   2.794   4.597  0.00  0.00    +0.000 HD
ENDBRANCH  25  29
ENDBRANCH  20  21
ENDBRANCH  19  20
ENDBRANCH   3  19
TORSDOF 7
ENDMDL
MODEL 3
REMARK VINA RESULT:    -8.098      3.036      5.037
REMARK INTER + INTRA:         -12.740
REMARK INTER:                 -11.532
REMARK INTRA:                  -1.208
REMARK UNBOUND:                -1.328
REMARK  Name = 
REMARK  8 active torsions:
REMARK  status: ('A' for Active; 'I' for Inactive)
REMARK    1  A    between atoms: C_1  and  O_2
REMARK    2  A    between atoms: O_2  and  C_3
REMARK    3  A    between atoms: C_5  and  C_6
REMARK    4  A    between atoms: C_6  and  C_7
REMARK    5  A    between atoms: C_7  and  N_8
REMARK    6  A    between atoms: C_12  and  C_13
REMARK    7  A    between atoms: C_19  and  C_20
REMARK    8  A    between atoms: C_24  and  C_25
REMARK                            x       y       z     vdW  Elec       q    Type
REMARK                         _______ _______ _______ _____ _____    ______ ____
ROOT
ATOM      1  C   UNL     1      47.256   6.626  12.102  0.00  0.00    +0.000 A 
ATOM      2  C   UNL     1      45.933   6.435  11.695  0.00  0.00    +0.000 A 
ATOM      3  C   UNL     1      45.050   5.683  12.484  0.00  0.00    +0.000 A 
ATOM      4  C   UNL     1      45.530   5.154  13.696  0.00  0.00    +0.000 A 
ATOM      5  C   UNL     1      46.867   5.272  14.100  0.00  0.00    +0.000 A 
ATOM      6  C   UNL     1      47.707   6.049  13.294  0.00  0.00    +0.000 A 
ENDROOT
BRANCH   5   7
ATOM      7  C   UNL     1      47.385   4.502  15.256  0.00  0.00    +0.000 A 
ATOM      8  C   UNL     1      47.644   3.121  15.142  0.00  0.00    +0.000 A 
ATOM      9  C   UNL     1      48.247   2.397  16.169  0.00  0.00    +0.000 A 
ATOM     10  C   UNL     1      48.634   3.045  17.337  0.00  0.00    +0.000 A 
ATOM     11  C   UNL     1      48.394   4.418  17.492  0.00  0.00    +0.000 A 
ATOM     12  C   UNL     1      47.740   5.121  16.466  0.00  0.00    +0.000 A 
BRANCH  11  13
ATOM     13  C   UNL     1      48.877   5.160  18.711  0.00  0.00    +0.000 C 
ATOM     14  F   UNL     1      48.013   6.121  19.141  0.00  0.00    +0.000 F 
ATOM     15  F   UNL     1      49.067   4.330  19.776  0.00  0.00    +0.000 F 
ATOM     16  F   UNL     1      50.067   5.788  18.508  0.00  0.00    +0.000 F 
ENDBRANCH  11  13
ENDBRANCH   5   7
BRANCH   1  18
ATOM     17  C   UNL     1      48.558   8.607  11.898  0.00  0.00    +0.000 C 
ATOM     18  O   UNL     1      48.225   7.311  11.422  0.00  0.00    +0.000 OA
ENDBRANCH   1  18
BRANCH   3  19
ATOM     19  C   UNL     1      43.639   5.400  11.985  0.00  0.00    +0.000 C 
BRANCH  19  20
ATOM     20  C   UNL     1      43.587   4.879  10.543  0.00  0.00    +0.000 C 
BRANCH  20  21
ATOM     21  N   UNL     1      43.837   3.440  10.430  0.00  0.00    +0.000 N 
ATOM     22  C   UNL     1      44.782   3.177   9.408  0.00  0.00    +0.000 A 
ATOM     23  C   UNL     1      45.146   1.861   9.151  0.00  0.00    +0.000 A 
ATOM     24  C   UNL     1      46.085   1.592   8.149  0.00  0.00    +0.000 A 
ATOM     25  C   UNL     1      46.647   2.642   7.419  0.00  0.00    +0.000 A 
ATOM     26  C   UNL     1      46.237   3.919   7.749  0.00  0.00    +0.000 A 
ATOM     27  N   UNL     1      45.331   4.200   8.717  0.00  0.00    +0.000 NA
ATOM     28  H   UNL     1      42.992   2.916  10.220  0.00  0.00    +0.000 HD
BRANCH  25  29
ATOM     29  C   UNL     1      47.632   2.355   6.351  0.00  0.00    +0.000 C 
ATOM     30  N   UNL     1      47.667   3.156   5.243  0.00  0.00    +0.000 N 
ATOM     31  O   UNL     1      48.406   1.407   6.444  0.00  0.00    +0.000 OA
ATOM     32  H   UNL     1      47.087   3.961   5.065  0.00  0.00    +0.000 HD
ATOM     33  H   UNL     1      48.357   2.918   4.538  0.00  0.00    +0.000 HD
ENDBRANCH  25  29
ENDBRANCH  20  21
ENDBRANCH  19  20
ENDBRANCH   3  19
TORSDOF 7
ENDMDL
MODEL 4
REMARK VINA RESULT:    -7.811      4.631      8.151
REMARK INTER + INTRA:         -12.335
REMARK INTER:                 -11.083
REMARK INTRA:                  -1.252
REMARK UNBOUND:                -1.328
REMARK  Name = 
REMARK  8 active torsions:
REMARK  status: ('A' for Active; 'I' for Inactive)
REMARK    1  A    between atoms: C_1  and  O_2
REMARK    2  A    between atoms: O_2  and  C_3
REMARK    3  A    between atoms: C_5  and  C_6
REMARK    4  A    between atoms: C_6  and  C_7
REMARK    5  A    between atoms: C_7  and  N_8
REMARK    6  A    between atoms: C_12  and  C_13
REMARK    7  A    between atoms: C_19  and  C_20
REMARK    8  A    between atoms: C_24  and  C_25
REMARK                            x       y       z     vdW  Elec       q    Type
REMARK                         _______ _______ _______ _____ _____    ______ ____
ROOT
ATOM      1  C   UNL     1      44.812   9.365  11.594  0.00  0.00    +0.000 A 
ATOM      2  C   UNL     1      46.076   9.636  12.126  0.00  0.00    +0.000 A 
ATOM      3  C   UNL     1      46.967   8.588  12.401  0.00  0.00    +0.000 A 
ATOM      4  C   UNL     1      46.561   7.275  12.104  0.00  0.00    +0.000 A 
ATOM      5  C   UNL     1      45.278   6.965  11.633  0.00  0.00    +0.000 A 
ATOM      6  C   UNL     1      44.429   8.041  11.352  0.00  0.00    +0.000 A 
ENDROOT
BRANCH   5   7
ATOM      7  C   UNL     1      44.811   5.560  11.562  0.00  0.00    +0.000 A 
ATOM      8  C   UNL     1      43.958   5.034  12.554  0.00  0.00    +0.000 A 
ATOM      9  C   UNL     1      43.404   3.760  12.449  0.00  0.00    +0.000 A 
ATOM     10  C   UNL     1      43.666   2.981  11.328  0.00  0.00    +0.000 A 
ATOM     11  C   UNL     1      44.508   3.466  10.317  0.00  0.00    +0.000 A 
ATOM     12  C   UNL     1      45.099   4.733  10.464  0.00  0.00    +0.000 A 
BRANCH  11  13
ATOM     13  C   UNL     1      44.743   2.677   9.055  0.00  0.00    +0.000 C 
ATOM     14  F   UNL     1      44.288   3.299   7.932  0.00  0.00    +0.000 F 
ATOM     15  F   UNL     1      46.068   2.442   8.836  0.00  0.00    +0.000 F 
ATOM     16  F   UNL     1      44.145   1.456   9.078  0.00  0.00    +0.000 F 
ENDBRANCH  11  13
ENDBRANCH   5   7
BRANCH   1  18
ATOM     17  C   UNL     1      42.678   9.803  10.639  0.00  0.00    +0.000 C 
ATOM     18  O   UNL     1      43.838  10.280  11.304  0.00  0.00    +0.000 OA
ENDBRANCH   1  18
BRANCH   3  19
ATOM     19  C   UNL     1      48.303   8.886  13.070  0.00  0.00    +0.000 C 
BRANCH  19  20
ATOM     20  C   UNL     1      49.160   7.639  13.323  0.00  0.00    +0.000 C 
BRANCH  20  21
ATOM     21  N   UNL     1      49.794   7.621  14.643  0.00  0.00    +0.000 N 
ATOM     22  C   UNL     1      49.252   6.585  15.442  0.00  0.00    +0.000 A 
ATOM     23  C   UNL     1      49.730   6.413  16.735  0.00  0.00    +0.000 A 
ATOM     24  C   UNL     1      49.206   5.387  17.530  0.00  0.00    +0.000 A 
ATOM     25  C   UNL     1      48.212   4.548  17.021  0.00  0.00    +0.000 A 
ATOM     26  C   UNL     1      47.804   4.783  15.722  0.00  0.00    +0.000 A 
ATOM     27  N   UNL     1      48.301   5.770  14.936  0.00  0.00    +0.000 NA
ATOM     28  H   UNL     1      49.675   8.498  15.141  0.00  0.00    +0.000 HD
BRANCH  25  29
ATOM     29  C   UNL     1      47.651   3.470  17.867  0.00  0.00    +0.000 C 
ATOM     30  N   UNL     1      48.265   3.163  19.051  0.00  0.00    +0.000 N 
ATOM     31  O   UNL     1      46.653   2.847  17.517  0.00  0.00    +0.000 OA
ATOM     32  H   UNL     1      49.080   3.611  19.439  0.00  0.00    +0.000 HD
ATOM     33  H   UNL     1      47.845   2.417  19.594  0.00  0.00    +0.000 HD
ENDBRANCH  25  29
ENDBRANCH  20  21
ENDBRANCH  19  20
ENDBRANCH   3  19
TORSDOF 7
ENDMDL
MODEL 5
REMARK VINA RESULT:    -7.334      3.036      4.011
REMARK INTER + INTRA:         -11.663
REMARK INTER:                 -10.668
REMARK INTRA:                  -0.995
REMARK UNBOUND:                -1.328
REMARK  Name = 
REMARK  8 active torsions:
REMARK  status: ('A' for Active; 'I' for Inactive)
REMARK    1  A    between atoms: C_1  and  O_2
REMARK    2  A    between atoms: O_2  and  C_3
REMARK    3  A    between atoms: C_5  and  C_6
REMARK    4  A    between atoms: C_6  and  C_7
REMARK    5  A    between atoms: C_7  and  N_8
REMARK    6  A    between atoms: C_12  and  C_13
REMARK    7  A    between atoms: C_19  and  C_20
REMARK    8  A    between atoms: C_24  and  C_25
REMARK                            x       y       z     vdW  Elec       q    Type
REMARK                         _______ _______ _______ _____ _____    ______ ____
ROOT
ATOM      1  C   UNL     1      44.995   8.988  11.501  0.00  0.00    +0.000 A 
ATOM      2  C   UNL     1      44.161   7.868  11.452  0.00  0.00    +0.000 A 
ATOM      3  C   UNL     1      44.508   6.696  12.140  0.00  0.00    +0.000 A 
ATOM      4  C   UNL     1      45.697   6.695  12.892  0.00  0.00    +0.000 A 
ATOM      5  C   UNL     1      46.587   7.778  12.909  0.00  0.00    +0.000 A 
ATOM      6  C   UNL     1      46.190   8.934  12.226  0.00  0.00    +0.000 A 
ENDROOT
BRANCH   5   7
ATOM      7  C   UNL     1      47.933   7.649  13.513  0.00  0.00    +0.000 A 
ATOM      8  C   UNL     1      49.009   8.432  13.048  0.00  0.00    +0.000 A 
ATOM      9  C   UNL     1      50.253   8.424  13.676  0.00  0.00    +0.000 A 
ATOM     10  C   UNL     1      50.448   7.648  14.813  0.00  0.00    +0.000 A 
ATOM     11  C   UNL     1      49.405   6.854  15.310  0.00  0.00    +0.000 A 
ATOM     12  C   UNL     1      48.173   6.836  14.633  0.00  0.00    +0.000 A 
BRANCH  11  13
ATOM     13  C   UNL     1      49.564   6.068  16.586  0.00  0.00    +0.000 C 
ATOM     14  F   UNL     1      49.085   6.712  17.685  0.00  0.00    +0.000 F 
ATOM     15  F   UNL     1      48.906   4.875  16.539  0.00  0.00    +0.000 F 
ATOM     16  F   UNL     1      50.863   5.769  16.861  0.00  0.00    +0.000 F 
ENDBRANCH  11  13
ENDBRANCH   5   7
BRANCH   1  18
ATOM     17  C   UNL     1      43.452  10.611  10.698  0.00  0.00    +0.000 C 
ATOM     18  O   UNL     1      44.795  10.180  10.861  0.00  0.00    +0.000 OA
ENDBRANCH   1  18
BRANCH   3  19
ATOM     19  C   UNL     1      43.642   5.450  12.001  0.00  0.00    +0.000 C 
BRANCH  19  20
ATOM     20  C   UNL     1      43.539   4.926  10.563  0.00  0.00    +0.000 C 
BRANCH  20  21
ATOM     21  N   UNL     1      43.794   3.489  10.443  0.00  0.00    +0.000 N 
ATOM     22  C   UNL     1      44.738   3.234   9.418  0.00  0.00    +0.000 A 
ATOM     23  C   UNL     1      45.106   1.920   9.154  0.00  0.00    +0.000 A 
ATOM     24  C   UNL     1      46.043   1.659   8.148  0.00  0.00    +0.000 A 
ATOM     25  C   UNL     1      46.600   2.715   7.423  0.00  0.00    +0.000 A 
ATOM     26  C   UNL     1      46.187   3.989   7.760  0.00  0.00    +0.000 A 
ATOM     27  N   UNL     1      45.282   4.262   8.731  0.00  0.00    +0.000 NA
ATOM     28  H   UNL     1      42.951   2.964  10.232  0.00  0.00    +0.000 HD
BRANCH  25  29
ATOM     29  C   UNL     1      47.584   2.435   6.351  0.00  0.00    +0.000 C 
ATOM     30  N   UNL     1      47.451   3.064   5.143  0.00  0.00    +0.000 N 
ATOM     31  O   UNL     1      48.505   1.645   6.531  0.00  0.00    +0.000 OA
ATOM     32  H   UNL     1      46.742   3.733   4.889  0.00  0.00    +0.000 HD
ATOM     33  H   UNL     1      48.147   2.838   4.441  0.00  0.00    +0.000 HD
ENDBRANCH  25  29
ENDBRANCH  20  21
ENDBRANCH  19  20
ENDBRANCH   3  19
TORSDOF 7
ENDMDL
MODEL 6
REMARK VINA RESULT:    -7.318      2.100      2.865
REMARK INTER + INTRA:         -11.641
REMARK INTER:                 -10.587
REMARK INTRA:                  -1.054
REMARK UNBOUND:                -1.328
REMARK  Name = 
REMARK  8 active torsions:
REMARK  status: ('A' for Active; 'I' for Inactive)
REMARK    1  A    between atoms: C_1  and  O_2
REMARK    2  A    between atoms: O_2  and  C_3
REMARK    3  A    between atoms: C_5  and  C_6
REMARK    4  A    between atoms: C_6  and  C_7
REMARK    5  A    between atoms: C_7  and  N_8
REMARK    6  A    between atoms: C_12  and  C_13
REMARK    7  A    between atoms: C_19  and  C_20
REMARK    8  A    between atoms: C_24  and  C_25
REMARK                            x       y       z     vdW  Elec       q    Type
REMARK                         _______ _______ _______ _____ _____    ______ ____
ROOT
ATOM      1  C   UNL     1      44.616   8.717  11.323  0.00  0.00    +0.000 A 
ATOM      2  C   UNL     1      44.012   7.464  11.454  0.00  0.00    +0.000 A 
ATOM      3  C   UNL     1      44.666   6.431  12.142  0.00  0.00    +0.000 A 
ATOM      4  C   UNL     1      45.924   6.704  12.710  0.00  0.00    +0.000 A 
ATOM      5  C   UNL     1      46.585   7.928  12.540  0.00  0.00    +0.000 A 
ATOM      6  C   UNL     1      45.887   8.937  11.866  0.00  0.00    +0.000 A 
ENDROOT
BRANCH   5   7
ATOM      7  C   UNL     1      48.001   8.093  12.945  0.00  0.00    +0.000 A 
ATOM      8  C   UNL     1      48.395   7.889  14.283  0.00  0.00    +0.000 A 
ATOM      9  C   UNL     1      49.734   7.914  14.670  0.00  0.00    +0.000 A 
ATOM     10  C   UNL     1      50.725   8.119  13.716  0.00  0.00    +0.000 A 
ATOM     11  C   UNL     1      50.377   8.327  12.374  0.00  0.00    +0.000 A 
ATOM     12  C   UNL     1      49.019   8.348  12.012  0.00  0.00    +0.000 A 
BRANCH  11  13
ATOM     13  C   UNL     1      51.433   8.469  11.309  0.00  0.00    +0.000 C 
ATOM     14  F   UNL     1      51.208   9.505  10.455  0.00  0.00    +0.000 F 
ATOM     15  F   UNL     1      52.670   8.687  11.838  0.00  0.00    +0.000 F 
ATOM     16  F   UNL     1      51.549   7.359  10.531  0.00  0.00    +0.000 F 
ENDBRANCH  11  13
ENDBRANCH   5   7
BRANCH   1  18
ATOM     17  C   UNL     1      42.703  10.001  10.727  0.00  0.00    +0.000 C 
ATOM     18  O   UNL     1      44.108   9.801  10.660  0.00  0.00    +0.000 OA
ENDBRANCH   1  18
BRANCH   3  19
ATOM     19  C   UNL     1      44.042   5.042  12.195  0.00  0.00    +0.000 C 
BRANCH  19  20
ATOM     20  C   UNL     1      43.504   4.555  10.845  0.00  0.00    +0.000 C 
BRANCH  20  21
ATOM     21  N   UNL     1      43.753   3.134  10.592  0.00  0.00    +0.000 N 
ATOM     22  C   UNL     1      44.691   2.971   9.544  0.00  0.00    +0.000 A 
ATOM     23  C   UNL     1      45.054   1.686   9.159  0.00  0.00    +0.000 A 
ATOM     24  C   UNL     1      45.986   1.515   8.129  0.00  0.00    +0.000 A 
ATOM     25  C   UNL     1      46.544   2.631   7.501  0.00  0.00    +0.000 A 
ATOM     26  C   UNL     1      46.136   3.870   7.955  0.00  0.00    +0.000 A 
ATOM     27  N   UNL     1      45.236   4.056   8.951  0.00  0.00    +0.000 NA
ATOM     28  H   UNL     1      42.907   2.632  10.338  0.00  0.00    +0.000 HD
BRANCH  25  29
ATOM     29  C   UNL     1      47.522   2.448   6.403  0.00  0.00    +0.000 C 
ATOM     30  N   UNL     1      47.344   3.131   5.231  0.00  0.00    +0.000 N 
ATOM     31  O   UNL     1      48.477   1.689   6.530  0.00  0.00    +0.000 OA
ATOM     32  H   UNL     1      46.604   3.781   5.021  0.00  0.00    +0.000 HD
ATOM     33  H   UNL     1      48.039   2.971   4.509  0.00  0.00    +0.000 HD
ENDBRANCH  25  29
ENDBRANCH  20  21
ENDBRANCH  19  20
ENDBRANCH   3  19
TORSDOF 7
ENDMDL
MODEL 7
REMARK VINA RESULT:    -7.014      5.996      8.795
REMARK INTER + INTRA:         -11.212
REMARK INTER:                 -10.253
REMARK INTRA:                  -0.959
REMARK UNBOUND:                -1.328
REMARK  Name = 
REMARK  8 active torsions:
REMARK  status: ('A' for Active; 'I' for Inactive)
REMARK    1  A    between atoms: C_1  and  O_2
REMARK    2  A    between atoms: O_2  and  C_3
REMARK    3  A    between atoms: C_5  and  C_6
REMARK    4  A    between atoms: C_6  and  C_7
REMARK    5  A    between atoms: C_7  and  N_8
REMARK    6  A    between atoms: C_12  and  C_13
REMARK    7  A    between atoms: C_19  and  C_20
REMARK    8  A    between atoms: C_24  and  C_25
REMARK                            x       y       z     vdW  Elec       q    Type
REMARK                         _______ _______ _______ _____ _____    ______ ____
ROOT
ATOM      1  C   UNL     1      47.116   8.206  12.698  0.00  0.00    +0.000 A 
ATOM      2  C   UNL     1      46.417   9.282  12.144  0.00  0.00    +0.000 A 
ATOM      3  C   UNL     1      45.162   9.080  11.548  0.00  0.00    +0.000 A 
ATOM      4  C   UNL     1      44.629   7.778  11.549  0.00  0.00    +0.000 A 
ATOM      5  C   UNL     1      45.333   6.668  12.036  0.00  0.00    +0.000 A 
ATOM      6  C   UNL     1      46.571   6.919  12.641  0.00  0.00    +0.000 A 
ENDROOT
BRANCH   5   7
ATOM      7  C   UNL     1      44.842   5.290  11.801  0.00  0.00    +0.000 A 
ATOM      8  C   UNL     1      43.940   4.684  12.700  0.00  0.00    +0.000 A 
ATOM      9  C   UNL     1      43.366   3.442  12.443  0.00  0.00    +0.000 A 
ATOM     10  C   UNL     1      43.657   2.777  11.256  0.00  0.00    +0.000 A 
ATOM     11  C   UNL     1      44.548   3.343  10.335  0.00  0.00    +0.000 A 
ATOM     12  C   UNL     1      45.158   4.574  10.635  0.00  0.00    +0.000 A 
BRANCH  11  13
ATOM     13  C   UNL     1      44.818   2.685   9.006  0.00  0.00    +0.000 C 
ATOM     14  F   UNL     1      44.327   1.418   8.917  0.00  0.00    +0.000 F 
ATOM     15  F   UNL     1      44.261   3.372   7.970  0.00  0.00    +0.000 F 
ATOM     16  F   UNL     1      46.146   2.594   8.724  0.00  0.00    +0.000 F 
ENDBRANCH  11  13
ENDBRANCH   5   7
BRANCH   1  18
ATOM     17  C   UNL     1      48.666   7.229  14.215  0.00  0.00    +0.000 C 
ATOM     18  O   UNL     1      48.351   8.253  13.283  0.00  0.00    +0.000 OA
ENDBRANCH   1  18
BRANCH   3  19
ATOM     19  C   UNL     1      44.453  10.240  10.863  0.00  0.00    +0.000 C 
BRANCH  19  20
ATOM     20  C   UNL     1      42.925  10.192  10.989  0.00  0.00    +0.000 C 
BRANCH  20  21
ATOM     21  N   UNL     1      42.393  11.092  12.014  0.00  0.00    +0.000 N 
ATOM     22  C   UNL     1      40.977  11.047  12.030  0.00  0.00    +0.000 A 
ATOM     23  C   UNL     1      40.289  11.839  12.941  0.00  0.00    +0.000 A 
ATOM     24  C   UNL     1      38.890  11.795  12.970  0.00  0.00    +0.000 A 
ATOM     25  C   UNL     1      38.200  10.959  12.090  0.00  0.00    +0.000 A 
ATOM     26  C   UNL     1      38.964  10.197  11.227  0.00  0.00    +0.000 A 
ATOM     27  N   UNL     1      40.318  10.224  11.185  0.00  0.00    +0.000 NA
ATOM     28  H   UNL     1      42.675  12.057  11.866  0.00  0.00    +0.000 HD
BRANCH  25  29
ATOM     29  C   UNL     1      36.720  10.922  12.114  0.00  0.00    +0.000 C 
ATOM     30  N   UNL     1      36.028  12.080  12.349  0.00  0.00    +0.000 N 
ATOM     31  O   UNL     1      36.111   9.872  11.936  0.00  0.00    +0.000 OA
ATOM     32  H   UNL     1      36.421  12.994  12.500  0.00  0.00    +0.000 HD
ATOM     33  H   UNL     1      35.016  12.003  12.359  0.00  0.00    +0.000 HD
ENDBRANCH  25  29
ENDBRANCH  20  21
ENDBRANCH  19  20
ENDBRANCH   3  19
TORSDOF 7
ENDMDL
MODEL 8
REMARK VINA RESULT:    -6.934      5.172      8.345
REMARK INTER + INTRA:         -11.100
REMARK INTER:                  -9.523
REMARK INTRA:                  -1.577
REMARK UNBOUND:                -1.328
REMARK  Name = 
REMARK  8 active torsions:
REMARK  status: ('A' for Active; 'I' for Inactive)
REMARK    1  A    between atoms: C_1  and  O_2
REMARK    2  A    between atoms: O_2  and  C_3
REMARK    3  A    between atoms: C_5  and  C_6
REMARK    4  A    between atoms: C_6  and  C_7
REMARK    5  A    between atoms: C_7  and  N_8
REMARK    6  A    between atoms: C_12  and  C_13
REMARK    7  A    between atoms: C_19  and  C_20
REMARK    8  A    between atoms: C_24  and  C_25
REMARK                            x       y       z     vdW  Elec       q    Type
REMARK                         _______ _______ _______ _____ _____    ______ ____
ROOT
ATOM      1  C   UNL     1      46.844   9.768  12.221  0.00  0.00    +0.000 A 
ATOM      2  C   UNL     1      48.127   9.996  12.724  0.00  0.00    +0.000 A 
ATOM      3  C   UNL     1      48.965   8.917  13.046  0.00  0.00    +0.000 A 
ATOM      4  C   UNL     1      48.483   7.614  12.826  0.00  0.00    +0.000 A 
ATOM      5  C   UNL     1      47.179   7.351  12.385  0.00  0.00    +0.000 A 
ATOM      6  C   UNL     1      46.386   8.456  12.055  0.00  0.00    +0.000 A 
ENDROOT
BRANCH   5   7
ATOM      7  C   UNL     1      46.635   5.973  12.395  0.00  0.00    +0.000 A 
ATOM      8  C   UNL     1      47.043   5.044  13.375  0.00  0.00    +0.000 A 
ATOM      9  C   UNL     1      46.459   3.784  13.485  0.00  0.00    +0.000 A 
ATOM     10  C   UNL     1      45.422   3.425  12.631  0.00  0.00    +0.000 A 
ATOM     11  C   UNL     1      44.985   4.317  11.642  0.00  0.00    +0.000 A 
ATOM     12  C   UNL     1      45.621   5.564  11.513  0.00  0.00    +0.000 A 
BRANCH  11  13
ATOM     13  C   UNL     1      43.811   3.986  10.758  0.00  0.00    +0.000 C 
ATOM     14  F   UNL     1      44.133   3.187   9.703  0.00  0.00    +0.000 F 
ATOM     15  F   UNL     1      42.828   3.328  11.435  0.00  0.00    +0.000 F 
ATOM     16  F   UNL     1      43.224   5.092  10.226  0.00  0.00    +0.000 F 
ENDBRANCH  11  13
ENDBRANCH   5   7
BRANCH   1  18
ATOM     17  C   UNL     1      44.567  10.296  11.779  0.00  0.00    +0.000 C 
ATOM     18  O   UNL     1      45.918  10.719  11.892  0.00  0.00    +0.000 OA
ENDBRANCH   1  18
BRANCH   3  19
ATOM     19  C   UNL     1      50.324   9.177  13.684  0.00  0.00    +0.000 C 
BRANCH  19  20
ATOM     20  C   UNL     1      50.669   8.204  14.819  0.00  0.00    +0.000 C 
BRANCH  20  21
ATOM     21  N   UNL     1      49.921   8.454  16.053  0.00  0.00    +0.000 N 
ATOM     22  C   UNL     1      49.353   7.252  16.543  0.00  0.00    +0.000 A 
ATOM     23  C   UNL     1      48.601   7.290  17.711  0.00  0.00    +0.000 A 
ATOM     24  C   UNL     1      48.043   6.107  18.207  0.00  0.00    +0.000 A 
ATOM     25  C   UNL     1      48.245   4.902  17.530  0.00  0.00    +0.000 A 
ATOM     26  C   UNL     1      49.016   4.954  16.385  0.00  0.00    +0.000 A 
ATOM     27  N   UNL     1      49.566   6.089  15.889  0.00  0.00    +0.000 NA
ATOM     28  H   UNL     1      49.170   9.125  15.921  0.00  0.00    +0.000 HD
BRANCH  25  29
ATOM     29  C   UNL     1      47.644   3.653  18.051  0.00  0.00    +0.000 C 
ATOM     30  N   UNL     1      48.197   3.055  19.151  0.00  0.00    +0.000 N 
ATOM     31  O   UNL     1      46.669   3.147  17.505  0.00  0.00    +0.000 OA
ATOM     32  H   UNL     1      48.989   3.384  19.679  0.00  0.00    +0.000 HD
ATOM     33  H   UNL     1      47.752   2.200  19.468  0.00  0.00    +0.000 HD
ENDBRANCH  25  29
ENDBRANCH  20  21
ENDBRANCH  19  20
ENDBRANCH   3  19
TORSDOF 7
ENDMDL
MODEL 9
REMARK VINA RESULT:    -6.615      3.094      4.166
REMARK INTER + INTRA:         -10.650
REMARK INTER:                  -9.636
REMARK INTRA:                  -1.014
REMARK UNBOUND:                -1.328
REMARK  Name = 
REMARK  8 active torsions:
REMARK  status: ('A' for Active; 'I' for Inactive)
REMARK    1  A    between atoms: C_1  and  O_2
REMARK    2  A    between atoms: O_2  and  C_3
REMARK    3  A    between atoms: C_5  and  C_6
REMARK    4  A    between atoms: C_6  and  C_7
REMARK    5  A    between atoms: C_7  and  N_8
REMARK    6  A    between atoms: C_12  and  C_13
REMARK    7  A    between atoms: C_19  and  C_20
REMARK    8  A    between atoms: C_24  and  C_25
REMARK                            x       y       z     vdW  Elec       q    Type
REMARK                         _______ _______ _______ _____ _____    ______ ____
ROOT
ATOM      1  C   UNL     1      44.416   9.643  11.139  0.00  0.00    +0.000 A 
ATOM      2  C   UNL     1      43.536   8.564  11.023  0.00  0.00    +0.000 A 
ATOM      3  C   UNL     1      43.838   7.335  11.628  0.00  0.00    +0.000 A 
ATOM      4  C   UNL     1      45.031   7.235  12.367  0.00  0.00    +0.000 A 
ATOM      5  C   UNL     1      45.965   8.277  12.447  0.00  0.00    +0.000 A 
ATOM      6  C   UNL     1      45.613   9.491  11.847  0.00  0.00    +0.000 A 
ENDROOT
BRANCH   5   7
ATOM      7  C   UNL     1      47.309   8.052  13.029  0.00  0.00    +0.000 A 
ATOM      8  C   UNL     1      48.271   7.282  12.344  0.00  0.00    +0.000 A 
ATOM      9  C   UNL     1      49.580   7.157  12.805  0.00  0.00    +0.000 A 
ATOM     10  C   UNL     1      49.974   7.827  13.958  0.00  0.00    +0.000 A 
ATOM     11  C   UNL     1      49.050   8.603  14.670  0.00  0.00    +0.000 A 
ATOM     12  C   UNL     1      47.721   8.677  14.218  0.00  0.00    +0.000 A 
BRANCH  11  13
ATOM     13  C   UNL     1      49.471   9.404  15.875  0.00  0.00    +0.000 C 
ATOM     14  F   UNL     1      48.466  10.152  16.409  0.00  0.00    +0.000 F 
ATOM     15  F   UNL     1      49.920   8.610  16.888  0.00  0.00    +0.000 F 
ATOM     16  F   UNL     1      50.482  10.272  15.603  0.00  0.00    +0.000 F 
ENDBRANCH  11  13
ENDBRANCH   5   7
BRANCH   1  18
ATOM     17  C   UNL     1      45.432  11.669  10.415  0.00  0.00    +0.000 C 
ATOM     18  O   UNL     1      44.261  10.883  10.582  0.00  0.00    +0.000 OA
ENDBRANCH   1  18
BRANCH   3  19
ATOM     19  C   UNL     1      42.920   6.138  11.414  0.00  0.00    +0.000 C 
BRANCH  19  20
ATOM     20  C   UNL     1      43.593   4.965  10.692  0.00  0.00    +0.000 C 
BRANCH  20  21
ATOM     21  N   UNL     1      44.465   5.377   9.590  0.00  0.00    +0.000 N 
ATOM     22  C   UNL     1      45.116   4.253   9.023  0.00  0.00    +0.000 A 
ATOM     23  C   UNL     1      45.990   4.448   7.960  0.00  0.00    +0.000 A 
ATOM     24  C   UNL     1      46.632   3.343   7.389  0.00  0.00    +0.000 A 
ATOM     25  C   UNL     1      46.389   2.061   7.885  0.00  0.00    +0.000 A 
ATOM     26  C   UNL     1      45.496   1.958   8.935  0.00  0.00    +0.000 A 
ATOM     27  N   UNL     1      44.864   3.015   9.501  0.00  0.00    +0.000 NA
ATOM     28  H   UNL     1      45.178   6.036   9.887  0.00  0.00    +0.000 HD
BRANCH  25  29
ATOM     29  C   UNL     1      47.078   0.894   7.286  0.00  0.00    +0.000 C 
ATOM     30  N   UNL     1      46.684  -0.367   7.642  0.00  0.00    +0.000 N 
ATOM     31  O   UNL     1      47.996   1.046   6.487  0.00  0.00    +0.000 OA
ATOM     32  H   UNL     1      45.942  -0.608   8.279  0.00  0.00    +0.000 HD
ATOM     33  H   UNL     1      47.187  -1.133   7.206  0.00  0.00    +0.000 HD
ENDBRANCH  25  29
ENDBRANCH  20  21
ENDBRANCH  19  20
ENDBRANCH   3  19
TORSDOF 7
ENDMDL
