MODEL 1
REMARK VINA RESULT:    -8.282      0.000      0.000
REMARK INTER + INTRA:         -12.486
REMARK INTER:                 -11.187
REMARK INTRA:                  -1.299
REMARK UNBOUND:                -1.299
REMARK  Name = 
REMARK  7 active torsions:
REMARK  status: ('A' for Active; 'I' for Inactive)
REMARK    1  A    between atoms: C_1  and  C_2
REMARK    2  A    between atoms: N_5  and  C_6
REMARK    3  A    between atoms: C_10  and  C_11
REMARK    4  A    between atoms: C_11  and  C_12
REMARK    5  A    between atoms: C_12  and  N_13
REMARK    6  A    between atoms: N_13  and  C_14
REMARK    7  A    between atoms: C_17  and  C_18
REMARK                            x       y       z     vdW  Elec       q    Type
REMARK                         _______ _______ _______ _____ _____    ______ ____
ROOT
ATOM      1  C   UNL     1      43.369   5.413  12.363  0.00  0.00    +0.000 C 
ENDROOT
BRANCH   1   6
ATOM      2  C   UNL     1      46.976   6.317  13.302  0.00  0.00    +0.000 A 
ATOM      3  C   UNL     1      47.485   5.056  13.633  0.00  0.00    +0.000 A 
ATOM      4  C   UNL     1      46.704   3.912  13.528  0.00  0.00    +0.000 A 
ATOM      5  C   UNL     1      45.387   4.006  13.094  0.00  0.00    +0.000 A 
ATOM      6  C   UNL     1      44.823   5.248  12.769  0.00  0.00    +0.000 A 
ATOM      7  C   UNL     1      45.641   6.384  12.861  0.00  0.00    +0.000 A 
BRANCH   2  12
ATOM      8  C   UNL     1      49.033  10.708  10.920  0.00  0.00    +0.000 C 
ATOM      9  C   UNL     1      48.842   9.785  12.121  0.00  0.00    +0.000 C 
ATOM     10  C   UNL     1      47.363   9.722  12.526  0.00  0.00    +0.000 C 
ATOM     11  C   UNL     1      47.142   8.764  13.688  0.00  0.00    +0.000 C 
ATOM     12  N   UNL     1      47.744   7.460  13.413  0.00  0.00    +0.000 N 
ATOM     13  C   UNL     1      49.148   7.432  12.998  0.00  0.00    +0.000 C 
ATOM     14  C   UNL     1      49.365   8.375  11.819  0.00  0.00    +0.000 C 
ENDBRANCH   2  12
ENDBRANCH   1   6
BRANCH   1  15
ATOM     15  C   UNL     1      42.970   4.589  11.137  0.00  0.00    +0.000 C 
BRANCH  15  16
ATOM     16  N   UNL     1      43.653   5.005   9.921  0.00  0.00    +0.000 N 
ATOM     17  H   UNL     1      43.798   5.995   9.758  0.00  0.00    +0.000 HD
BRANCH  16  18
ATOM     18  C   UNL     1      44.481   4.108   9.254  0.00  0.00    +0.000 A 
ATOM     19  C   UNL     1      45.492   4.522   8.377  0.00  0.00    +0.000 A 
ATOM     20  C   UNL     1      46.339   3.603   7.749  0.00  0.00    +0.000 A 
ATOM     21  C   UNL     1      46.214   2.240   8.012  0.00  0.00    +0.000 A 
ATOM     22  C   UNL     1      45.227   1.804   8.901  0.00  0.00    +0.000 A 
ATOM     23  C   UNL     1      44.374   2.738   9.517  0.00  0.00    +0.000 A 
BRANCH  21  24
ATOM     24  C   UNL     1      47.141   1.308   7.308  0.00  0.00    +0.000 C 
ATOM     25  N   UNL     1      48.208   1.825   6.645  0.00  0.00    +0.000 N 
ATOM     26  O   UNL     1      46.938   0.093   7.306  0.00  0.00    +0.000 OA
ATOM     27  H   UNL     1      48.449   2.805   6.602  0.00  0.00    +0.000 HD
ATOM     28  H   UNL     1      48.820   1.161   6.177  0.00  0.00    +0.000 HD
ENDBRANCH  21  24
ENDBRANCH  16  18
ENDBRANCH  15  16
ENDBRANCH   1  15
TORSDOF 6
ENDMDL
MODEL 2
REMARK VINA RESULT:    -8.197      2.371      4.061
REMARK INTER + INTRA:         -12.371
REMARK INTER:                 -11.313
REMARK INTRA:                  -1.058
REMARK UNBOUND:                -1.299
REMARK  Name = 
REMARK  7 active torsions:
REMARK  status: ('A' for Active; 'I' for Inactive)
REMARK    1  A    between atoms: C_1  and  C_2
REMARK    2  A    between atoms: N_5  and  C_6
REMARK    3  A    between atoms: C_10  and  C_11
REMARK    4  A    between atoms: C_11  and  C_12
REMARK    5  A    between atoms: C_12  and  N_13
REMARK    6  A    between atoms: N_13  and  C_14
REMARK    7  A    between atoms: C_17  and  C_18
REMARK                            x       y       z     vdW  Elec       q    Type
REMARK                         _______ _______ _______ _____ _____    ______ ____
ROOT
ATOM      1  C   UNL     1      44.582   4.534  12.229  0.00  0.00    +0.000 C 
ENDROOT
BRANCH   1   6
ATOM      2  C   UNL     1      47.411   5.271  14.710  0.00  0.00    +0.000 A 
ATOM      3  C   UNL     1      48.162   6.203  13.983  0.00  0.00    +0.000 A 
ATOM      4  C   UNL     1      47.760   6.628  12.723  0.00  0.00    +0.000 A 
ATOM      5  C   UNL     1      46.596   6.122  12.156  0.00  0.00    +0.000 A 
ATOM      6  C   UNL     1      45.818   5.172  12.835  0.00  0.00    +0.000 A 
ATOM      7  C   UNL     1      46.234   4.778  14.116  0.00  0.00    +0.000 A 
BRANCH   2  12
ATOM      8  C   UNL     1      51.106   2.721  17.714  0.00  0.00    +0.000 C 
ATOM      9  C   UNL     1      49.784   3.462  17.539  0.00  0.00    +0.000 C 
ATOM     10  C   UNL     1      50.026   4.888  17.026  0.00  0.00    +0.000 C 
ATOM     11  C   UNL     1      48.716   5.628  16.792  0.00  0.00    +0.000 C 
ATOM     12  N   UNL     1      47.810   4.837  15.959  0.00  0.00    +0.000 N 
ATOM     13  C   UNL     1      47.542   3.456  16.366  0.00  0.00    +0.000 C 
ATOM     14  C   UNL     1      48.855   2.708  16.578  0.00  0.00    +0.000 C 
ENDBRANCH   2  12
ENDBRANCH   1   6
BRANCH   1  15
ATOM     15  C   UNL     1      43.956   5.347  11.094  0.00  0.00    +0.000 C 
BRANCH  15  16
ATOM     16  N   UNL     1      43.620   4.541   9.930  0.00  0.00    +0.000 N 
ATOM     17  H   UNL     1      42.747   4.724   9.447  0.00  0.00    +0.000 HD
BRANCH  16  18
ATOM     18  C   UNL     1      44.627   3.887   9.228  0.00  0.00    +0.000 A 
ATOM     19  C   UNL     1      44.749   2.492   9.207  0.00  0.00    +0.000 A 
ATOM     20  C   UNL     1      45.746   1.856   8.461  0.00  0.00    +0.000 A 
ATOM     21  C   UNL     1      46.629   2.605   7.685  0.00  0.00    +0.000 A 
ATOM     22  C   UNL     1      46.512   3.998   7.673  0.00  0.00    +0.000 A 
ATOM     23  C   UNL     1      45.513   4.627   8.437  0.00  0.00    +0.000 A 
BRANCH  21  24
ATOM     24  C   UNL     1      47.674   1.871   6.915  0.00  0.00    +0.000 C 
ATOM     25  N   UNL     1      48.600   2.587   6.226  0.00  0.00    +0.000 N 
ATOM     26  O   UNL     1      47.691   0.640   6.882  0.00  0.00    +0.000 OA
ATOM     27  H   UNL     1      48.661   3.595   6.204  0.00  0.00    +0.000 HD
ATOM     28  H   UNL     1      49.299   2.054   5.713  0.00  0.00    +0.000 HD
ENDBRANCH  21  24
ENDBRANCH  16  18
ENDBRANCH  15  16
ENDBRANCH   1  15
TORSDOF 6
ENDMDL
MODEL 3
REMARK VINA RESULT:    -8.093      2.414      3.810
REMARK INTER + INTRA:         -12.230
REMARK INTER:                 -11.158
REMARK INTRA:                  -1.072
REMARK UNBOUND:                -1.299
REMARK  Name = 
REMARK  7 active torsions:
REMARK  status: ('A' for Active; 'I' for Inactive)
REMARK    1  A    between atoms: C_1  and  C_2
REMARK    2  A    between atoms: N_5  and  C_6
REMARK    3  A    between atoms: C_10  and  C_11
REMARK    4  A    between atoms: C_11  and  C_12
REMARK    5  A    between atoms: C_12  and  N_13
REMARK    6  A    between atoms: N_13  and  C_14
REMARK    7  A    between atoms: C_17  and  C_18
REMARK                            x       y       z     vdW  Elec       q    Type
REMARK                         _______ _______ _______ _____ _____    ______ ____
ROOT
ATOM      1  C   UNL     1      44.785   4.738  12.235  0.00  0.00    +0.000 C 
ENDROOT
BRANCH   1   6
ATOM      2  C   UNL     1      47.751   5.765  14.438  0.00  0.00    +0.000 A 
ATOM      3  C   UNL     1      48.380   6.703  13.612  0.00  0.00    +0.000 A 
ATOM      4  C   UNL     1      47.852   7.041  12.371  0.00  0.00    +0.000 A 
ATOM      5  C   UNL     1      46.682   6.438  11.926  0.00  0.00    +0.000 A 
ATOM      6  C   UNL     1      46.023   5.478  12.708  0.00  0.00    +0.000 A 
ATOM      7  C   UNL     1      46.565   5.173  13.966  0.00  0.00    +0.000 A 
BRANCH   2  12
ATOM      8  C   UNL     1      47.442   6.123  19.820  0.00  0.00    +0.000 C 
ATOM      9  C   UNL     1      48.101   5.634  18.533  0.00  0.00    +0.000 C 
ATOM     10  C   UNL     1      47.142   4.733  17.742  0.00  0.00    +0.000 C 
ATOM     11  C   UNL     1      47.760   4.278  16.427  0.00  0.00    +0.000 C 
ATOM     12  N   UNL     1      48.275   5.418  15.669  0.00  0.00    +0.000 N 
ATOM     13  C   UNL     1      49.180   6.341  16.357  0.00  0.00    +0.000 C 
ATOM     14  C   UNL     1      48.551   6.815  17.663  0.00  0.00    +0.000 C 
ENDBRANCH   2  12
ENDBRANCH   1   6
BRANCH   1  15
ATOM     15  C   UNL     1      44.030   5.447  11.110  0.00  0.00    +0.000 C 
BRANCH  15  16
ATOM     16  N   UNL     1      43.616   4.547  10.043  0.00  0.00    +0.000 N 
ATOM     17  H   UNL     1      42.702   4.677   9.625  0.00  0.00    +0.000 HD
BRANCH  16  18
ATOM     18  C   UNL     1      44.576   3.860   9.308  0.00  0.00    +0.000 A 
ATOM     19  C   UNL     1      44.651   2.461   9.285  0.00  0.00    +0.000 A 
ATOM     20  C   UNL     1      45.599   1.791   8.506  0.00  0.00    +0.000 A 
ATOM     21  C   UNL     1      46.480   2.510   7.700  0.00  0.00    +0.000 A 
ATOM     22  C   UNL     1      46.410   3.906   7.689  0.00  0.00    +0.000 A 
ATOM     23  C   UNL     1      45.459   4.569   8.486  0.00  0.00    +0.000 A 
BRANCH  21  24
ATOM     24  C   UNL     1      47.473   1.741   6.896  0.00  0.00    +0.000 C 
ATOM     25  N   UNL     1      48.503   2.410   6.316  0.00  0.00    +0.000 N 
ATOM     26  O   UNL     1      47.356   0.525   6.738  0.00  0.00    +0.000 OA
ATOM     27  H   UNL     1      48.674   3.402   6.399  0.00  0.00    +0.000 HD
ATOM     28  H   UNL     1      49.162   1.854   5.776  0.00  0.00    +0.000 HD
ENDBRANCH  21  24
ENDBRANCH  16  18
ENDBRANCH  15  16
ENDBRANCH   1  15
TORSDOF 6
ENDMDL
MODEL 4
REMARK VINA RESULT:    -7.536      4.272      8.201
REMARK INTER + INTRA:         -11.479
REMARK INTER:                 -10.718
REMARK INTRA:                  -0.761
REMARK UNBOUND:                -1.299
REMARK  Name = 
REMARK  7 active torsions:
REMARK  status: ('A' for Active; 'I' for Inactive)
REMARK    1  A    between atoms: C_1  and  C_2
REMARK    2  A    between atoms: N_5  and  C_6
REMARK    3  A    between atoms: C_10  and  C_11
REMARK    4  A    between atoms: C_11  and  C_12
REMARK    5  A    between atoms: C_12  and  N_13
REMARK    6  A    between atoms: N_13  and  C_14
REMARK    7  A    between atoms: C_17  and  C_18
REMARK                            x       y       z     vdW  Elec       q    Type
REMARK                         _______ _______ _______ _____ _____    ______ ____
ROOT
ATOM      1  C   UNL     1      46.687   3.656  13.762  0.00  0.00    +0.000 C 
ENDROOT
BRANCH   1   6
ATOM      2  C   UNL     1      44.530   3.620  10.592  0.00  0.00    +0.000 A 
ATOM      3  C   UNL     1      43.363   4.233  11.061  0.00  0.00    +0.000 A 
ATOM      4  C   UNL     1      43.264   4.691  12.369  0.00  0.00    +0.000 A 
ATOM      5  C   UNL     1      44.334   4.538  13.242  0.00  0.00    +0.000 A 
ATOM      6  C   UNL     1      45.519   3.914  12.827  0.00  0.00    +0.000 A 
ATOM      7  C   UNL     1      45.601   3.482  11.495  0.00  0.00    +0.000 A 
BRANCH   2  12
ATOM      8  C   UNL     1      47.714   2.006   6.536  0.00  0.00    +0.000 C 
ATOM      9  C   UNL     1      46.347   2.312   7.143  0.00  0.00    +0.000 C 
ATOM     10  C   UNL     1      46.073   1.400   8.346  0.00  0.00    +0.000 C 
ATOM     11  C   UNL     1      44.737   1.724   9.001  0.00  0.00    +0.000 C 
ATOM     12  N   UNL     1      44.632   3.154   9.295  0.00  0.00    +0.000 N 
ATOM     13  C   UNL     1      44.900   4.095   8.206  0.00  0.00    +0.000 C 
ATOM     14  C   UNL     1      46.250   3.784   7.565  0.00  0.00    +0.000 C 
ENDBRANCH   2  12
ENDBRANCH   1   6
BRANCH   1  15
ATOM     15  C   UNL     1      46.808   4.672  14.900  0.00  0.00    +0.000 C 
BRANCH  15  16
ATOM     16  N   UNL     1      46.953   4.052  16.208  0.00  0.00    +0.000 N 
ATOM     17  H   UNL     1      46.151   3.587  16.617  0.00  0.00    +0.000 HD
BRANCH  16  18
ATOM     18  C   UNL     1      48.216   3.694  16.666  0.00  0.00    +0.000 A 
ATOM     19  C   UNL     1      48.692   2.377  16.617  0.00  0.00    +0.000 A 
ATOM     20  C   UNL     1      49.982   2.049  17.045  0.00  0.00    +0.000 A 
ATOM     21  C   UNL     1      50.844   3.043  17.506  0.00  0.00    +0.000 A 
ATOM     22  C   UNL     1      50.399   4.367  17.544  0.00  0.00    +0.000 A 
ATOM     23  C   UNL     1      49.095   4.683  17.121  0.00  0.00    +0.000 A 
BRANCH  21  24
ATOM     24  C   UNL     1      52.205   2.631  17.955  0.00  0.00    +0.000 C 
ATOM     25  N   UNL     1      52.419   1.330  18.281  0.00  0.00    +0.000 N 
ATOM     26  O   UNL     1      53.117   3.453  18.052  0.00  0.00    +0.000 OA
ATOM     27  H   UNL     1      51.730   0.593  18.225  0.00  0.00    +0.000 HD
ATOM     28  H   UNL     1      53.359   1.084  18.582  0.00  0.00    +0.000 HD
ENDBRANCH  21  24
ENDBRANCH  16  18
ENDBRANCH  15  16
ENDBRANCH   1  15
TORSDOF 6
ENDMDL
MODEL 5
REMARK VINA RESULT:    -7.449      3.369      7.674
REMARK INTER + INTRA:         -11.361
REMARK INTER:                 -10.261
REMARK INTRA:                  -1.100
REMARK UNBOUND:                -1.299
REMARK  Name = 
REMARK  7 active torsions:
REMARK  status: ('A' for Active; 'I' for Inactive)
REMARK    1  A    between atoms: C_1  and  C_2
REMARK    2  A    between atoms: N_5  and  C_6
REMARK    3  A    between atoms: C_10  and  C_11
REMARK    4  A    between atoms: C_11  and  C_12
REMARK    5  A    between atoms: C_12  and  N_13
REMARK    6  A    between atoms: N_13  and  C_14
REMARK    7  A    between atoms: C_17  and  C_18
REMARK                            x       y       z     vdW  Elec       q    Type
REMARK                         _______ _______ _______ _____ _____    ______ ____
ROOT
ATOM      1  C   UNL     1      45.480   7.047  12.405  0.00  0.00    +0.000 C 
ENDROOT
BRANCH   1   6
ATOM      2  C   UNL     1      44.387   3.907  10.494  0.00  0.00    +0.000 A 
ATOM      3  C   UNL     1      43.664   3.234  11.485  0.00  0.00    +0.000 A 
ATOM      4  C   UNL     1      43.489   3.784  12.750  0.00  0.00    +0.000 A 
ATOM      5  C   UNL     1      44.043   5.022  13.052  0.00  0.00    +0.000 A 
ATOM      6  C   UNL     1      44.792   5.728  12.100  0.00  0.00    +0.000 A 
ATOM      7  C   UNL     1      44.933   5.161  10.824  0.00  0.00    +0.000 A 
BRANCH   2  12
ATOM      8  C   UNL     1      47.807   1.889   6.830  0.00  0.00    +0.000 C 
ATOM      9  C   UNL     1      46.414   2.304   7.295  0.00  0.00    +0.000 C 
ATOM     10  C   UNL     1      45.981   1.479   8.515  0.00  0.00    +0.000 C 
ATOM     11  C   UNL     1      44.615   1.915   9.029  0.00  0.00    +0.000 C 
ATOM     12  N   UNL     1      44.572   3.362   9.238  0.00  0.00    +0.000 N 
ATOM     13  C   UNL     1      44.991   4.223   8.129  0.00  0.00    +0.000 C 
ATOM     14  C   UNL     1      46.369   3.801   7.630  0.00  0.00    +0.000 C 
ENDBRANCH   2  12
ENDBRANCH   1   6
BRANCH   1  15
ATOM     15  C   UNL     1      47.007   6.960  12.428  0.00  0.00    +0.000 C 
BRANCH  15  16
ATOM     16  N   UNL     1      47.500   5.685  12.926  0.00  0.00    +0.000 N 
ATOM     17  H   UNL     1      48.054   5.103  12.309  0.00  0.00    +0.000 HD
BRANCH  16  18
ATOM     18  C   UNL     1      47.622   5.479  14.297  0.00  0.00    +0.000 A 
ATOM     19  C   UNL     1      47.057   4.375  14.948  0.00  0.00    +0.000 A 
ATOM     20  C   UNL     1      47.228   4.169  16.320  0.00  0.00    +0.000 A 
ATOM     21  C   UNL     1      48.001   5.051  17.072  0.00  0.00    +0.000 A 
ATOM     22  C   UNL     1      48.592   6.149  16.441  0.00  0.00    +0.000 A 
ATOM     23  C   UNL     1      48.404   6.352  15.062  0.00  0.00    +0.000 A 
BRANCH  21  24
ATOM     24  C   UNL     1      48.142   4.782  18.533  0.00  0.00    +0.000 C 
ATOM     25  N   UNL     1      47.259   5.357  19.391  0.00  0.00    +0.000 N 
ATOM     26  O   UNL     1      49.052   4.071  18.962  0.00  0.00    +0.000 OA
ATOM     27  H   UNL     1      46.485   5.947  19.122  0.00  0.00    +0.000 HD
ATOM     28  H   UNL     1      47.384   5.151  20.379  0.00  0.00    +0.000 HD
ENDBRANCH  21  24
ENDBRANCH  16  18
ENDBRANCH  15  16
ENDBRANCH   1  15
TORSDOF 6
ENDMDL
MODEL 6
REMARK VINA RESULT:    -7.323      3.075      7.407
REMARK INTER + INTRA:         -11.191
REMARK INTER:                  -9.985
REMARK INTRA:                  -1.205
REMARK UNBOUND:                -1.299
REMARK  Name = 
REMARK  7 active torsions:
REMARK  status: ('A' for Active; 'I' for Inactive)
REMARK    1  A    between atoms: C_1  and  C_2
REMARK    2  A    between atoms: N_5  and  C_6
REMARK    3  A    between atoms: C_10  and  C_11
REMARK    4  A    between atoms: C_11  and  C_12
REMARK    5  A    between atoms: C_12  and  N_13
REMARK    6  A    between atoms: N_13  and  C_14
REMARK    7  A    between atoms: C_17  and  C_18
REMARK                            x       y       z     vdW  Elec       q    Type
REMARK                         _______ _______ _______ _____ _____    ______ ____
ROOT
ATOM      1  C   UNL     1      46.592   4.163  13.750  0.00  0.00    +0.000 C 
ENDROOT
BRANCH   1   6
ATOM      2  C   UNL     1      44.432   3.748  10.608  0.00  0.00    +0.000 A 
ATOM      3  C   UNL     1      43.190   4.182  11.084  0.00  0.00    +0.000 A 
ATOM      4  C   UNL     1      43.036   4.640  12.387  0.00  0.00    +0.000 A 
ATOM      5  C   UNL     1      44.126   4.666  13.248  0.00  0.00    +0.000 A 
ATOM      6  C   UNL     1      45.389   4.225  12.826  0.00  0.00    +0.000 A 
ATOM      7  C   UNL     1      45.521   3.790  11.499  0.00  0.00    +0.000 A 
BRANCH   2  12
ATOM      8  C   UNL     1      47.790   2.140   6.692  0.00  0.00    +0.000 C 
ATOM      9  C   UNL     1      46.398   2.444   7.240  0.00  0.00    +0.000 C 
ATOM     10  C   UNL     1      46.072   1.531   8.430  0.00  0.00    +0.000 C 
ATOM     11  C   UNL     1      44.709   1.854   9.026  0.00  0.00    +0.000 C 
ATOM     12  N   UNL     1      44.591   3.283   9.317  0.00  0.00    +0.000 N 
ATOM     13  C   UNL     1      44.906   4.225   8.241  0.00  0.00    +0.000 C 
ATOM     14  C   UNL     1      46.282   3.916   7.659  0.00  0.00    +0.000 C 
ENDBRANCH   2  12
ENDBRANCH   1   6
BRANCH   1  15
ATOM     15  C   UNL     1      47.288   5.510  13.953  0.00  0.00    +0.000 C 
BRANCH  15  16
ATOM     16  N   UNL     1      47.647   6.163  12.702  0.00  0.00    +0.000 N 
ATOM     17  H   UNL     1      47.923   5.588  11.915  0.00  0.00    +0.000 HD
BRANCH  16  18
ATOM     18  C   UNL     1      47.188   7.449  12.439  0.00  0.00    +0.000 A 
ATOM     19  C   UNL     1      45.836   7.804  12.536  0.00  0.00    +0.000 A 
ATOM     20  C   UNL     1      45.405   9.114  12.306  0.00  0.00    +0.000 A 
ATOM     21  C   UNL     1      46.327  10.114  12.004  0.00  0.00    +0.000 A 
ATOM     22  C   UNL     1      47.684   9.789  11.922  0.00  0.00    +0.000 A 
ATOM     23  C   UNL     1      48.104   8.466  12.145  0.00  0.00    +0.000 A 
BRANCH  21  24
ATOM     24  C   UNL     1      45.806  11.491  11.763  0.00  0.00    +0.000 C 
ATOM     25  N   UNL     1      44.466  11.703  11.827  0.00  0.00    +0.000 N 
ATOM     26  O   UNL     1      46.569  12.419  11.489  0.00  0.00    +0.000 OA
ATOM     27  H   UNL     1      43.775  11.001  12.049  0.00  0.00    +0.000 HD
ATOM     28  H   UNL     1      44.146  12.654  11.658  0.00  0.00    +0.000 HD
ENDBRANCH  21  24
ENDBRANCH  16  18
ENDBRANCH  15  16
ENDBRANCH   1  15
TORSDOF 6
ENDMDL
MODEL 7
REMARK VINA RESULT:    -7.225      1.493      2.446
REMARK INTER + INTRA:         -11.058
REMARK INTER:                 -10.132
REMARK INTRA:                  -0.926
REMARK UNBOUND:                -1.299
REMARK  Name = 
REMARK  7 active torsions:
REMARK  status: ('A' for Active; 'I' for Inactive)
REMARK    1  A    between atoms: C_1  and  C_2
REMARK    2  A    between atoms: N_5  and  C_6
REMARK    3  A    between atoms: C_10  and  C_11
REMARK    4  A    between atoms: C_11  and  C_12
REMARK    5  A    between atoms: C_12  and  N_13
REMARK    6  A    between atoms: N_13  and  C_14
REMARK    7  A    between atoms: C_17  and  C_18
REMARK                            x       y       z     vdW  Elec       q    Type
REMARK                         _______ _______ _______ _____ _____    ______ ____
ROOT
ATOM      1  C   UNL     1      44.847   5.512  11.955  0.00  0.00    +0.000 C 
ENDROOT
BRANCH   1   6
ATOM      2  C   UNL     1      47.336   8.414  12.246  0.00  0.00    +0.000 A 
ATOM      3  C   UNL     1      46.502   9.505  11.978  0.00  0.00    +0.000 A 
ATOM      4  C   UNL     1      45.143   9.332  11.740  0.00  0.00    +0.000 A 
ATOM      5  C   UNL     1      44.591   8.058  11.756  0.00  0.00    +0.000 A 
ATOM      6  C   UNL     1      45.388   6.930  12.000  0.00  0.00    +0.000 A 
ATOM      7  C   UNL     1      46.751   7.134  12.261  0.00  0.00    +0.000 A 
BRANCH   2  12
ATOM      8  C   UNL     1      52.270   9.217  10.194  0.00  0.00    +0.000 C 
ATOM      9  C   UNL     1      51.310   8.990  11.359  0.00  0.00    +0.000 C 
ATOM     10  C   UNL     1      50.296  10.138  11.457  0.00  0.00    +0.000 C 
ATOM     11  C   UNL     1      49.294   9.905  12.580  0.00  0.00    +0.000 C 
ATOM     12  N   UNL     1      48.689   8.577  12.474  0.00  0.00    +0.000 N 
ATOM     13  C   UNL     1      49.588   7.427  12.355  0.00  0.00    +0.000 C 
ATOM     14  C   UNL     1      50.576   7.651  11.215  0.00  0.00    +0.000 C 
ENDBRANCH   2  12
ENDBRANCH   1   6
BRANCH   1  15
ATOM     15  C   UNL     1      43.819   5.275  10.847  0.00  0.00    +0.000 C 
BRANCH  15  16
ATOM     16  N   UNL     1      43.802   3.901  10.367  0.00  0.00    +0.000 N 
ATOM     17  H   UNL     1      42.959   3.353  10.493  0.00  0.00    +0.000 HD
BRANCH  16  18
ATOM     18  C   UNL     1      44.694   3.504   9.377  0.00  0.00    +0.000 A 
ATOM     19  C   UNL     1      45.331   4.415   8.524  0.00  0.00    +0.000 A 
ATOM     20  C   UNL     1      46.256   3.996   7.563  0.00  0.00    +0.000 A 
ATOM     21  C   UNL     1      46.593   2.647   7.455  0.00  0.00    +0.000 A 
ATOM     22  C   UNL     1      45.986   1.722   8.309  0.00  0.00    +0.000 A 
ATOM     23  C   UNL     1      45.049   2.155   9.264  0.00  0.00    +0.000 A 
BRANCH  21  24
ATOM     24  C   UNL     1      47.581   2.259   6.407  0.00  0.00    +0.000 C 
ATOM     25  N   UNL     1      47.770   3.089   5.348  0.00  0.00    +0.000 N 
ATOM     26  O   UNL     1      48.201   1.198   6.483  0.00  0.00    +0.000 OA
ATOM     27  H   UNL     1      47.308   3.977   5.213  0.00  0.00    +0.000 HD
ATOM     28  H   UNL     1      48.452   2.794   4.654  0.00  0.00    +0.000 HD
ENDBRANCH  21  24
ENDBRANCH  16  18
ENDBRANCH  15  16
ENDBRANCH   1  15
TORSDOF 6
ENDMDL
MODEL 8
REMARK VINA RESULT:    -7.139      1.476      2.145
REMARK INTER + INTRA:         -10.942
REMARK INTER:                 -10.111
REMARK INTRA:                  -0.830
REMARK UNBOUND:                -1.299
REMARK  Name = 
REMARK  7 active torsions:
REMARK  status: ('A' for Active; 'I' for Inactive)
REMARK    1  A    between atoms: C_1  and  C_2
REMARK    2  A    between atoms: N_5  and  C_6
REMARK    3  A    between atoms: C_10  and  C_11
REMARK    4  A    between atoms: C_11  and  C_12
REMARK    5  A    between atoms: C_12  and  N_13
REMARK    6  A    between atoms: N_13  and  C_14
REMARK    7  A    between atoms: C_17  and  C_18
REMARK                            x       y       z     vdW  Elec       q    Type
REMARK                         _______ _______ _______ _____ _____    ______ ____
ROOT
ATOM      1  C   UNL     1      44.544   5.442  11.830  0.00  0.00    +0.000 C 
ENDROOT
BRANCH   1   6
ATOM      2  C   UNL     1      47.839   6.918  13.121  0.00  0.00    +0.000 A 
ATOM      3  C   UNL     1      48.087   6.086  14.219  0.00  0.00    +0.000 A 
ATOM      4  C   UNL     1      47.235   5.034  14.535  0.00  0.00    +0.000 A 
ATOM      5  C   UNL     1      46.106   4.797  13.760  0.00  0.00    +0.000 A 
ATOM      6  C   UNL     1      45.802   5.613  12.661  0.00  0.00    +0.000 A 
ATOM      7  C   UNL     1      46.692   6.653  12.350  0.00  0.00    +0.000 A 
BRANCH   2  12
ATOM      8  C   UNL     1      52.891   8.771  12.638  0.00  0.00    +0.000 C 
ATOM      9  C   UNL     1      51.376   8.941  12.570  0.00  0.00    +0.000 C 
ATOM     10  C   UNL     1      50.771   8.003  11.516  0.00  0.00    +0.000 C 
ATOM     11  C   UNL     1      49.254   8.117  11.470  0.00  0.00    +0.000 C 
ATOM     12  N   UNL     1      48.677   7.970  12.806  0.00  0.00    +0.000 N 
ATOM     13  C   UNL     1      49.213   8.814  13.876  0.00  0.00    +0.000 C 
ATOM     14  C   UNL     1      50.731   8.681  13.938  0.00  0.00    +0.000 C 
ENDBRANCH   2  12
ENDBRANCH   1   6
BRANCH   1  15
ATOM     15  C   UNL     1      44.052   3.996  11.738  0.00  0.00    +0.000 C 
BRANCH  15  16
ATOM     16  N   UNL     1      43.668   3.607  10.389  0.00  0.00    +0.000 N 
ATOM     17  H   UNL     1      42.753   3.878  10.047  0.00  0.00    +0.000 HD
BRANCH  16  18
ATOM     18  C   UNL     1      44.649   3.303   9.452  0.00  0.00    +0.000 A 
ATOM     19  C   UNL     1      45.045   1.988   9.172  0.00  0.00    +0.000 A 
ATOM     20  C   UNL     1      46.005   1.705   8.195  0.00  0.00    +0.000 A 
ATOM     21  C   UNL     1      46.571   2.736   7.447  0.00  0.00    +0.000 A 
ATOM     22  C   UNL     1      46.176   4.054   7.694  0.00  0.00    +0.000 A 
ATOM     23  C   UNL     1      45.218   4.327   8.686  0.00  0.00    +0.000 A 
BRANCH  21  24
ATOM     24  C   UNL     1      47.594   2.372   6.424  0.00  0.00    +0.000 C 
ATOM     25  N   UNL     1      47.517   2.941   5.193  0.00  0.00    +0.000 N 
ATOM     26  O   UNL     1      48.482   1.556   6.677  0.00  0.00    +0.000 OA
ATOM     27  H   UNL     1      46.826   3.620   4.906  0.00  0.00    +0.000 HD
ATOM     28  H   UNL     1      48.231   2.671   4.521  0.00  0.00    +0.000 HD
ENDBRANCH  21  24
ENDBRANCH  16  18
ENDBRANCH  15  16
ENDBRANCH   1  15
TORSDOF 6
ENDMDL
MODEL 9
REMARK VINA RESULT:    -6.844      1.997      2.929
REMARK INTER + INTRA:         -10.544
REMARK INTER:                  -9.995
REMARK INTRA:                  -0.549
REMARK UNBOUND:                -1.299
REMARK  Name = 
REMARK  7 active torsions:
REMARK  status: ('A' for Active; 'I' for Inactive)
REMARK    1  A    between atoms: C_1  and  C_2
REMARK    2  A    between atoms: N_5  and  C_6
REMARK    3  A    between atoms: C_10  and  C_11
REMARK    4  A    between atoms: C_11  and  C_12
REMARK    5  A    between atoms: C_12  and  N_13
REMARK    6  A    between atoms: N_13  and  C_14
REMARK    7  A    between atoms: C_17  and  C_18
REMARK                            x       y       z     vdW  Elec       q    Type
REMARK                         _______ _______ _______ _____ _____    ______ ____
ROOT
ATOM      1  C   UNL     1      45.458   4.937  11.574  0.00  0.00    +0.000 C 
ENDROOT
BRANCH   1   6
ATOM      2  C   UNL     1      47.412   7.683  13.403  0.00  0.00    +0.000 A 
ATOM      3  C   UNL     1      46.659   8.813  13.063  0.00  0.00    +0.000 A 
ATOM      4  C   UNL     1      45.513   8.708  12.284  0.00  0.00    +0.000 A 
ATOM      5  C   UNL     1      45.098   7.466  11.821  0.00  0.00    +0.000 A 
ATOM      6  C   UNL     1      45.827   6.306  12.118  0.00  0.00    +0.000 A 
ATOM      7  C   UNL     1      46.967   6.436  12.925  0.00  0.00    +0.000 A 
BRANCH   2  12
ATOM      8  C   UNL     1      49.697   9.174  18.067  0.00  0.00    +0.000 C 
ATOM      9  C   UNL     1      49.757   8.596  16.655  0.00  0.00    +0.000 C 
ATOM     10  C   UNL     1      48.916   7.315  16.558  0.00  0.00    +0.000 C 
ATOM     11  C   UNL     1      48.918   6.751  15.144  0.00  0.00    +0.000 C 
ATOM     12  N   UNL     1      48.557   7.781  14.169  0.00  0.00    +0.000 N 
ATOM     13  C   UNL     1      49.297   9.044  14.208  0.00  0.00    +0.000 C 
ATOM     14  C   UNL     1      49.275   9.621  15.620  0.00  0.00    +0.000 C 
ENDBRANCH   2  12
ENDBRANCH   1   6
BRANCH   1  15
ATOM     15  C   UNL     1      43.965   4.765  11.288  0.00  0.00    +0.000 C 
BRANCH  15  16
ATOM     16  N   UNL     1      43.679   3.658  10.388  0.00  0.00    +0.000 N 
ATOM     17  H   UNL     1      42.715   3.372  10.260  0.00  0.00    +0.000 HD
BRANCH  16  18
ATOM     18  C   UNL     1      44.595   3.319   9.398  0.00  0.00    +0.000 A 
ATOM     19  C   UNL     1      45.215   4.274   8.583  0.00  0.00    +0.000 A 
ATOM     20  C   UNL     1      46.164   3.912   7.622  0.00  0.00    +0.000 A 
ATOM     21  C   UNL     1      46.542   2.578   7.476  0.00  0.00    +0.000 A 
ATOM     22  C   UNL     1      45.952   1.609   8.293  0.00  0.00    +0.000 A 
ATOM     23  C   UNL     1      44.991   1.985   9.248  0.00  0.00    +0.000 A 
BRANCH  21  24
ATOM     24  C   UNL     1      47.554   2.252   6.430  0.00  0.00    +0.000 C 
ATOM     25  N   UNL     1      47.519   2.929   5.253  0.00  0.00    +0.000 N 
ATOM     26  O   UNL     1      48.395   1.371   6.615  0.00  0.00    +0.000 OA
ATOM     27  H   UNL     1      46.868   3.667   5.024  0.00  0.00    +0.000 HD
ATOM     28  H   UNL     1      48.225   2.682   4.564  0.00  0.00    +0.000 HD
ENDBRANCH  21  24
ENDBRANCH  16  18
ENDBRANCH  15  16
ENDBRANCH   1  15
TORSDOF 6
ENDMDL
