MODEL 1
REMARK VINA RESULT:    -6.900      0.000      0.000
REMARK INTER + INTRA:         -12.016
REMARK INTER:                 -10.531
REMARK INTRA:                  -1.485
REMARK UNBOUND:                -1.485
REMARK  Name = 
REMARK  12 active torsions:
REMARK  status: ('A' for Active; 'I' for Inactive)
REMARK    1  A    between atoms: C_1  and  O_2
REMARK    2  A    between atoms: O_2  and  C_3
REMARK    3  A    between atoms: C_8  and  C_9
REMARK    4  A    between atoms: C_9  and  O_10
REMARK    5  A    between atoms: O_10  and  C_11
REMARK    6  A    between atoms: C_11  and  C_12
REMARK    7  A    between atoms: C_15  and  C_16
REMARK    8  A    between atoms: C_16  and  N_17
REMARK    9  A    between atoms: N_17  and  C_18
REMARK   10  A    between atoms: C_19  and  C_21
REMARK   11  A    between atoms: C_28  and  O_29
REMARK   12  A    between atoms: O_29  and  C_30
REMARK                            x       y       z     vdW  Elec       q    Type
REMARK                         _______ _______ _______ _____ _____    ______ ____
ROOT
ATOM      1  C   UNL     1      44.813   4.482  11.947  0.00  0.00    +0.000 A 
ATOM      2  C   UNL     1      45.011   5.702  11.287  0.00  0.00    +0.000 A 
ATOM      3  C   UNL     1      46.093   6.520  11.620  0.00  0.00    +0.000 A 
ATOM      4  C   UNL     1      46.994   6.144  12.626  0.00  0.00    +0.000 A 
ATOM      5  C   UNL     1      46.759   4.952  13.326  0.00  0.00    +0.000 A 
ATOM      6  C   UNL     1      45.682   4.126  12.986  0.00  0.00    +0.000 A 
ENDROOT
BRANCH   1   7
ATOM      7  C   UNL     1      43.725   3.540  11.489  0.00  0.00    +0.000 C 
BRANCH   7   8
ATOM      8  O   UNL     1      43.713   3.402  10.068  0.00  0.00    +0.000 OA
BRANCH   8   9
ATOM      9  C   UNL     1      44.432   2.247   9.613  0.00  0.00    +0.000 C 
BRANCH   9  15
ATOM     10  C   UNL     1      46.288   1.639   7.989  0.00  0.00    +0.000 A 
ATOM     11  C   UNL     1      47.271   2.016   7.066  0.00  0.00    +0.000 A 
ATOM     12  C   UNL     1      47.448   3.358   6.725  0.00  0.00    +0.000 A 
ATOM     13  C   UNL     1      46.640   4.333   7.297  0.00  0.00    +0.000 A 
ATOM     14  C   UNL     1      45.653   3.967   8.210  0.00  0.00    +0.000 A 
ATOM     15  C   UNL     1      45.452   2.619   8.557  0.00  0.00    +0.000 A 
BRANCH  10  17
ATOM     16  C   UNL     1      46.731  -0.677   7.657  0.00  0.00    +0.000 C 
ATOM     17  O   UNL     1      46.061   0.346   8.387  0.00  0.00    +0.000 OA
ENDBRANCH  10  17
ENDBRANCH   9  15
ENDBRANCH   8   9
ENDBRANCH   7   8
ENDBRANCH   1   7
BRANCH   4  18
ATOM     18  C   UNL     1      48.243   6.956  12.890  0.00  0.00    +0.000 C 
BRANCH  18  19
ATOM     19  N   UNL     1      48.237   7.717  14.141  0.00  0.00    +0.000 N 
ATOM     20  C   UNL     1      47.286   8.816  14.237  0.00  0.00    +0.000 C 
ATOM     21  C   UNL     1      49.266   7.464  15.063  0.00  0.00    +0.000 C 
ATOM     22  O   UNL     1      50.113   6.600  14.848  0.00  0.00    +0.000 OA
BRANCH  21  23
ATOM     23  C   UNL     1      49.313   8.217  16.325  0.00  0.00    +0.000 A 
ATOM     24  C   UNL     1      49.780   9.516  16.437  0.00  0.00    +0.000 A 
ATOM     25  S   UNL     1      49.629  10.157  18.010  0.00  0.00    +0.000 S 
ATOM     26  C   UNL     1      48.841   8.755  18.561  0.00  0.00    +0.000 A 
ATOM     27  N   UNL     1      48.383   8.696  19.823  0.00  0.00    +0.000 NA
ATOM     28  C   UNL     1      47.790   7.534  20.098  0.00  0.00    +0.000 A 
ATOM     29  N   UNL     1      47.661   6.475  19.292  0.00  0.00    +0.000 NA
ATOM     30  C   UNL     1      48.137   6.584  18.029  0.00  0.00    +0.000 A 
ATOM     31  C   UNL     1      48.751   7.767  17.594  0.00  0.00    +0.000 A 
BRANCH  30  32
ATOM     32  O   UNL     1      48.087   5.473  17.215  0.00  0.00    +0.000 OA
ATOM     33  C   UNL     1      47.379   4.396  17.817  0.00  0.00    +0.000 C 
ENDBRANCH  30  32
ENDBRANCH  21  23
ENDBRANCH  18  19
ENDBRANCH   4  18
TORSDOF 9
ENDMDL
MODEL 2
REMARK VINA RESULT:    -6.798      3.297      4.771
REMARK INTER + INTRA:         -11.859
REMARK INTER:                 -10.622
REMARK INTRA:                  -1.237
REMARK UNBOUND:                -1.485
REMARK  Name = 
REMARK  12 active torsions:
REMARK  status: ('A' for Active; 'I' for Inactive)
REMARK    1  A    between atoms: C_1  and  O_2
REMARK    2  A    between atoms: O_2  and  C_3
REMARK    3  A    between atoms: C_8  and  C_9
REMARK    4  A    between atoms: C_9  and  O_10
REMARK    5  A    between atoms: O_10  and  C_11
REMARK    6  A    between atoms: C_11  and  C_12
REMARK    7  A    between atoms: C_15  and  C_16
REMARK    8  A    between atoms: C_16  and  N_17
REMARK    9  A    between atoms: N_17  and  C_18
REMARK   10  A    between atoms: C_19  and  C_21
REMARK   11  A    between atoms: C_28  and  O_29
REMARK   12  A    between atoms: O_29  and  C_30
REMARK                            x       y       z     vdW  Elec       q    Type
REMARK                         _______ _______ _______ _____ _____    ______ ____
ROOT
ATOM      1  C   UNL     1      47.320   7.328  13.093  0.00  0.00    +0.000 A 
ATOM      2  C   UNL     1      47.710   6.197  13.821  0.00  0.00    +0.000 A 
ATOM      3  C   UNL     1      48.434   6.333  15.008  0.00  0.00    +0.000 A 
ATOM      4  C   UNL     1      48.793   7.601  15.488  0.00  0.00    +0.000 A 
ATOM      5  C   UNL     1      48.453   8.728  14.725  0.00  0.00    +0.000 A 
ATOM      6  C   UNL     1      47.719   8.593  13.542  0.00  0.00    +0.000 A 
ENDROOT
BRANCH   1   7
ATOM      7  C   UNL     1      46.422   7.181  11.888  0.00  0.00    +0.000 C 
BRANCH   7   8
ATOM      8  O   UNL     1      45.693   5.953  11.921  0.00  0.00    +0.000 OA
BRANCH   8   9
ATOM      9  C   UNL     1      44.631   5.908  10.958  0.00  0.00    +0.000 C 
BRANCH   9  15
ATOM     10  C   UNL     1      44.171   3.580  10.053  0.00  0.00    +0.000 A 
ATOM     11  C   UNL     1      44.448   2.548   9.147  0.00  0.00    +0.000 A 
ATOM     12  C   UNL     1      45.419   2.713   8.157  0.00  0.00    +0.000 A 
ATOM     13  C   UNL     1      46.116   3.911   8.060  0.00  0.00    +0.000 A 
ATOM     14  C   UNL     1      45.840   4.948   8.950  0.00  0.00    +0.000 A 
ATOM     15  C   UNL     1      44.858   4.804   9.946  0.00  0.00    +0.000 A 
BRANCH  10  17
ATOM     16  C   UNL     1      43.600   2.707  12.193  0.00  0.00    +0.000 C 
ATOM     17  O   UNL     1      43.244   3.492  11.060  0.00  0.00    +0.000 OA
ENDBRANCH  10  17
ENDBRANCH   9  15
ENDBRANCH   8   9
ENDBRANCH   7   8
ENDBRANCH   1   7
BRANCH   4  18
ATOM     18  C   UNL     1      49.450   7.759  16.841  0.00  0.00    +0.000 C 
BRANCH  18  19
ATOM     19  N   UNL     1      50.575   6.857  17.096  0.00  0.00    +0.000 N 
ATOM     20  C   UNL     1      51.682   6.905  16.151  0.00  0.00    +0.000 C 
ATOM     21  C   UNL     1      50.419   5.889  18.101  0.00  0.00    +0.000 C 
ATOM     22  O   UNL     1      49.392   5.832  18.775  0.00  0.00    +0.000 OA
BRANCH  21  23
ATOM     23  C   UNL     1      51.513   4.948  18.381  0.00  0.00    +0.000 A 
ATOM     24  C   UNL     1      52.619   5.252  19.159  0.00  0.00    +0.000 A 
ATOM     25  S   UNL     1      53.676   3.931  19.377  0.00  0.00    +0.000 S 
ATOM     26  C   UNL     1      52.635   2.891  18.526  0.00  0.00    +0.000 A 
ATOM     27  N   UNL     1      52.936   1.586  18.416  0.00  0.00    +0.000 NA
ATOM     28  C   UNL     1      52.022   0.907  17.722  0.00  0.00    +0.000 A 
ATOM     29  N   UNL     1      50.927   1.392  17.127  0.00  0.00    +0.000 NA
ATOM     30  C   UNL     1      50.666   2.712  17.269  0.00  0.00    +0.000 A 
ATOM     31  C   UNL     1      51.525   3.538  18.008  0.00  0.00    +0.000 A 
BRANCH  30  32
ATOM     32  O   UNL     1      49.588   3.241  16.592  0.00  0.00    +0.000 OA
ATOM     33  C   UNL     1      48.347   2.770  17.106  0.00  0.00    +0.000 C 
ENDBRANCH  30  32
ENDBRANCH  21  23
ENDBRANCH  18  19
ENDBRANCH   4  18
TORSDOF 9
ENDMDL
MODEL 3
REMARK VINA RESULT:    -6.371      1.730      2.473
REMARK INTER + INTRA:         -11.207
REMARK INTER:                  -9.751
REMARK INTRA:                  -1.456
REMARK UNBOUND:                -1.485
REMARK  Name = 
REMARK  12 active torsions:
REMARK  status: ('A' for Active; 'I' for Inactive)
REMARK    1  A    between atoms: C_1  and  O_2
REMARK    2  A    between atoms: O_2  and  C_3
REMARK    3  A    between atoms: C_8  and  C_9
REMARK    4  A    between atoms: C_9  and  O_10
REMARK    5  A    between atoms: O_10  and  C_11
REMARK    6  A    between atoms: C_11  and  C_12
REMARK    7  A    between atoms: C_15  and  C_16
REMARK    8  A    between atoms: C_16  and  N_17
REMARK    9  A    between atoms: N_17  and  C_18
REMARK   10  A    between atoms: C_19  and  C_21
REMARK   11  A    between atoms: C_28  and  O_29
REMARK   12  A    between atoms: O_29  and  C_30
REMARK                            x       y       z     vdW  Elec       q    Type
REMARK                         _______ _______ _______ _____ _____    ______ ____
ROOT
ATOM      1  C   UNL     1      45.285   5.249  12.599  0.00  0.00    +0.000 A 
ATOM      2  C   UNL     1      46.600   4.893  12.925  0.00  0.00    +0.000 A 
ATOM      3  C   UNL     1      47.534   5.871  13.273  0.00  0.00    +0.000 A 
ATOM      4  C   UNL     1      47.178   7.227  13.293  0.00  0.00    +0.000 A 
ATOM      5  C   UNL     1      45.879   7.586  12.908  0.00  0.00    +0.000 A 
ATOM      6  C   UNL     1      44.940   6.606  12.570  0.00  0.00    +0.000 A 
ENDROOT
BRANCH   1   7
ATOM      7  C   UNL     1      44.248   4.179  12.359  0.00  0.00    +0.000 C 
BRANCH   7   8
ATOM      8  O   UNL     1      44.751   3.134  11.525  0.00  0.00    +0.000 OA
BRANCH   8   9
ATOM      9  C   UNL     1      44.144   3.116  10.225  0.00  0.00    +0.000 C 
BRANCH   9  15
ATOM     10  C   UNL     1      45.719   3.914   8.400  0.00  0.00    +0.000 A 
ATOM     11  C   UNL     1      46.617   3.641   7.360  0.00  0.00    +0.000 A 
ATOM     12  C   UNL     1      46.953   2.324   7.039  0.00  0.00    +0.000 A 
ATOM     13  C   UNL     1      46.402   1.271   7.757  0.00  0.00    +0.000 A 
ATOM     14  C   UNL     1      45.515   1.532   8.800  0.00  0.00    +0.000 A 
ATOM     15  C   UNL     1      45.174   2.851   9.146  0.00  0.00    +0.000 A 
BRANCH  10  17
ATOM     16  C   UNL     1      46.306   5.990   9.408  0.00  0.00    +0.000 C 
ATOM     17  O   UNL     1      45.328   5.176   8.768  0.00  0.00    +0.000 OA
ENDBRANCH  10  17
ENDBRANCH   9  15
ENDBRANCH   8   9
ENDBRANCH   7   8
ENDBRANCH   1   7
BRANCH   4  18
ATOM     18  C   UNL     1      48.143   8.274  13.806  0.00  0.00    +0.000 C 
BRANCH  18  19
ATOM     19  N   UNL     1      48.526   8.132  15.212  0.00  0.00    +0.000 N 
ATOM     20  C   UNL     1      47.711   8.840  16.189  0.00  0.00    +0.000 C 
ATOM     21  C   UNL     1      49.746   7.496  15.494  0.00  0.00    +0.000 C 
ATOM     22  O   UNL     1      50.444   7.033  14.595  0.00  0.00    +0.000 OA
BRANCH  21  23
ATOM     23  C   UNL     1      50.183   7.347  16.891  0.00  0.00    +0.000 A 
ATOM     24  C   UNL     1      50.945   8.282  17.570  0.00  0.00    +0.000 A 
ATOM     25  S   UNL     1      51.220   7.875  19.203  0.00  0.00    +0.000 S 
ATOM     26  C   UNL     1      50.242   6.490  19.076  0.00  0.00    +0.000 A 
ATOM     27  N   UNL     1      50.011   5.732  20.161  0.00  0.00    +0.000 NA
ATOM     28  C   UNL     1      49.226   4.686  19.896  0.00  0.00    +0.000 A 
ATOM     29  N   UNL     1      48.722   4.327  18.711  0.00  0.00    +0.000 NA
ATOM     30  C   UNL     1      48.982   5.124  17.648  0.00  0.00    +0.000 A 
ATOM     31  C   UNL     1      49.763   6.280  17.793  0.00  0.00    +0.000 A 
BRANCH  30  32
ATOM     32  O   UNL     1      48.540   4.722  16.406  0.00  0.00    +0.000 OA
ATOM     33  C   UNL     1      47.355   3.938  16.486  0.00  0.00    +0.000 C 
ENDBRANCH  30  32
ENDBRANCH  21  23
ENDBRANCH  18  19
ENDBRANCH   4  18
TORSDOF 9
ENDMDL
MODEL 4
REMARK VINA RESULT:    -6.336      2.104      2.925
REMARK INTER + INTRA:         -11.155
REMARK INTER:                 -10.102
REMARK INTRA:                  -1.053
REMARK UNBOUND:                -1.485
REMARK  Name = 
REMARK  12 active torsions:
REMARK  status: ('A' for Active; 'I' for Inactive)
REMARK    1  A    between atoms: C_1  and  O_2
REMARK    2  A    between atoms: O_2  and  C_3
REMARK    3  A    between atoms: C_8  and  C_9
REMARK    4  A    between atoms: C_9  and  O_10
REMARK    5  A    between atoms: O_10  and  C_11
REMARK    6  A    between atoms: C_11  and  C_12
REMARK    7  A    between atoms: C_15  and  C_16
REMARK    8  A    between atoms: C_16  and  N_17
REMARK    9  A    between atoms: N_17  and  C_18
REMARK   10  A    between atoms: C_19  and  C_21
REMARK   11  A    between atoms: C_28  and  O_29
REMARK   12  A    between atoms: O_29  and  C_30
REMARK                            x       y       z     vdW  Elec       q    Type
REMARK                         _______ _______ _______ _____ _____    ______ ____
ROOT
ATOM      1  C   UNL     1      44.717   4.603  11.848  0.00  0.00    +0.000 A 
ATOM      2  C   UNL     1      45.715   4.586  12.831  0.00  0.00    +0.000 A 
ATOM      3  C   UNL     1      46.413   5.751  13.154  0.00  0.00    +0.000 A 
ATOM      4  C   UNL     1      46.137   6.958  12.495  0.00  0.00    +0.000 A 
ATOM      5  C   UNL     1      45.180   6.960  11.470  0.00  0.00    +0.000 A 
ATOM      6  C   UNL     1      44.473   5.795  11.154  0.00  0.00    +0.000 A 
ENDROOT
BRANCH   1   7
ATOM      7  C   UNL     1      43.874   3.376  11.602  0.00  0.00    +0.000 C 
BRANCH   7   8
ATOM      8  O   UNL     1      44.516   2.466  10.707  0.00  0.00    +0.000 OA
BRANCH   8   9
ATOM      9  C   UNL     1      44.304   2.795   9.327  0.00  0.00    +0.000 C 
BRANCH   9  15
ATOM     10  C   UNL     1      46.199   3.358   7.733  0.00  0.00    +0.000 A 
ATOM     11  C   UNL     1      47.253   2.955   6.903  0.00  0.00    +0.000 A 
ATOM     12  C   UNL     1      47.593   1.606   6.790  0.00  0.00    +0.000 A 
ATOM     13  C   UNL     1      46.889   0.649   7.510  0.00  0.00    +0.000 A 
ATOM     14  C   UNL     1      45.844   1.040   8.346  0.00  0.00    +0.000 A 
ATOM     15  C   UNL     1      45.495   2.395   8.481  0.00  0.00    +0.000 A 
BRANCH  10  17
ATOM     16  C   UNL     1      46.653   5.513   8.638  0.00  0.00    +0.000 C 
ATOM     17  O   UNL     1      45.795   4.659   7.887  0.00  0.00    +0.000 OA
ENDBRANCH  10  17
ENDBRANCH   9  15
ENDBRANCH   8   9
ENDBRANCH   7   8
ENDBRANCH   1   7
BRANCH   4  18
ATOM     18  C   UNL     1      46.788   8.249  12.940  0.00  0.00    +0.000 C 
BRANCH  18  19
ATOM     19  N   UNL     1      48.211   8.147  13.270  0.00  0.00    +0.000 N 
ATOM     20  C   UNL     1      49.071   7.511  12.282  0.00  0.00    +0.000 C 
ATOM     21  C   UNL     1      48.603   8.486  14.576  0.00  0.00    +0.000 C 
ATOM     22  O   UNL     1      47.787   8.898  15.397  0.00  0.00    +0.000 OA
BRANCH  21  23
ATOM     23  C   UNL     1      50.018   8.381  14.961  0.00  0.00    +0.000 A 
ATOM     24  C   UNL     1      50.953   9.384  14.762  0.00  0.00    +0.000 A 
ATOM     25  S   UNL     1      52.493   9.008  15.392  0.00  0.00    +0.000 S 
ATOM     26  C   UNL     1      51.927   7.541  16.038  0.00  0.00    +0.000 A 
ATOM     27  N   UNL     1      52.751   6.768  16.766  0.00  0.00    +0.000 NA
ATOM     28  C   UNL     1      52.157   5.656  17.201  0.00  0.00    +0.000 A 
ATOM     29  N   UNL     1      50.909   5.249  16.950  0.00  0.00    +0.000 NA
ATOM     30  C   UNL     1      50.117   6.062  16.213  0.00  0.00    +0.000 A 
ATOM     31  C   UNL     1      50.603   7.284  15.724  0.00  0.00    +0.000 A 
BRANCH  30  32
ATOM     32  O   UNL     1      48.857   5.618  15.876  0.00  0.00    +0.000 OA
ATOM     33  C   UNL     1      48.307   4.760  16.869  0.00  0.00    +0.000 C 
ENDBRANCH  30  32
ENDBRANCH  21  23
ENDBRANCH  18  19
ENDBRANCH   4  18
TORSDOF 9
ENDMDL
MODEL 5
REMARK VINA RESULT:    -6.243      3.434      5.219
REMARK INTER + INTRA:         -11.012
REMARK INTER:                  -9.698
REMARK INTRA:                  -1.314
REMARK UNBOUND:                -1.485
REMARK  Name = 
REMARK  12 active torsions:
REMARK  status: ('A' for Active; 'I' for Inactive)
REMARK    1  A    between atoms: C_1  and  O_2
REMARK    2  A    between atoms: O_2  and  C_3
REMARK    3  A    between atoms: C_8  and  C_9
REMARK    4  A    between atoms: C_9  and  O_10
REMARK    5  A    between atoms: O_10  and  C_11
REMARK    6  A    between atoms: C_11  and  C_12
REMARK    7  A    between atoms: C_15  and  C_16
REMARK    8  A    between atoms: C_16  and  N_17
REMARK    9  A    between atoms: N_17  and  C_18
REMARK   10  A    between atoms: C_19  and  C_21
REMARK   11  A    between atoms: C_28  and  O_29
REMARK   12  A    between atoms: O_29  and  C_30
REMARK                            x       y       z     vdW  Elec       q    Type
REMARK                         _______ _______ _______ _____ _____    ______ ____
ROOT
ATOM      1  C   UNL     1      47.637   7.818  13.459  0.00  0.00    +0.000 A 
ATOM      2  C   UNL     1      48.010   6.600  14.042  0.00  0.00    +0.000 A 
ATOM      3  C   UNL     1      48.650   6.575  15.284  0.00  0.00    +0.000 A 
ATOM      4  C   UNL     1      48.940   7.766  15.965  0.00  0.00    +0.000 A 
ATOM      5  C   UNL     1      48.620   8.985  15.352  0.00  0.00    +0.000 A 
ATOM      6  C   UNL     1      47.969   9.011  14.113  0.00  0.00    +0.000 A 
ENDROOT
BRANCH   1   7
ATOM      7  C   UNL     1      46.825   7.831  12.187  0.00  0.00    +0.000 C 
BRANCH   7   8
ATOM      8  O   UNL     1      46.797   6.545  11.566  0.00  0.00    +0.000 OA
BRANCH   8   9
ATOM      9  C   UNL     1      45.656   6.360  10.716  0.00  0.00    +0.000 C 
BRANCH   9  15
ATOM     10  C   UNL     1      44.752   4.137   9.882  0.00  0.00    +0.000 A 
ATOM     11  C   UNL     1      44.091   2.925  10.118  0.00  0.00    +0.000 A 
ATOM     12  C   UNL     1      43.660   2.589  11.402  0.00  0.00    +0.000 A 
ATOM     13  C   UNL     1      43.892   3.457  12.463  0.00  0.00    +0.000 A 
ATOM     14  C   UNL     1      44.558   4.661  12.241  0.00  0.00    +0.000 A 
ATOM     15  C   UNL     1      45.010   5.011  10.956  0.00  0.00    +0.000 A 
BRANCH  10  17
ATOM     16  C   UNL     1      45.835   3.566   7.840  0.00  0.00    +0.000 C 
ATOM     17  O   UNL     1      45.194   4.546   8.650  0.00  0.00    +0.000 OA
ENDBRANCH  10  17
ENDBRANCH   9  15
ENDBRANCH   8   9
ENDBRANCH   7   8
ENDBRANCH   1   7
BRANCH   4  18
ATOM     18  C   UNL     1      49.502   7.737  17.370  0.00  0.00    +0.000 C 
BRANCH  18  19
ATOM     19  N   UNL     1      50.638   6.835  17.567  0.00  0.00    +0.000 N 
ATOM     20  C   UNL     1      51.786   7.023  16.691  0.00  0.00    +0.000 C 
ATOM     21  C   UNL     1      50.462   5.747  18.438  0.00  0.00    +0.000 C 
ATOM     22  O   UNL     1      49.408   5.586  19.049  0.00  0.00    +0.000 OA
BRANCH  21  23
ATOM     23  C   UNL     1      51.569   4.803  18.654  0.00  0.00    +0.000 A 
ATOM     24  C   UNL     1      52.647   5.048  19.488  0.00  0.00    +0.000 A 
ATOM     25  S   UNL     1      53.725   3.731  19.605  0.00  0.00    +0.000 S 
ATOM     26  C   UNL     1      52.728   2.762  18.627  0.00  0.00    +0.000 A 
ATOM     27  N   UNL     1      53.059   1.480  18.397  0.00  0.00    +0.000 NA
ATOM     28  C   UNL     1      52.177   0.857  17.614  0.00  0.00    +0.000 A 
ATOM     29  N   UNL     1      51.088   1.379  17.039  0.00  0.00    +0.000 NA
ATOM     30  C   UNL     1      50.796   2.674  17.303  0.00  0.00    +0.000 A 
ATOM     31  C   UNL     1      51.619   3.437  18.144  0.00  0.00    +0.000 A 
BRANCH  30  32
ATOM     32  O   UNL     1      49.726   3.248  16.652  0.00  0.00    +0.000 OA
ATOM     33  C   UNL     1      48.479   2.760  17.135  0.00  0.00    +0.000 C 
ENDBRANCH  30  32
ENDBRANCH  21  23
ENDBRANCH  18  19
ENDBRANCH   4  18
TORSDOF 9
ENDMDL
MODEL 6
REMARK VINA RESULT:    -6.177      1.830      3.021
REMARK INTER + INTRA:         -10.912
REMARK INTER:                  -9.567
REMARK INTRA:                  -1.344
REMARK UNBOUND:                -1.485
REMARK  Name = 
REMARK  12 active torsions:
REMARK  status: ('A' for Active; 'I' for Inactive)
REMARK    1  A    between atoms: C_1  and  O_2
REMARK    2  A    between atoms: O_2  and  C_3
REMARK    3  A    between atoms: C_8  and  C_9
REMARK    4  A    between atoms: C_9  and  O_10
REMARK    5  A    between atoms: O_10  and  C_11
REMARK    6  A    between atoms: C_11  and  C_12
REMARK    7  A    between atoms: C_15  and  C_16
REMARK    8  A    between atoms: C_16  and  N_17
REMARK    9  A    between atoms: N_17  and  C_18
REMARK   10  A    between atoms: C_19  and  C_21
REMARK   11  A    between atoms: C_28  and  O_29
REMARK   12  A    between atoms: O_29  and  C_30
REMARK                            x       y       z     vdW  Elec       q    Type
REMARK                         _______ _______ _______ _____ _____    ______ ____
ROOT
ATOM      1  C   UNL     1      46.703   7.423  12.150  0.00  0.00    +0.000 A 
ATOM      2  C   UNL     1      47.358   6.349  12.767  0.00  0.00    +0.000 A 
ATOM      3  C   UNL     1      48.569   6.545  13.433  0.00  0.00    +0.000 A 
ATOM      4  C   UNL     1      49.159   7.816  13.490  0.00  0.00    +0.000 A 
ATOM      5  C   UNL     1      48.533   8.877  12.820  0.00  0.00    +0.000 A 
ATOM      6  C   UNL     1      47.314   8.683  12.161  0.00  0.00    +0.000 A 
ENDROOT
BRANCH   1   7
ATOM      7  C   UNL     1      45.330   7.231  11.553  0.00  0.00    +0.000 C 
BRANCH   7   8
ATOM      8  O   UNL     1      44.890   5.878  11.667  0.00  0.00    +0.000 OA
BRANCH   8   9
ATOM      9  C   UNL     1      43.953   5.506  10.646  0.00  0.00    +0.000 C 
BRANCH   9  15
ATOM     10  C   UNL     1      44.132   3.050  10.027  0.00  0.00    +0.000 A 
ATOM     11  C   UNL     1      44.703   2.024   9.263  0.00  0.00    +0.000 A 
ATOM     12  C   UNL     1      45.656   2.313   8.285  0.00  0.00    +0.000 A 
ATOM     13  C   UNL     1      46.041   3.629   8.056  0.00  0.00    +0.000 A 
ATOM     14  C   UNL     1      45.470   4.657   8.803  0.00  0.00    +0.000 A 
ATOM     15  C   UNL     1      44.501   4.387   9.785  0.00  0.00    +0.000 A 
BRANCH  10  17
ATOM     16  C   UNL     1      43.700   2.609  12.327  0.00  0.00    +0.000 C 
ATOM     17  O   UNL     1      43.202   2.848  11.014  0.00  0.00    +0.000 OA
ENDBRANCH  10  17
ENDBRANCH   9  15
ENDBRANCH   8   9
ENDBRANCH   7   8
ENDBRANCH   1   7
BRANCH   4  18
ATOM     18  C   UNL     1      50.394   8.061  14.329  0.00  0.00    +0.000 C 
BRANCH  18  19
ATOM     19  N   UNL     1      50.164   8.120  15.773  0.00  0.00    +0.000 N 
ATOM     20  C   UNL     1      49.587   9.351  16.296  0.00  0.00    +0.000 C 
ATOM     21  C   UNL     1      50.689   7.082  16.560  0.00  0.00    +0.000 C 
ATOM     22  O   UNL     1      51.279   6.133  16.049  0.00  0.00    +0.000 OA
BRANCH  21  23
ATOM     23  C   UNL     1      50.499   7.107  18.018  0.00  0.00    +0.000 A 
ATOM     24  C   UNL     1      51.392   7.683  18.907  0.00  0.00    +0.000 A 
ATOM     25  S   UNL     1      50.860   7.636  20.527  0.00  0.00    +0.000 S 
ATOM     26  C   UNL     1      49.377   6.939  20.073  0.00  0.00    +0.000 A 
ATOM     27  N   UNL     1      48.434   6.709  21.002  0.00  0.00    +0.000 NA
ATOM     28  C   UNL     1      47.332   6.162  20.487  0.00  0.00    +0.000 A 
ATOM     29  N   UNL     1      47.119   5.804  19.216  0.00  0.00    +0.000 NA
ATOM     30  C   UNL     1      48.099   6.057  18.318  0.00  0.00    +0.000 A 
ATOM     31  C   UNL     1      49.297   6.667  18.717  0.00  0.00    +0.000 A 
BRANCH  30  32
ATOM     32  O   UNL     1      47.928   5.618  17.023  0.00  0.00    +0.000 OA
ATOM     33  C   UNL     1      47.983   4.199  16.925  0.00  0.00    +0.000 C 
ENDBRANCH  30  32
ENDBRANCH  21  23
ENDBRANCH  18  19
ENDBRANCH   4  18
TORSDOF 9
ENDMDL
MODEL 7
REMARK VINA RESULT:    -5.877      3.542      5.374
REMARK INTER + INTRA:         -10.454
REMARK INTER:                  -8.727
REMARK INTRA:                  -1.726
REMARK UNBOUND:                -1.485
REMARK  Name = 
REMARK  12 active torsions:
REMARK  status: ('A' for Active; 'I' for Inactive)
REMARK    1  A    between atoms: C_1  and  O_2
REMARK    2  A    between atoms: O_2  and  C_3
REMARK    3  A    between atoms: C_8  and  C_9
REMARK    4  A    between atoms: C_9  and  O_10
REMARK    5  A    between atoms: O_10  and  C_11
REMARK    6  A    between atoms: C_11  and  C_12
REMARK    7  A    between atoms: C_15  and  C_16
REMARK    8  A    between atoms: C_16  and  N_17
REMARK    9  A    between atoms: N_17  and  C_18
REMARK   10  A    between atoms: C_19  and  C_21
REMARK   11  A    between atoms: C_28  and  O_29
REMARK   12  A    between atoms: O_29  and  C_30
REMARK                            x       y       z     vdW  Elec       q    Type
REMARK                         _______ _______ _______ _____ _____    ______ ____
ROOT
ATOM      1  C   UNL     1      47.558   6.046  13.496  0.00  0.00    +0.000 A 
ATOM      2  C   UNL     1      47.041   4.795  13.855  0.00  0.00    +0.000 A 
ATOM      3  C   UNL     1      47.225   4.295  15.146  0.00  0.00    +0.000 A 
ATOM      4  C   UNL     1      47.939   5.029  16.104  0.00  0.00    +0.000 A 
ATOM      5  C   UNL     1      48.508   6.254  15.725  0.00  0.00    +0.000 A 
ATOM      6  C   UNL     1      48.314   6.760  14.435  0.00  0.00    +0.000 A 
ENDROOT
BRANCH   1   7
ATOM      7  C   UNL     1      47.238   6.640  12.146  0.00  0.00    +0.000 C 
BRANCH   7   8
ATOM      8  O   UNL     1      46.032   7.404  12.179  0.00  0.00    +0.000 OA
BRANCH   8   9
ATOM      9  C   UNL     1      45.074   6.980  11.198  0.00  0.00    +0.000 C 
BRANCH   9  15
ATOM     10  C   UNL     1      44.715   4.542  10.586  0.00  0.00    +0.000 A 
ATOM     11  C   UNL     1      44.164   3.285  10.863  0.00  0.00    +0.000 A 
ATOM     12  C   UNL     1      43.430   3.072  12.031  0.00  0.00    +0.000 A 
ATOM     13  C   UNL     1      43.247   4.111  12.936  0.00  0.00    +0.000 A 
ATOM     14  C   UNL     1      43.800   5.363  12.674  0.00  0.00    +0.000 A 
ATOM     15  C   UNL     1      44.552   5.593  11.509  0.00  0.00    +0.000 A 
BRANCH  10  17
ATOM     16  C   UNL     1      45.210   4.008   8.319  0.00  0.00    +0.000 C 
ATOM     17  O   UNL     1      45.436   4.835   9.456  0.00  0.00    +0.000 OA
ENDBRANCH  10  17
ENDBRANCH   9  15
ENDBRANCH   8   9
ENDBRANCH   7   8
ENDBRANCH   1   7
BRANCH   4  18
ATOM     18  C   UNL     1      48.019   4.558  17.540  0.00  0.00    +0.000 C 
BRANCH  18  19
ATOM     19  N   UNL     1      49.374   4.330  18.046  0.00  0.00    +0.000 N 
ATOM     20  C   UNL     1      49.971   3.033  17.762  0.00  0.00    +0.000 C 
ATOM     21  C   UNL     1      49.912   5.287  18.922  0.00  0.00    +0.000 C 
ATOM     22  O   UNL     1      49.285   6.303  19.215  0.00  0.00    +0.000 OA
BRANCH  21  23
ATOM     23  C   UNL     1      51.262   5.093  19.471  0.00  0.00    +0.000 A 
ATOM     24  C   UNL     1      51.520   4.677  20.767  0.00  0.00    +0.000 A 
ATOM     25  S   UNL     1      53.180   4.455  21.089  0.00  0.00    +0.000 S 
ATOM     26  C   UNL     1      53.592   4.808  19.478  0.00  0.00    +0.000 A 
ATOM     27  N   UNL     1      54.873   4.723  19.080  0.00  0.00    +0.000 NA
ATOM     28  C   UNL     1      55.029   5.029  17.791  0.00  0.00    +0.000 A 
ATOM     29  N   UNL     1      54.089   5.432  16.930  0.00  0.00    +0.000 NA
ATOM     30  C   UNL     1      52.813   5.500  17.378  0.00  0.00    +0.000 A 
ATOM     31  C   UNL     1      52.500   5.168  18.704  0.00  0.00    +0.000 A 
BRANCH  30  32
ATOM     32  O   UNL     1      51.848   5.994  16.528  0.00  0.00    +0.000 OA
ATOM     33  C   UNL     1      52.090   7.349  16.168  0.00  0.00    +0.000 C 
ENDBRANCH  30  32
ENDBRANCH  21  23
ENDBRANCH  18  19
ENDBRANCH   4  18
TORSDOF 9
ENDMDL
MODEL 8
REMARK VINA RESULT:    -5.872      4.268      8.662
REMARK INTER + INTRA:         -10.446
REMARK INTER:                  -8.633
REMARK INTRA:                  -1.813
REMARK UNBOUND:                -1.485
REMARK  Name = 
REMARK  12 active torsions:
REMARK  status: ('A' for Active; 'I' for Inactive)
REMARK    1  A    between atoms: C_1  and  O_2
REMARK    2  A    between atoms: O_2  and  C_3
REMARK    3  A    between atoms: C_8  and  C_9
REMARK    4  A    between atoms: C_9  and  O_10
REMARK    5  A    between atoms: O_10  and  C_11
REMARK    6  A    between atoms: C_11  and  C_12
REMARK    7  A    between atoms: C_15  and  C_16
REMARK    8  A    between atoms: C_16  and  N_17
REMARK    9  A    between atoms: N_17  and  C_18
REMARK   10  A    between atoms: C_19  and  C_21
REMARK   11  A    between atoms: C_28  and  O_29
REMARK   12  A    between atoms: O_29  and  C_30
REMARK                            x       y       z     vdW  Elec       q    Type
REMARK                         _______ _______ _______ _____ _____    ______ ____
ROOT
ATOM      1  C   UNL     1      52.842   7.088  16.166  0.00  0.00    +0.000 A 
ATOM      2  C   UNL     1      53.234   7.860  15.066  0.00  0.00    +0.000 A 
ATOM      3  C   UNL     1      52.278   8.435  14.226  0.00  0.00    +0.000 A 
ATOM      4  C   UNL     1      50.909   8.243  14.462  0.00  0.00    +0.000 A 
ATOM      5  C   UNL     1      50.520   7.420  15.528  0.00  0.00    +0.000 A 
ATOM      6  C   UNL     1      51.478   6.853  16.376  0.00  0.00    +0.000 A 
ENDROOT
BRANCH   1   7
ATOM      7  C   UNL     1      53.875   6.586  17.147  0.00  0.00    +0.000 C 
BRANCH   7   8
ATOM      8  O   UNL     1      54.049   5.171  17.052  0.00  0.00    +0.000 OA
BRANCH   8   9
ATOM      9  C   UNL     1      53.703   4.483  18.262  0.00  0.00    +0.000 C 
BRANCH   9  15
ATOM     10  C   UNL     1      53.202   2.027  17.854  0.00  0.00    +0.000 A 
ATOM     11  C   UNL     1      52.301   1.004  17.533  0.00  0.00    +0.000 A 
ATOM     12  C   UNL     1      50.952   1.288  17.317  0.00  0.00    +0.000 A 
ATOM     13  C   UNL     1      50.490   2.594  17.427  0.00  0.00    +0.000 A 
ATOM     14  C   UNL     1      51.376   3.618  17.757  0.00  0.00    +0.000 A 
ATOM     15  C   UNL     1      52.737   3.349  17.989  0.00  0.00    +0.000 A 
BRANCH  10  17
ATOM     16  C   UNL     1      54.908   1.099  19.232  0.00  0.00    +0.000 C 
ATOM     17  O   UNL     1      54.543   1.833  18.068  0.00  0.00    +0.000 OA
ENDBRANCH  10  17
ENDBRANCH   9  15
ENDBRANCH   8   9
ENDBRANCH   7   8
ENDBRANCH   1   7
BRANCH   4  18
ATOM     18  C   UNL     1      49.871   8.978  13.642  0.00  0.00    +0.000 C 
BRANCH  18  19
ATOM     19  N   UNL     1      48.865   8.128  13.003  0.00  0.00    +0.000 N 
ATOM     20  C   UNL     1      49.231   7.520  11.732  0.00  0.00    +0.000 C 
ATOM     21  C   UNL     1      47.574   8.119  13.554  0.00  0.00    +0.000 C 
ATOM     22  O   UNL     1      47.310   8.767  14.565  0.00  0.00    +0.000 OA
BRANCH  21  23
ATOM     23  C   UNL     1      46.524   7.295  12.936  0.00  0.00    +0.000 A 
ATOM     24  C   UNL     1      45.593   7.776  12.031  0.00  0.00    +0.000 A 
ATOM     25  S   UNL     1      44.558   6.566  11.418  0.00  0.00    +0.000 S 
ATOM     26  C   UNL     1      45.392   5.351  12.266  0.00  0.00    +0.000 A 
ATOM     27  N   UNL     1      45.039   4.064  12.111  0.00  0.00    +0.000 NA
ATOM     28  C   UNL     1      45.789   3.237  12.841  0.00  0.00    +0.000 A 
ATOM     29  N   UNL     1      46.766   3.563  13.693  0.00  0.00    +0.000 NA
ATOM     30  C   UNL     1      47.086   4.873  13.813  0.00  0.00    +0.000 A 
ATOM     31  C   UNL     1      46.403   5.848  13.072  0.00  0.00    +0.000 A 
BRANCH  30  32
ATOM     32  O   UNL     1      48.033   5.231  14.748  0.00  0.00    +0.000 OA
ATOM     33  C   UNL     1      47.698   4.776  16.054  0.00  0.00    +0.000 C 
ENDBRANCH  30  32
ENDBRANCH  21  23
ENDBRANCH  18  19
ENDBRANCH   4  18
TORSDOF 9
ENDMDL
MODEL 9
REMARK VINA RESULT:    -5.786      4.114      8.676
REMARK INTER + INTRA:         -10.314
REMARK INTER:                  -8.392
REMARK INTRA:                  -1.923
REMARK UNBOUND:                -1.485
REMARK  Name = 
REMARK  12 active torsions:
REMARK  status: ('A' for Active; 'I' for Inactive)
REMARK    1  A    between atoms: C_1  and  O_2
REMARK    2  A    between atoms: O_2  and  C_3
REMARK    3  A    between atoms: C_8  and  C_9
REMARK    4  A    between atoms: C_9  and  O_10
REMARK    5  A    between atoms: O_10  and  C_11
REMARK    6  A    between atoms: C_11  and  C_12
REMARK    7  A    between atoms: C_15  and  C_16
REMARK    8  A    between atoms: C_16  and  N_17
REMARK    9  A    between atoms: N_17  and  C_18
REMARK   10  A    between atoms: C_19  and  C_21
REMARK   11  A    between atoms: C_28  and  O_29
REMARK   12  A    between atoms: O_29  and  C_30
REMARK                            x       y       z     vdW  Elec       q    Type
REMARK                         _______ _______ _______ _____ _____    ______ ____
ROOT
ATOM      1  C   UNL     1      52.099   7.044  16.132  0.00  0.00    +0.000 A 
ATOM      2  C   UNL     1      52.586   7.788  15.050  0.00  0.00    +0.000 A 
ATOM      3  C   UNL     1      51.707   8.345  14.119  0.00  0.00    +0.000 A 
ATOM      4  C   UNL     1      50.322   8.164  14.243  0.00  0.00    +0.000 A 
ATOM      5  C   UNL     1      49.840   7.369  15.293  0.00  0.00    +0.000 A 
ATOM      6  C   UNL     1      50.720   6.819  16.232  0.00  0.00    +0.000 A 
ENDROOT
BRANCH   1   7
ATOM      7  C   UNL     1      53.043   6.563  17.207  0.00  0.00    +0.000 C 
BRANCH   7   8
ATOM      8  O   UNL     1      53.264   5.154  17.123  0.00  0.00    +0.000 OA
BRANCH   8   9
ATOM      9  C   UNL     1      52.871   4.455  18.313  0.00  0.00    +0.000 C 
BRANCH   9  15
ATOM     10  C   UNL     1      50.438   4.631  19.018  0.00  0.00    +0.000 A 
ATOM     11  C   UNL     1      49.120   4.156  18.979  0.00  0.00    +0.000 A 
ATOM     12  C   UNL     1      48.785   3.053  18.191  0.00  0.00    +0.000 A 
ATOM     13  C   UNL     1      49.761   2.421  17.429  0.00  0.00    +0.000 A 
ATOM     14  C   UNL     1      51.072   2.892  17.453  0.00  0.00    +0.000 A 
ATOM     15  C   UNL     1      51.426   4.008  18.232  0.00  0.00    +0.000 A 
BRANCH  10  17
ATOM     16  C   UNL     1      49.866   6.676  20.095  0.00  0.00    +0.000 C 
ATOM     17  O   UNL     1      50.849   5.697  19.776  0.00  0.00    +0.000 OA
ENDBRANCH  10  17
ENDBRANCH   9  15
ENDBRANCH   8   9
ENDBRANCH   7   8
ENDBRANCH   1   7
BRANCH   4  18
ATOM     18  C   UNL     1      49.361   8.883  13.322  0.00  0.00    +0.000 C 
BRANCH  18  19
ATOM     19  N   UNL     1      48.351   8.032  12.690  0.00  0.00    +0.000 N 
ATOM     20  C   UNL     1      48.725   7.387  11.439  0.00  0.00    +0.000 C 
ATOM     21  C   UNL     1      47.051   8.059  13.222  0.00  0.00    +0.000 C 
ATOM     22  O   UNL     1      46.784   8.736  14.213  0.00  0.00    +0.000 OA
BRANCH  21  23
ATOM     23  C   UNL     1      45.998   7.236  12.609  0.00  0.00    +0.000 A 
ATOM     24  C   UNL     1      45.036   7.727  11.741  0.00  0.00    +0.000 A 
ATOM     25  S   UNL     1      44.003   6.518  11.124  0.00  0.00    +0.000 S 
ATOM     26  C   UNL     1      44.875   5.294  11.917  0.00  0.00    +0.000 A 
ATOM     27  N   UNL     1      44.536   4.006  11.738  0.00  0.00    +0.000 NA
ATOM     28  C   UNL     1      45.316   3.171  12.426  0.00  0.00    +0.000 A 
ATOM     29  N   UNL     1      46.311   3.489  13.260  0.00  0.00    +0.000 NA
ATOM     30  C   UNL     1      46.616   4.800  13.407  0.00  0.00    +0.000 A 
ATOM     31  C   UNL     1      45.900   5.784  12.710  0.00  0.00    +0.000 A 
BRANCH  30  32
ATOM     32  O   UNL     1      47.581   5.147  14.326  0.00  0.00    +0.000 OA
ATOM     33  C   UNL     1      47.302   4.627  15.621  0.00  0.00    +0.000 C 
ENDBRANCH  30  32
ENDBRANCH  21  23
ENDBRANCH  18  19
ENDBRANCH   4  18
TORSDOF 9
ENDMDL
