MODEL 1
REMARK VINA RESULT:    -8.531      0.000      0.000
REMARK INTER + INTRA:         -12.473
REMARK INTER:                 -11.523
REMARK INTRA:                  -0.950
REMARK UNBOUND:                -0.950
REMARK  Name = 
REMARK  6 active torsions:
REMARK  status: ('A' for Active; 'I' for Inactive)
REMARK    1  A    between atoms: C_2  and  C_4
REMARK    2  A    between atoms: C_7  and  N_8
REMARK    3  A    between atoms: N_8  and  C_9
REMARK    4  A    between atoms: C_9  and  C_10
REMARK    5  A    between atoms: C_10  and  C_12
REMARK    6  A    between atoms: C_16  and  N_17
REMARK                            x       y       z     vdW  Elec       q    Type
REMARK                         _______ _______ _______ _____ _____    ______ ____
ROOT
ATOM      1  C   UNL     1      43.761   4.680  12.580  0.00  0.00    +0.000 C 
ATOM      2  F   UNL     1      43.511   3.393  12.982  0.00  0.00    +0.000 F 
ENDROOT
BRANCH   1   3
ATOM      3  C   UNL     1      45.185   5.104  12.874  0.00  0.00    +0.000 A 
ATOM      4  C   UNL     1      45.825   6.022  12.035  0.00  0.00    +0.000 A 
ATOM      5  C   UNL     1      47.102   6.472  12.344  0.00  0.00    +0.000 A 
ATOM      6  C   UNL     1      47.739   6.026  13.503  0.00  0.00    +0.000 A 
ATOM      7  C   UNL     1      47.126   5.123  14.386  0.00  0.00    +0.000 A 
ATOM      8  C   UNL     1      45.853   4.652  14.032  0.00  0.00    +0.000 A 
BRANCH   7   9
ATOM      9  N   UNL     1      47.747   4.738  15.557  0.00  0.00    +0.000 N 
ATOM     10  C   UNL     1      47.733   3.342  16.020  0.00  0.00    +0.000 C 
ATOM     11  C   UNL     1      47.181   3.258  17.457  0.00  0.00    +0.000 C 
ATOM     12  N   UNL     1      47.909   4.126  18.409  0.00  0.00    +0.000 NA
ATOM     13  C   UNL     1      47.870   5.518  17.903  0.00  0.00    +0.000 C 
ATOM     14  C   UNL     1      48.409   5.690  16.458  0.00  0.00    +0.000 C 
ATOM     15  H   UNL     1      48.884   3.825  18.425  0.00  0.00    +0.000 HD
ENDBRANCH   7   9
ENDBRANCH   1   3
BRANCH   1  16
ATOM     16  C   UNL     1      43.490   4.757  11.064  0.00  0.00    +0.000 C 
BRANCH  16  17
ATOM     17  N   UNL     1      43.638   3.449  10.410  0.00  0.00    +0.000 N 
ATOM     18  H   UNL     1      43.542   2.663  11.054  0.00  0.00    +0.000 HD
BRANCH  17  22
ATOM     19  C   UNL     1      46.593   2.699   7.485  0.00  0.00    +0.000 A 
ATOM     20  C   UNL     1      46.204   4.014   7.746  0.00  0.00    +0.000 A 
ATOM     21  C   UNL     1      45.244   4.278   8.730  0.00  0.00    +0.000 A 
ATOM     22  C   UNL     1      44.671   3.250   9.489  0.00  0.00    +0.000 A 
ATOM     23  C   UNL     1      45.073   1.936   9.213  0.00  0.00    +0.000 A 
ATOM     24  C   UNL     1      46.019   1.657   8.217  0.00  0.00    +0.000 A 
BRANCH  19  26
ATOM     25  N   UNL     1      47.423   3.027   5.215  0.00  0.00    +0.000 N 
ATOM     26  C   UNL     1      47.563   2.373   6.408  0.00  0.00    +0.000 C 
ATOM     27  O   UNL     1      48.466   1.566   6.579  0.00  0.00    +0.000 OA
ATOM     28  H   UNL     1      48.140   2.855   4.523  0.00  0.00    +0.000 HD
ATOM     29  H   UNL     1      46.862   3.860   5.116  0.00  0.00    +0.000 HD
ENDBRANCH  19  26
ENDBRANCH  17  22
ENDBRANCH  16  17
ENDBRANCH   1  16
TORSDOF 6
ENDMDL
MODEL 2
REMARK VINA RESULT:    -8.515      2.468      3.589
REMARK INTER + INTRA:         -12.452
REMARK INTER:                 -11.486
REMARK INTRA:                  -0.966
REMARK UNBOUND:                -0.950
REMARK  Name = 
REMARK  6 active torsions:
REMARK  status: ('A' for Active; 'I' for Inactive)
REMARK    1  A    between atoms: C_2  and  C_4
REMARK    2  A    between atoms: C_7  and  N_8
REMARK    3  A    between atoms: N_8  and  C_9
REMARK    4  A    between atoms: C_9  and  C_10
REMARK    5  A    between atoms: C_10  and  C_12
REMARK    6  A    between atoms: C_16  and  N_17
REMARK                            x       y       z     vdW  Elec       q    Type
REMARK                         _______ _______ _______ _____ _____    ______ ____
ROOT
ATOM      1  C   UNL     1      43.303   5.416  12.362  0.00  0.00    +0.000 C 
ATOM      2  F   UNL     1      42.538   5.026  13.431  0.00  0.00    +0.000 F 
ENDROOT
BRANCH   1   3
ATOM      3  C   UNL     1      44.763   5.578  12.733  0.00  0.00    +0.000 A 
ATOM      4  C   UNL     1      45.433   4.538  13.385  0.00  0.00    +0.000 A 
ATOM      5  C   UNL     1      46.791   4.651  13.659  0.00  0.00    +0.000 A 
ATOM      6  C   UNL     1      47.491   5.791  13.262  0.00  0.00    +0.000 A 
ATOM      7  C   UNL     1      46.864   6.849  12.585  0.00  0.00    +0.000 A 
ATOM      8  C   UNL     1      45.485   6.730  12.356  0.00  0.00    +0.000 A 
BRANCH   7   9
ATOM      9  N   UNL     1      47.584   7.943  12.148  0.00  0.00    +0.000 N 
ATOM     10  C   UNL     1      48.925   7.804  11.560  0.00  0.00    +0.000 C 
ATOM     11  C   UNL     1      49.935   8.695  12.311  0.00  0.00    +0.000 C 
ATOM     12  N   UNL     1      49.524  10.115  12.370  0.00  0.00    +0.000 NA
ATOM     13  C   UNL     1      48.181  10.193  12.989  0.00  0.00    +0.000 C 
ATOM     14  C   UNL     1      47.102   9.323  12.292  0.00  0.00    +0.000 C 
ATOM     15  H   UNL     1      49.448  10.459  11.412  0.00  0.00    +0.000 HD
ENDBRANCH   7   9
ENDBRANCH   1   3
BRANCH   1  16
ATOM     16  C   UNL     1      43.153   4.345  11.263  0.00  0.00    +0.000 C 
BRANCH  16  17
ATOM     17  N   UNL     1      43.673   4.806   9.969  0.00  0.00    +0.000 N 
ATOM     18  H   UNL     1      42.944   5.134   9.334  0.00  0.00    +0.000 HD
BRANCH  17  22
ATOM     19  C   UNL     1      46.418   2.396   7.845  0.00  0.00    +0.000 A 
ATOM     20  C   UNL     1      46.443   3.781   7.672  0.00  0.00    +0.000 A 
ATOM     21  C   UNL     1      45.555   4.592   8.388  0.00  0.00    +0.000 A 
ATOM     22  C   UNL     1      44.645   4.052   9.306  0.00  0.00    +0.000 A 
ATOM     23  C   UNL     1      44.634   2.660   9.467  0.00  0.00    +0.000 A 
ATOM     24  C   UNL     1      45.505   1.835   8.741  0.00  0.00    +0.000 A 
BRANCH  19  26
ATOM     25  N   UNL     1      48.443   2.035   6.537  0.00  0.00    +0.000 N 
ATOM     26  C   UNL     1      47.301   1.496   7.059  0.00  0.00    +0.000 C 
ATOM     27  O   UNL     1      47.034   0.313   6.898  0.00  0.00    +0.000 OA
ATOM     28  H   UNL     1      49.073   1.390   6.077  0.00  0.00    +0.000 HD
ATOM     29  H   UNL     1      48.818   2.919   6.847  0.00  0.00    +0.000 HD
ENDBRANCH  19  26
ENDBRANCH  17  22
ENDBRANCH  16  17
ENDBRANCH   1  16
TORSDOF 6
ENDMDL
MODEL 3
REMARK VINA RESULT:    -7.954      1.967      2.620
REMARK INTER + INTRA:         -11.694
REMARK INTER:                 -10.834
REMARK INTRA:                  -0.861
REMARK UNBOUND:                -0.950
REMARK  Name = 
REMARK  6 active torsions:
REMARK  status: ('A' for Active; 'I' for Inactive)
REMARK    1  A    between atoms: C_2  and  C_4
REMARK    2  A    between atoms: C_7  and  N_8
REMARK    3  A    between atoms: N_8  and  C_9
REMARK    4  A    between atoms: C_9  and  C_10
REMARK    5  A    between atoms: C_10  and  C_12
REMARK    6  A    between atoms: C_16  and  N_17
REMARK                            x       y       z     vdW  Elec       q    Type
REMARK                         _______ _______ _______ _____ _____    ______ ____
ROOT
ATOM      1  C   UNL     1      43.280   5.756  11.251  0.00  0.00    +0.000 C 
ATOM      2  F   UNL     1      42.166   6.001  12.013  0.00  0.00    +0.000 F 
ENDROOT
BRANCH   1   3
ATOM      3  C   UNL     1      44.396   6.739  11.539  0.00  0.00    +0.000 A 
ATOM      4  C   UNL     1      44.176   8.110  11.368  0.00  0.00    +0.000 A 
ATOM      5  C   UNL     1      45.171   9.020  11.704  0.00  0.00    +0.000 A 
ATOM      6  C   UNL     1      46.380   8.569  12.234  0.00  0.00    +0.000 A 
ATOM      7  C   UNL     1      46.636   7.204  12.445  0.00  0.00    +0.000 A 
ATOM      8  C   UNL     1      45.632   6.302  12.060  0.00  0.00    +0.000 A 
BRANCH   7   9
ATOM      9  N   UNL     1      47.815   6.780  13.025  0.00  0.00    +0.000 N 
ATOM     10  C   UNL     1      47.828   5.974  14.254  0.00  0.00    +0.000 C 
ATOM     11  C   UNL     1      48.707   6.646  15.328  0.00  0.00    +0.000 C 
ATOM     12  N   UNL     1      50.082   6.924  14.860  0.00  0.00    +0.000 NA
ATOM     13  C   UNL     1      50.006   7.755  13.636  0.00  0.00    +0.000 C 
ATOM     14  C   UNL     1      49.137   7.149  12.503  0.00  0.00    +0.000 C 
ATOM     15  H   UNL     1      50.513   6.034  14.608  0.00  0.00    +0.000 HD
ENDBRANCH   7   9
ENDBRANCH   1   3
BRANCH   1  16
ATOM     16  C   UNL     1      43.749   4.320  11.556  0.00  0.00    +0.000 C 
BRANCH  16  17
ATOM     17  N   UNL     1      43.561   3.423  10.408  0.00  0.00    +0.000 N 
ATOM     18  H   UNL     1      43.110   2.541  10.655  0.00  0.00    +0.000 HD
BRANCH  17  22
ATOM     19  C   UNL     1      46.548   2.718   7.504  0.00  0.00    +0.000 A 
ATOM     20  C   UNL     1      46.109   4.023   7.734  0.00  0.00    +0.000 A 
ATOM     21  C   UNL     1      45.137   4.272   8.710  0.00  0.00    +0.000 A 
ATOM     22  C   UNL     1      44.602   3.241   9.493  0.00  0.00    +0.000 A 
ATOM     23  C   UNL     1      45.055   1.937   9.248  0.00  0.00    +0.000 A 
ATOM     24  C   UNL     1      46.014   1.672   8.260  0.00  0.00    +0.000 A 
BRANCH  19  26
ATOM     25  N   UNL     1      47.470   3.141   5.287  0.00  0.00    +0.000 N 
ATOM     26  C   UNL     1      47.533   2.404   6.436  0.00  0.00    +0.000 C 
ATOM     27  O   UNL     1      48.380   1.534   6.579  0.00  0.00    +0.000 OA
ATOM     28  H   UNL     1      48.198   2.971   4.605  0.00  0.00    +0.000 HD
ATOM     29  H   UNL     1      46.962   4.011   5.226  0.00  0.00    +0.000 HD
ENDBRANCH  19  26
ENDBRANCH  17  22
ENDBRANCH  16  17
ENDBRANCH   1  16
TORSDOF 6
ENDMDL
MODEL 4
REMARK VINA RESULT:    -7.777      3.159      4.954
REMARK INTER + INTRA:         -11.454
REMARK INTER:                 -10.542
REMARK INTRA:                  -0.912
REMARK UNBOUND:                -0.950
REMARK  Name = 
REMARK  6 active torsions:
REMARK  status: ('A' for Active; 'I' for Inactive)
REMARK    1  A    between atoms: C_2  and  C_4
REMARK    2  A    between atoms: C_7  and  N_8
REMARK    3  A    between atoms: N_8  and  C_9
REMARK    4  A    between atoms: C_9  and  C_10
REMARK    5  A    between atoms: C_10  and  C_12
REMARK    6  A    between atoms: C_16  and  N_17
REMARK                            x       y       z     vdW  Elec       q    Type
REMARK                         _______ _______ _______ _____ _____    ______ ____
ROOT
ATOM      1  C   UNL     1      44.639   5.072  12.417  0.00  0.00    +0.000 C 
ATOM      2  F   UNL     1      45.291   3.866  12.455  0.00  0.00    +0.000 F 
ENDROOT
BRANCH   1   3
ATOM      3  C   UNL     1      45.602   6.242  12.407  0.00  0.00    +0.000 A 
ATOM      4  C   UNL     1      46.978   6.010  12.492  0.00  0.00    +0.000 A 
ATOM      5  C   UNL     1      47.868   7.073  12.406  0.00  0.00    +0.000 A 
ATOM      6  C   UNL     1      47.390   8.370  12.211  0.00  0.00    +0.000 A 
ATOM      7  C   UNL     1      46.019   8.647  12.097  0.00  0.00    +0.000 A 
ATOM      8  C   UNL     1      45.138   7.563  12.228  0.00  0.00    +0.000 A 
BRANCH   7   9
ATOM      9  N   UNL     1      45.568   9.927  11.847  0.00  0.00    +0.000 N 
ATOM     10  C   UNL     1      44.154  10.208  11.555  0.00  0.00    +0.000 C 
ATOM     11  C   UNL     1      44.022  10.973  10.224  0.00  0.00    +0.000 C 
ATOM     12  N   UNL     1      44.828  12.213  10.185  0.00  0.00    +0.000 NA
ATOM     13  C   UNL     1      46.241  11.865  10.463  0.00  0.00    +0.000 C 
ATOM     14  C   UNL     1      46.463  11.090  11.788  0.00  0.00    +0.000 C 
ATOM     15  H   UNL     1      44.502  12.822  10.936  0.00  0.00    +0.000 HD
ENDBRANCH   7   9
ENDBRANCH   1   3
BRANCH   1  16
ATOM     16  C   UNL     1      43.769   5.093  11.144  0.00  0.00    +0.000 C 
BRANCH  16  17
ATOM     17  N   UNL     1      43.633   3.758  10.547  0.00  0.00    +0.000 N 
ATOM     18  H   UNL     1      43.495   3.019  11.238  0.00  0.00    +0.000 HD
BRANCH  17  22
ATOM     19  C   UNL     1      46.451   2.703   7.580  0.00  0.00    +0.000 A 
ATOM     20  C   UNL     1      45.820   1.698   8.316  0.00  0.00    +0.000 A 
ATOM     21  C   UNL     1      44.868   2.033   9.285  0.00  0.00    +0.000 A 
ATOM     22  C   UNL     1      44.503   3.364   9.525  0.00  0.00    +0.000 A 
ATOM     23  C   UNL     1      45.146   4.360   8.777  0.00  0.00    +0.000 A 
ATOM     24  C   UNL     1      46.116   4.038   7.818  0.00  0.00    +0.000 A 
BRANCH  19  26
ATOM     25  N   UNL     1      47.431   3.008   5.369  0.00  0.00    +0.000 N 
ATOM     26  C   UNL     1      47.511   2.392   6.587  0.00  0.00    +0.000 C 
ATOM     27  O   UNL     1      48.432   1.631   6.846  0.00  0.00    +0.000 OA
ATOM     28  H   UNL     1      48.205   2.851   4.735  0.00  0.00    +0.000 HD
ATOM     29  H   UNL     1      46.844   3.812   5.204  0.00  0.00    +0.000 HD
ENDBRANCH  19  26
ENDBRANCH  17  22
ENDBRANCH  16  17
ENDBRANCH   1  16
TORSDOF 6
ENDMDL
MODEL 5
REMARK VINA RESULT:    -7.656      1.451      2.203
REMARK INTER + INTRA:         -11.291
REMARK INTER:                 -10.788
REMARK INTRA:                  -0.503
REMARK UNBOUND:                -0.950
REMARK  Name = 
REMARK  6 active torsions:
REMARK  status: ('A' for Active; 'I' for Inactive)
REMARK    1  A    between atoms: C_2  and  C_4
REMARK    2  A    between atoms: C_7  and  N_8
REMARK    3  A    between atoms: N_8  and  C_9
REMARK    4  A    between atoms: C_9  and  C_10
REMARK    5  A    between atoms: C_10  and  C_12
REMARK    6  A    between atoms: C_16  and  N_17
REMARK                            x       y       z     vdW  Elec       q    Type
REMARK                         _______ _______ _______ _____ _____    ______ ____
ROOT
ATOM      1  C   UNL     1      45.764   6.497  11.096  0.00  0.00    +0.000 C 
ATOM      2  F   UNL     1      45.032   7.656  11.048  0.00  0.00    +0.000 F 
ENDROOT
BRANCH   1   3
ATOM      3  C   UNL     1      46.920   6.592  12.071  0.00  0.00    +0.000 A 
ATOM      4  C   UNL     1      47.987   7.455  11.802  0.00  0.00    +0.000 A 
ATOM      5  C   UNL     1      49.011   7.602  12.730  0.00  0.00    +0.000 A 
ATOM      6  C   UNL     1      48.964   6.908  13.939  0.00  0.00    +0.000 A 
ATOM      7  C   UNL     1      47.901   6.048  14.261  0.00  0.00    +0.000 A 
ATOM      8  C   UNL     1      46.899   5.885  13.292  0.00  0.00    +0.000 A 
BRANCH   7   9
ATOM      9  N   UNL     1      47.841   5.415  15.486  0.00  0.00    +0.000 N 
ATOM     10  C   UNL     1      48.550   5.937  16.664  0.00  0.00    +0.000 C 
ATOM     11  C   UNL     1      49.461   4.849  17.267  0.00  0.00    +0.000 C 
ATOM     12  N   UNL     1      48.737   3.601  17.593  0.00  0.00    +0.000 NA
ATOM     13  C   UNL     1      48.063   3.113  16.367  0.00  0.00    +0.000 C 
ATOM     14  C   UNL     1      47.125   4.150  15.694  0.00  0.00    +0.000 C 
ATOM     15  H   UNL     1      48.015   3.827  18.278  0.00  0.00    +0.000 HD
ENDBRANCH   7   9
ENDBRANCH   1   3
BRANCH   1  16
ATOM     16  C   UNL     1      44.812   5.360  11.514  0.00  0.00    +0.000 C 
BRANCH  16  17
ATOM     17  N   UNL     1      44.092   4.793  10.366  0.00  0.00    +0.000 N 
ATOM     18  H   UNL     1      43.185   4.397  10.614  0.00  0.00    +0.000 HD
BRANCH  17  22
ATOM     19  C   UNL     1      46.387   2.499   7.660  0.00  0.00    +0.000 A 
ATOM     20  C   UNL     1      45.600   1.851   8.613  0.00  0.00    +0.000 A 
ATOM     21  C   UNL     1      44.817   2.599   9.500  0.00  0.00    +0.000 A 
ATOM     22  C   UNL     1      44.777   3.998   9.442  0.00  0.00    +0.000 A 
ATOM     23  C   UNL     1      45.574   4.632   8.479  0.00  0.00    +0.000 A 
ATOM     24  C   UNL     1      46.378   3.895   7.598  0.00  0.00    +0.000 A 
BRANCH  19  26
ATOM     25  N   UNL     1      48.097   2.470   5.921  0.00  0.00    +0.000 N 
ATOM     26  C   UNL     1      47.279   1.744   6.742  0.00  0.00    +0.000 C 
ATOM     27  O   UNL     1      47.301   0.522   6.728  0.00  0.00    +0.000 OA
ATOM     28  H   UNL     1      48.756   1.942   5.364  0.00  0.00    +0.000 HD
ATOM     29  H   UNL     1      48.287   3.450   6.072  0.00  0.00    +0.000 HD
ENDBRANCH  19  26
ENDBRANCH  17  22
ENDBRANCH  16  17
ENDBRANCH   1  16
TORSDOF 6
ENDMDL
MODEL 6
REMARK VINA RESULT:    -7.399      2.302      3.227
REMARK INTER + INTRA:         -10.945
REMARK INTER:                 -10.190
REMARK INTRA:                  -0.755
REMARK UNBOUND:                -0.950
REMARK  Name = 
REMARK  6 active torsions:
REMARK  status: ('A' for Active; 'I' for Inactive)
REMARK    1  A    between atoms: C_2  and  C_4
REMARK    2  A    between atoms: C_7  and  N_8
REMARK    3  A    between atoms: N_8  and  C_9
REMARK    4  A    between atoms: C_9  and  C_10
REMARK    5  A    between atoms: C_10  and  C_12
REMARK    6  A    between atoms: C_16  and  N_17
REMARK                            x       y       z     vdW  Elec       q    Type
REMARK                         _______ _______ _______ _____ _____    ______ ____
ROOT
ATOM      1  C   UNL     1      44.718   5.217  12.253  0.00  0.00    +0.000 C 
ATOM      2  F   UNL     1      45.661   4.223  12.190  0.00  0.00    +0.000 F 
ENDROOT
BRANCH   1   3
ATOM      3  C   UNL     1      45.345   6.593  12.337  0.00  0.00    +0.000 A 
ATOM      4  C   UNL     1      44.765   7.665  11.650  0.00  0.00    +0.000 A 
ATOM      5  C   UNL     1      45.292   8.943  11.786  0.00  0.00    +0.000 A 
ATOM      6  C   UNL     1      46.384   9.163  12.626  0.00  0.00    +0.000 A 
ATOM      7  C   UNL     1      46.983   8.123  13.353  0.00  0.00    +0.000 A 
ATOM      8  C   UNL     1      46.460   6.834  13.168  0.00  0.00    +0.000 A 
BRANCH   7   9
ATOM      9  N   UNL     1      48.025   8.369  14.224  0.00  0.00    +0.000 N 
ATOM     10  C   UNL     1      48.583   9.717  14.405  0.00  0.00    +0.000 C 
ATOM     11  C   UNL     1      50.105   9.705  14.164  0.00  0.00    +0.000 C 
ATOM     12  N   UNL     1      50.818   8.719  15.005  0.00  0.00    +0.000 NA
ATOM     13  C   UNL     1      50.229   7.381  14.765  0.00  0.00    +0.000 C 
ATOM     14  C   UNL     1      48.695   7.306  14.985  0.00  0.00    +0.000 C 
ATOM     15  H   UNL     1      50.653   8.963  15.982  0.00  0.00    +0.000 HD
ENDBRANCH   7   9
ENDBRANCH   1   3
BRANCH   1  16
ATOM     16  C   UNL     1      43.842   5.112  10.990  0.00  0.00    +0.000 C 
BRANCH  16  17
ATOM     17  N   UNL     1      43.773   3.736  10.479  0.00  0.00    +0.000 N 
ATOM     18  H   UNL     1      43.717   3.034  11.218  0.00  0.00    +0.000 HD
BRANCH  17  22
ATOM     19  C   UNL     1      46.530   2.671   7.461  0.00  0.00    +0.000 A 
ATOM     20  C   UNL     1      45.911   1.668   8.208  0.00  0.00    +0.000 A 
ATOM     21  C   UNL     1      44.977   2.007   9.195  0.00  0.00    +0.000 A 
ATOM     22  C   UNL     1      44.621   3.340   9.441  0.00  0.00    +0.000 A 
ATOM     23  C   UNL     1      45.254   4.333   8.681  0.00  0.00    +0.000 A 
ATOM     24  C   UNL     1      46.205   4.007   7.703  0.00  0.00    +0.000 A 
BRANCH  19  26
ATOM     25  N   UNL     1      47.468   2.967   5.229  0.00  0.00    +0.000 N 
ATOM     26  C   UNL     1      47.571   2.356   6.447  0.00  0.00    +0.000 C 
ATOM     27  O   UNL     1      48.497   1.596   6.692  0.00  0.00    +0.000 OA
ATOM     28  H   UNL     1      48.228   2.807   4.581  0.00  0.00    +0.000 HD
ATOM     29  H   UNL     1      46.877   3.771   5.073  0.00  0.00    +0.000 HD
ENDBRANCH  19  26
ENDBRANCH  17  22
ENDBRANCH  16  17
ENDBRANCH   1  16
TORSDOF 6
ENDMDL
MODEL 7
REMARK VINA RESULT:    -6.769      3.136      8.306
REMARK INTER + INTRA:         -10.093
REMARK INTER:                  -9.464
REMARK INTRA:                  -0.629
REMARK UNBOUND:                -0.950
REMARK  Name = 
REMARK  6 active torsions:
REMARK  status: ('A' for Active; 'I' for Inactive)
REMARK    1  A    between atoms: C_2  and  C_4
REMARK    2  A    between atoms: C_7  and  N_8
REMARK    3  A    between atoms: N_8  and  C_9
REMARK    4  A    between atoms: C_9  and  C_10
REMARK    5  A    between atoms: C_10  and  C_12
REMARK    6  A    between atoms: C_16  and  N_17
REMARK                            x       y       z     vdW  Elec       q    Type
REMARK                         _______ _______ _______ _____ _____    ______ ____
ROOT
ATOM      1  C   UNL     1      45.293   6.622  12.571  0.00  0.00    +0.000 C 
ATOM      2  F   UNL     1      45.169   7.559  11.576  0.00  0.00    +0.000 F 
ENDROOT
BRANCH   1   3
ATOM      3  C   UNL     1      44.848   5.247  12.118  0.00  0.00    +0.000 A 
ATOM      4  C   UNL     1      44.017   4.479  12.940  0.00  0.00    +0.000 A 
ATOM      5  C   UNL     1      43.544   3.250  12.497  0.00  0.00    +0.000 A 
ATOM      6  C   UNL     1      43.879   2.792  11.222  0.00  0.00    +0.000 A 
ATOM      7  C   UNL     1      44.691   3.539  10.354  0.00  0.00    +0.000 A 
ATOM      8  C   UNL     1      45.189   4.758  10.839  0.00  0.00    +0.000 A 
BRANCH   7   9
ATOM      9  N   UNL     1      44.964   3.097   9.075  0.00  0.00    +0.000 N 
ATOM     10  C   UNL     1      45.089   1.666   8.759  0.00  0.00    +0.000 C 
ATOM     11  C   UNL     1      46.439   1.385   8.070  0.00  0.00    +0.000 C 
ATOM     12  N   UNL     1      46.661   2.215   6.867  0.00  0.00    +0.000 NA
ATOM     13  C   UNL     1      46.545   3.642   7.250  0.00  0.00    +0.000 C 
ATOM     14  C   UNL     1      45.212   4.011   7.952  0.00  0.00    +0.000 C 
ATOM     15  H   UNL     1      45.916   2.008   6.201  0.00  0.00    +0.000 HD
ENDBRANCH   7   9
ENDBRANCH   1   3
BRANCH   1  16
ATOM     16  C   UNL     1      46.773   6.585  12.997  0.00  0.00    +0.000 C 
BRANCH  16  17
ATOM     17  N   UNL     1      47.187   5.246  13.438  0.00  0.00    +0.000 N 
ATOM     18  H   UNL     1      46.595   4.500  13.071  0.00  0.00    +0.000 HD
BRANCH  17  22
ATOM     19  C   UNL     1      48.109   4.831  17.541  0.00  0.00    +0.000 A 
ATOM     20  C   UNL     1      47.321   3.865  16.913  0.00  0.00    +0.000 A 
ATOM     21  C   UNL     1      47.028   3.978  15.549  0.00  0.00    +0.000 A 
ATOM     22  C   UNL     1      47.530   5.033  14.777  0.00  0.00    +0.000 A 
ATOM     23  C   UNL     1      48.319   5.994  15.423  0.00  0.00    +0.000 A 
ATOM     24  C   UNL     1      48.603   5.902  16.793  0.00  0.00    +0.000 A 
BRANCH  19  26
ATOM     25  N   UNL     1      48.453   3.546  19.584  0.00  0.00    +0.000 N 
ATOM     26  C   UNL     1      48.391   4.780  18.999  0.00  0.00    +0.000 C 
ATOM     27  O   UNL     1      48.579   5.796  19.653  0.00  0.00    +0.000 OA
ATOM     28  H   UNL     1      48.728   3.526  20.558  0.00  0.00    +0.000 HD
ATOM     29  H   UNL     1      48.549   2.696  19.050  0.00  0.00    +0.000 HD
ENDBRANCH  19  26
ENDBRANCH  17  22
ENDBRANCH  16  17
ENDBRANCH   1  16
TORSDOF 6
ENDMDL
MODEL 8
REMARK VINA RESULT:    -6.461      3.123      4.504
REMARK INTER + INTRA:          -9.677
REMARK INTER:                  -8.836
REMARK INTRA:                  -0.841
REMARK UNBOUND:                -0.950
REMARK  Name = 
REMARK  6 active torsions:
REMARK  status: ('A' for Active; 'I' for Inactive)
REMARK    1  A    between atoms: C_2  and  C_4
REMARK    2  A    between atoms: C_7  and  N_8
REMARK    3  A    between atoms: N_8  and  C_9
REMARK    4  A    between atoms: C_9  and  C_10
REMARK    5  A    between atoms: C_10  and  C_12
REMARK    6  A    between atoms: C_16  and  N_17
REMARK                            x       y       z     vdW  Elec       q    Type
REMARK                         _______ _______ _______ _____ _____    ______ ____
ROOT
ATOM      1  C   UNL     1      48.010   7.341  12.601  0.00  0.00    +0.000 C 
ATOM      2  F   UNL     1      48.845   7.778  11.604  0.00  0.00    +0.000 F 
ENDROOT
BRANCH   1   3
ATOM      3  C   UNL     1      48.763   7.018  13.875  0.00  0.00    +0.000 A 
ATOM      4  C   UNL     1      49.976   7.659  14.147  0.00  0.00    +0.000 A 
ATOM      5  C   UNL     1      50.632   7.423  15.349  0.00  0.00    +0.000 A 
ATOM      6  C   UNL     1      50.069   6.565  16.295  0.00  0.00    +0.000 A 
ATOM      7  C   UNL     1      48.843   5.918  16.075  0.00  0.00    +0.000 A 
ATOM      8  C   UNL     1      48.220   6.140  14.837  0.00  0.00    +0.000 A 
BRANCH   7   9
ATOM      9  N   UNL     1      48.273   5.119  17.045  0.00  0.00    +0.000 N 
ATOM     10  C   UNL     1      48.067   5.597  18.421  0.00  0.00    +0.000 C 
ATOM     11  C   UNL     1      48.725   4.632  19.428  0.00  0.00    +0.000 C 
ATOM     12  N   UNL     1      48.265   3.235  19.277  0.00  0.00    +0.000 NA
ATOM     13  C   UNL     1      48.517   2.803  17.882  0.00  0.00    +0.000 C 
ATOM     14  C   UNL     1      47.888   3.723  16.802  0.00  0.00    +0.000 C 
ATOM     15  H   UNL     1      47.256   3.218  19.433  0.00  0.00    +0.000 HD
ENDBRANCH   7   9
ENDBRANCH   1   3
BRANCH   1  16
ATOM     16  C   UNL     1      46.976   8.453  12.866  0.00  0.00    +0.000 C 
BRANCH  16  17
ATOM     17  N   UNL     1      45.613   7.919  12.993  0.00  0.00    +0.000 N 
ATOM     18  H   UNL     1      45.220   8.034  13.928  0.00  0.00    +0.000 HD
BRANCH  17  22
ATOM     19  C   UNL     1      44.440   4.170  11.438  0.00  0.00    +0.000 A 
ATOM     20  C   UNL     1      44.830   5.185  10.562  0.00  0.00    +0.000 A 
ATOM     21  C   UNL     1      45.243   6.423  11.066  0.00  0.00    +0.000 A 
ATOM     22  C   UNL     1      45.304   6.672  12.443  0.00  0.00    +0.000 A 
ATOM     23  C   UNL     1      44.909   5.642  13.307  0.00  0.00    +0.000 A 
ATOM     24  C   UNL     1      44.475   4.403  12.814  0.00  0.00    +0.000 A 
BRANCH  19  26
ATOM     25  N   UNL     1      44.589   2.300   9.880  0.00  0.00    +0.000 N 
ATOM     26  C   UNL     1      43.937   2.863  10.941  0.00  0.00    +0.000 C 
ATOM     27  O   UNL     1      42.989   2.298  11.468  0.00  0.00    +0.000 OA
ATOM     28  H   UNL     1      44.286   1.373   9.609  0.00  0.00    +0.000 HD
ATOM     29  H   UNL     1      45.504   2.602   9.582  0.00  0.00    +0.000 HD
ENDBRANCH  19  26
ENDBRANCH  17  22
ENDBRANCH  16  17
ENDBRANCH   1  16
TORSDOF 6
ENDMDL
MODEL 9
REMARK VINA RESULT:    -6.268      4.210      5.988
REMARK INTER + INTRA:          -9.417
REMARK INTER:                  -8.245
REMARK INTRA:                  -1.172
REMARK UNBOUND:                -0.950
REMARK  Name = 
REMARK  6 active torsions:
REMARK  status: ('A' for Active; 'I' for Inactive)
REMARK    1  A    between atoms: C_2  and  C_4
REMARK    2  A    between atoms: C_7  and  N_8
REMARK    3  A    between atoms: N_8  and  C_9
REMARK    4  A    between atoms: C_9  and  C_10
REMARK    5  A    between atoms: C_10  and  C_12
REMARK    6  A    between atoms: C_16  and  N_17
REMARK                            x       y       z     vdW  Elec       q    Type
REMARK                         _______ _______ _______ _____ _____    ______ ____
ROOT
ATOM      1  C   UNL     1      49.523   8.649  14.878  0.00  0.00    +0.000 C 
ATOM      2  F   UNL     1      48.760   9.408  14.029  0.00  0.00    +0.000 F 
ENDROOT
BRANCH   1   3
ATOM      3  C   UNL     1      48.920   8.563  16.265  0.00  0.00    +0.000 A 
ATOM      4  C   UNL     1      48.467   9.725  16.899  0.00  0.00    +0.000 A 
ATOM      5  C   UNL     1      47.844   9.642  18.138  0.00  0.00    +0.000 A 
ATOM      6  C   UNL     1      47.648   8.398  18.739  0.00  0.00    +0.000 A 
ATOM      7  C   UNL     1      48.064   7.204  18.129  0.00  0.00    +0.000 A 
ATOM      8  C   UNL     1      48.728   7.317  16.898  0.00  0.00    +0.000 A 
BRANCH   7   9
ATOM      9  N   UNL     1      47.810   5.979  18.711  0.00  0.00    +0.000 N 
ATOM     10  C   UNL     1      47.826   5.795  20.170  0.00  0.00    +0.000 C 
ATOM     11  C   UNL     1      48.792   4.657  20.557  0.00  0.00    +0.000 C 
ATOM     12  N   UNL     1      48.495   3.384  19.864  0.00  0.00    +0.000 NA
ATOM     13  C   UNL     1      48.514   3.626  18.403  0.00  0.00    +0.000 C 
ATOM     14  C   UNL     1      47.568   4.760  17.928  0.00  0.00    +0.000 C 
ATOM     15  H   UNL     1      47.550   3.100  20.122  0.00  0.00    +0.000 HD
ENDBRANCH   7   9
ENDBRANCH   1   3
BRANCH   1  16
ATOM     16  C   UNL     1      49.642   7.240  14.266  0.00  0.00    +0.000 C 
BRANCH  16  17
ATOM     17  N   UNL     1      48.954   7.140  12.972  0.00  0.00    +0.000 N 
ATOM     18  H   UNL     1      48.942   8.019  12.453  0.00  0.00    +0.000 HD
BRANCH  17  22
ATOM     19  C   UNL     1      45.202   5.199  12.945  0.00  0.00    +0.000 A 
ATOM     20  C   UNL     1      45.518   6.094  11.922  0.00  0.00    +0.000 A 
ATOM     21  C   UNL     1      46.767   6.725  11.907  0.00  0.00    +0.000 A 
ATOM     22  C   UNL     1      47.734   6.464  12.886  0.00  0.00    +0.000 A 
ATOM     23  C   UNL     1      47.399   5.562  13.906  0.00  0.00    +0.000 A 
ATOM     24  C   UNL     1      46.144   4.938  13.943  0.00  0.00    +0.000 A 
BRANCH  19  26
ATOM     25  N   UNL     1      42.776   5.377  13.121  0.00  0.00    +0.000 N 
ATOM     26  C   UNL     1      43.865   4.555  13.032  0.00  0.00    +0.000 C 
ATOM     27  O   UNL     1      43.734   3.340  13.006  0.00  0.00    +0.000 OA
ATOM     28  H   UNL     1      41.871   4.925  13.095  0.00  0.00    +0.000 HD
ATOM     29  H   UNL     1      42.819   6.361  12.900  0.00  0.00    +0.000 HD
ENDBRANCH  19  26
ENDBRANCH  17  22
ENDBRANCH  16  17
ENDBRANCH   1  16
TORSDOF 6
ENDMDL
