MODEL 1
REMARK VINA RESULT:    -6.891      0.000      0.000
REMARK INTER + INTRA:          -8.218
REMARK INTER:                  -8.099
REMARK INTRA:                  -0.119
REMARK UNBOUND:                -0.119
REMARK  Name = 
REMARK  3 active torsions:
REMARK  status: ('A' for Active; 'I' for Inactive)
REMARK    1  A    between atoms: C_3  and  N_4
REMARK    2  A    between atoms: C_11  and  C_12
REMARK    3  A    between atoms: C_12  and  C_13
REMARK                            x       y       z     vdW  Elec       q    Type
REMARK                         _______ _______ _______ _____ _____    ______ ____
ROOT
ATOM      1  C   UNL     1      43.001   4.869  12.650  0.00  0.00    +0.000 A 
ATOM      2  C   UNL     1      43.024   4.226  11.406  0.00  0.00    +0.000 A 
ATOM      3  C   UNL     1      44.219   4.038  10.712  0.00  0.00    +0.000 A 
ATOM      4  C   UNL     1      45.384   4.546  11.300  0.00  0.00    +0.000 A 
ATOM      5  C   UNL     1      45.394   5.255  12.520  0.00  0.00    +0.000 A 
ATOM      6  C   UNL     1      44.177   5.378  13.200  0.00  0.00    +0.000 A 
ENDROOT
BRANCH   3   7
ATOM      7  N   UNL     1      44.298   3.437   9.469  0.00  0.00    +0.000 N 
ATOM      8  C   UNL     1      44.419   1.986   9.279  0.00  0.00    +0.000 C 
ATOM      9  C   UNL     1      45.786   1.619   8.688  0.00  0.00    +0.000 C 
ATOM     10  O   UNL     1      46.077   2.378   7.501  0.00  0.00    +0.000 OA
ATOM     11  C   UNL     1      46.078   3.783   7.802  0.00  0.00    +0.000 C 
ATOM     12  C   UNL     1      44.705   4.249   8.311  0.00  0.00    +0.000 C 
ENDBRANCH   3   7
BRANCH   5  13
ATOM     13  C   UNL     1      46.637   6.030  12.948  0.00  0.00    +0.000 C 
ATOM     14  C   UNL     1      46.599   7.544  12.805  0.00  0.00    +0.000 C 
ATOM     15  C   UNL     1      47.494   6.748  11.914  0.00  0.00    +0.000 C 
BRANCH  13  16
ATOM     16  C   UNL     1      47.365   5.358  14.120  0.00  0.00    +0.000 A 
ATOM     17  C   UNL     1      48.045   6.127  15.054  0.00  0.00    +0.000 A 
ATOM     18  C   UNL     1      48.429   5.504  16.220  0.00  0.00    +0.000 A 
ATOM     19  N   UNL     1      48.224   4.200  16.463  0.00  0.00    +0.000 NA
ATOM     20  C   UNL     1      47.608   3.525  15.485  0.00  0.00    +0.000 A 
ATOM     21  N   UNL     1      47.169   4.033  14.323  0.00  0.00    +0.000 NA
ENDBRANCH  13  16
ENDBRANCH   5  13
TORSDOF 3
ENDMDL
MODEL 2
REMARK VINA RESULT:    -6.793      2.589      6.182
REMARK INTER + INTRA:          -8.104
REMARK INTER:                  -7.664
REMARK INTRA:                  -0.439
REMARK UNBOUND:                -0.119
REMARK  Name = 
REMARK  3 active torsions:
REMARK  status: ('A' for Active; 'I' for Inactive)
REMARK    1  A    between atoms: C_3  and  N_4
REMARK    2  A    between atoms: C_11  and  C_12
REMARK    3  A    between atoms: C_12  and  C_13
REMARK                            x       y       z     vdW  Elec       q    Type
REMARK                         _______ _______ _______ _____ _____    ______ ____
ROOT
ATOM      1  C   UNL     1      46.712   3.878  13.732  0.00  0.00    +0.000 A 
ATOM      2  C   UNL     1      47.458   5.055  13.872  0.00  0.00    +0.000 A 
ATOM      3  C   UNL     1      47.025   6.255  13.307  0.00  0.00    +0.000 A 
ATOM      4  C   UNL     1      45.834   6.221  12.573  0.00  0.00    +0.000 A 
ATOM      5  C   UNL     1      45.088   5.042  12.355  0.00  0.00    +0.000 A 
ATOM      6  C   UNL     1      45.538   3.874  12.979  0.00  0.00    +0.000 A 
ENDROOT
BRANCH   3   7
ATOM      7  N   UNL     1      47.734   7.439  13.388  0.00  0.00    +0.000 N 
ATOM      8  C   UNL     1      47.096   8.759  13.488  0.00  0.00    +0.000 C 
ATOM      9  C   UNL     1      47.348   9.591  12.224  0.00  0.00    +0.000 C 
ATOM     10  O   UNL     1      48.747   9.656  11.897  0.00  0.00    +0.000 OA
ATOM     11  C   UNL     1      49.264   8.333  11.678  0.00  0.00    +0.000 C 
ATOM     12  C   UNL     1      49.134   7.462  12.937  0.00  0.00    +0.000 C 
ENDBRANCH   3   7
BRANCH   5  13
ATOM     13  C   UNL     1      43.976   5.020  11.309  0.00  0.00    +0.000 C 
ATOM     14  C   UNL     1      43.129   6.274  11.165  0.00  0.00    +0.000 C 
ATOM     15  C   UNL     1      42.514   5.039  11.736  0.00  0.00    +0.000 C 
BRANCH  13  16
ATOM     16  C   UNL     1      44.341   4.159  10.093  0.00  0.00    +0.000 A 
ATOM     17  C   UNL     1      45.128   4.683   9.077  0.00  0.00    +0.000 A 
ATOM     18  C   UNL     1      45.653   3.794   8.167  0.00  0.00    +0.000 A 
ATOM     19  N   UNL     1      45.399   2.476   8.190  0.00  0.00    +0.000 NA
ATOM     20  C   UNL     1      44.588   2.067   9.174  0.00  0.00    +0.000 A 
ATOM     21  N   UNL     1      44.042   2.838  10.126  0.00  0.00    +0.000 NA
ENDBRANCH  13  16
ENDBRANCH   5  13
TORSDOF 3
ENDMDL
MODEL 3
REMARK VINA RESULT:    -6.592      1.673      2.685
REMARK INTER + INTRA:          -7.868
REMARK INTER:                  -7.550
REMARK INTRA:                  -0.317
REMARK UNBOUND:                -0.119
REMARK  Name = 
REMARK  3 active torsions:
REMARK  status: ('A' for Active; 'I' for Inactive)
REMARK    1  A    between atoms: C_3  and  N_4
REMARK    2  A    between atoms: C_11  and  C_12
REMARK    3  A    between atoms: C_12  and  C_13
REMARK                            x       y       z     vdW  Elec       q    Type
REMARK                         _______ _______ _______ _____ _____    ______ ____
ROOT
ATOM      1  C   UNL     1      42.889   5.309  12.270  0.00  0.00    +0.000 A 
ATOM      2  C   UNL     1      42.970   4.679  11.022  0.00  0.00    +0.000 A 
ATOM      3  C   UNL     1      44.138   4.036  10.612  0.00  0.00    +0.000 A 
ATOM      4  C   UNL     1      45.229   4.078  11.489  0.00  0.00    +0.000 A 
ATOM      5  C   UNL     1      45.208   4.757  12.725  0.00  0.00    +0.000 A 
ATOM      6  C   UNL     1      44.000   5.347  13.112  0.00  0.00    +0.000 A 
ENDROOT
BRANCH   3   7
ATOM      7  N   UNL     1      44.284   3.423   9.382  0.00  0.00    +0.000 N 
ATOM      8  C   UNL     1      44.469   1.976   9.216  0.00  0.00    +0.000 C 
ATOM      9  C   UNL     1      45.870   1.655   8.679  0.00  0.00    +0.000 C 
ATOM     10  O   UNL     1      46.173   2.409   7.493  0.00  0.00    +0.000 OA
ATOM     11  C   UNL     1      46.108   3.818   7.774  0.00  0.00    +0.000 C 
ATOM     12  C   UNL     1      44.702   4.236   8.228  0.00  0.00    +0.000 C 
ENDBRANCH   3   7
BRANCH   5  13
ATOM     13  C   UNL     1      46.508   5.013  13.484  0.00  0.00    +0.000 C 
ATOM     14  C   UNL     1      47.355   3.802  13.843  0.00  0.00    +0.000 C 
ATOM     15  C   UNL     1      46.661   4.556  14.929  0.00  0.00    +0.000 C 
BRANCH  13  16
ATOM     16  C   UNL     1      47.152   6.350  13.098  0.00  0.00    +0.000 A 
ATOM     17  C   UNL     1      48.489   6.403  12.733  0.00  0.00    +0.000 A 
ATOM     18  C   UNL     1      48.930   7.559  12.130  0.00  0.00    +0.000 A 
ATOM     19  N   UNL     1      48.151   8.635  11.934  0.00  0.00    +0.000 NA
ATOM     20  C   UNL     1      46.890   8.513  12.365  0.00  0.00    +0.000 A 
ATOM     21  N   UNL     1      46.347   7.429  12.940  0.00  0.00    +0.000 NA
ENDBRANCH  13  16
ENDBRANCH   5  13
TORSDOF 3
ENDMDL
MODEL 4
REMARK VINA RESULT:    -6.385      2.696      6.373
REMARK INTER + INTRA:          -7.624
REMARK INTER:                  -7.604
REMARK INTRA:                  -0.020
REMARK UNBOUND:                -0.119
REMARK  Name = 
REMARK  3 active torsions:
REMARK  status: ('A' for Active; 'I' for Inactive)
REMARK    1  A    between atoms: C_3  and  N_4
REMARK    2  A    between atoms: C_11  and  C_12
REMARK    3  A    between atoms: C_12  and  C_13
REMARK                            x       y       z     vdW  Elec       q    Type
REMARK                         _______ _______ _______ _____ _____    ______ ____
ROOT
ATOM      1  C   UNL     1      45.328   8.624  11.845  0.00  0.00    +0.000 A 
ATOM      2  C   UNL     1      46.544   8.319  12.469  0.00  0.00    +0.000 A 
ATOM      3  C   UNL     1      46.975   6.999  12.606  0.00  0.00    +0.000 A 
ATOM      4  C   UNL     1      46.124   5.999  12.121  0.00  0.00    +0.000 A 
ATOM      5  C   UNL     1      44.863   6.262  11.544  0.00  0.00    +0.000 A 
ATOM      6  C   UNL     1      44.496   7.602  11.388  0.00  0.00    +0.000 A 
ENDROOT
BRANCH   3   7
ATOM      7  N   UNL     1      48.150   6.639  13.238  0.00  0.00    +0.000 N 
ATOM      8  C   UNL     1      48.210   6.170  14.629  0.00  0.00    +0.000 C 
ATOM      9  C   UNL     1      48.944   7.180  15.520  0.00  0.00    +0.000 C 
ATOM     10  O   UNL     1      50.229   7.534  14.981  0.00  0.00    +0.000 OA
ATOM     11  C   UNL     1      50.072   8.115  13.675  0.00  0.00    +0.000 C 
ATOM     12  C   UNL     1      49.428   7.125  12.694  0.00  0.00    +0.000 C 
ENDBRANCH   3   7
BRANCH   5  13
ATOM     13  C   UNL     1      43.872   5.124  11.313  0.00  0.00    +0.000 C 
ATOM     14  C   UNL     1      42.412   5.393  11.645  0.00  0.00    +0.000 C 
ATOM     15  C   UNL     1      43.191   4.441  12.492  0.00  0.00    +0.000 C 
BRANCH  13  16
ATOM     16  C   UNL     1      44.270   4.240  10.124  0.00  0.00    +0.000 A 
ATOM     17  C   UNL     1      45.032   4.762   9.089  0.00  0.00    +0.000 A 
ATOM     18  C   UNL     1      45.592   3.865   8.207  0.00  0.00    +0.000 A 
ATOM     19  N   UNL     1      45.393   2.540   8.275  0.00  0.00    +0.000 NA
ATOM     20  C   UNL     1      44.602   2.130   9.274  0.00  0.00    +0.000 A 
ATOM     21  N   UNL     1      44.027   2.909  10.202  0.00  0.00    +0.000 NA
ENDBRANCH  13  16
ENDBRANCH   5  13
TORSDOF 3
ENDMDL
MODEL 5
REMARK VINA RESULT:    -6.171      2.782      6.760
REMARK INTER + INTRA:          -7.372
REMARK INTER:                  -7.215
REMARK INTRA:                  -0.157
REMARK UNBOUND:                -0.119
REMARK  Name = 
REMARK  3 active torsions:
REMARK  status: ('A' for Active; 'I' for Inactive)
REMARK    1  A    between atoms: C_3  and  N_4
REMARK    2  A    between atoms: C_11  and  C_12
REMARK    3  A    between atoms: C_12  and  C_13
REMARK                            x       y       z     vdW  Elec       q    Type
REMARK                         _______ _______ _______ _____ _____    ______ ____
ROOT
ATOM      1  C   UNL     1      48.165   6.691  13.666  0.00  0.00    +0.000 A 
ATOM      2  C   UNL     1      48.224   5.872  14.800  0.00  0.00    +0.000 A 
ATOM      3  C   UNL     1      47.323   4.823  14.982  0.00  0.00    +0.000 A 
ATOM      4  C   UNL     1      46.343   4.648  13.998  0.00  0.00    +0.000 A 
ATOM      5  C   UNL     1      46.211   5.491  12.873  0.00  0.00    +0.000 A 
ATOM      6  C   UNL     1      47.165   6.500  12.712  0.00  0.00    +0.000 A 
ENDROOT
BRANCH   3   7
ATOM      7  N   UNL     1      47.316   4.002  16.094  0.00  0.00    +0.000 N 
ATOM      8  C   UNL     1      46.981   4.473  17.445  0.00  0.00    +0.000 C 
ATOM      9  C   UNL     1      48.205   4.421  18.368  0.00  0.00    +0.000 C 
ATOM     10  O   UNL     1      48.831   3.126  18.353  0.00  0.00    +0.000 OA
ATOM     11  C   UNL     1      49.257   2.800  17.019  0.00  0.00    +0.000 C 
ATOM     12  C   UNL     1      48.067   2.738  16.049  0.00  0.00    +0.000 C 
ENDBRANCH   3   7
BRANCH   5  13
ATOM     13  C   UNL     1      44.954   5.426  12.009  0.00  0.00    +0.000 C 
ATOM     14  C   UNL     1      44.108   6.686  11.913  0.00  0.00    +0.000 C 
ATOM     15  C   UNL     1      43.573   5.501  12.647  0.00  0.00    +0.000 C 
BRANCH  13  16
ATOM     16  C   UNL     1      45.123   4.486  10.809  0.00  0.00    +0.000 A 
ATOM     17  C   UNL     1      44.731   3.158  10.900  0.00  0.00    +0.000 A 
ATOM     18  C   UNL     1      44.640   2.448   9.724  0.00  0.00    +0.000 A 
ATOM     19  N   UNL     1      44.959   2.959   8.525  0.00  0.00    +0.000 NA
ATOM     20  C   UNL     1      45.377   4.231   8.538  0.00  0.00    +0.000 A 
ATOM     21  N   UNL     1      45.479   5.023   9.617  0.00  0.00    +0.000 NA
ENDBRANCH  13  16
ENDBRANCH   5  13
TORSDOF 3
ENDMDL
MODEL 6
REMARK VINA RESULT:    -6.148      3.549      6.488
REMARK INTER + INTRA:          -7.346
REMARK INTER:                  -7.341
REMARK INTRA:                  -0.004
REMARK UNBOUND:                -0.119
REMARK  Name = 
REMARK  3 active torsions:
REMARK  status: ('A' for Active; 'I' for Inactive)
REMARK    1  A    between atoms: C_3  and  N_4
REMARK    2  A    between atoms: C_11  and  C_12
REMARK    3  A    between atoms: C_12  and  C_13
REMARK                            x       y       z     vdW  Elec       q    Type
REMARK                         _______ _______ _______ _____ _____    ______ ____
ROOT
ATOM      1  C   UNL     1      47.147   7.283  12.336  0.00  0.00    +0.000 A 
ATOM      2  C   UNL     1      46.570   8.535  12.090  0.00  0.00    +0.000 A 
ATOM      3  C   UNL     1      45.216   8.659  11.776  0.00  0.00    +0.000 A 
ATOM      4  C   UNL     1      44.473   7.475  11.690  0.00  0.00    +0.000 A 
ATOM      5  C   UNL     1      45.031   6.191  11.867  0.00  0.00    +0.000 A 
ATOM      6  C   UNL     1      46.381   6.122  12.224  0.00  0.00    +0.000 A 
ENDROOT
BRANCH   3   7
ATOM      7  N   UNL     1      44.601   9.864  11.496  0.00  0.00    +0.000 N 
ATOM      8  C   UNL     1      43.369   9.979  10.705  0.00  0.00    +0.000 C 
ATOM      9  C   UNL     1      43.633  10.684   9.369  0.00  0.00    +0.000 C 
ATOM     10  O   UNL     1      44.314  11.938   9.551  0.00  0.00    +0.000 OA
ATOM     11  C   UNL     1      45.575  11.723  10.207  0.00  0.00    +0.000 C 
ATOM     12  C   UNL     1      45.387  11.104  11.600  0.00  0.00    +0.000 C 
ENDBRANCH   3   7
BRANCH   5  13
ATOM     13  C   UNL     1      44.239   4.948  11.469  0.00  0.00    +0.000 C 
ATOM     14  C   UNL     1      42.727   5.005  11.624  0.00  0.00    +0.000 C 
ATOM     15  C   UNL     1      43.522   4.118  12.525  0.00  0.00    +0.000 C 
BRANCH  13  16
ATOM     16  C   UNL     1      44.893   4.192  10.305  0.00  0.00    +0.000 A 
ATOM     17  C   UNL     1      44.776   2.812  10.214  0.00  0.00    +0.000 A 
ATOM     18  C   UNL     1      45.131   2.230   9.018  0.00  0.00    +0.000 A 
ATOM     19  N   UNL     1      45.624   2.919   7.977  0.00  0.00    +0.000 NA
ATOM     20  C   UNL     1      45.752   4.237   8.173  0.00  0.00    +0.000 A 
ATOM     21  N   UNL     1      45.415   4.912   9.283  0.00  0.00    +0.000 NA
ENDBRANCH  13  16
ENDBRANCH   5  13
TORSDOF 3
ENDMDL
MODEL 7
REMARK VINA RESULT:    -6.066      1.745      2.811
REMARK INTER + INTRA:          -7.249
REMARK INTER:                  -7.055
REMARK INTRA:                  -0.194
REMARK UNBOUND:                -0.119
REMARK  Name = 
REMARK  3 active torsions:
REMARK  status: ('A' for Active; 'I' for Inactive)
REMARK    1  A    between atoms: C_3  and  N_4
REMARK    2  A    between atoms: C_11  and  C_12
REMARK    3  A    between atoms: C_12  and  C_13
REMARK                            x       y       z     vdW  Elec       q    Type
REMARK                         _______ _______ _______ _____ _____    ______ ____
ROOT
ATOM      1  C   UNL     1      45.139   9.013  12.225  0.00  0.00    +0.000 A 
ATOM      2  C   UNL     1      44.435   8.004  11.557  0.00  0.00    +0.000 A 
ATOM      3  C   UNL     1      44.868   6.678  11.590  0.00  0.00    +0.000 A 
ATOM      4  C   UNL     1      46.049   6.411  12.292  0.00  0.00    +0.000 A 
ATOM      5  C   UNL     1      46.822   7.410  12.923  0.00  0.00    +0.000 A 
ATOM      6  C   UNL     1      46.323   8.716  12.901  0.00  0.00    +0.000 A 
ENDROOT
BRANCH   3   7
ATOM      7  N   UNL     1      44.229   5.647  10.927  0.00  0.00    +0.000 N 
ATOM      8  C   UNL     1      42.988   5.024  11.405  0.00  0.00    +0.000 C 
ATOM      9  C   UNL     1      43.229   3.570  11.832  0.00  0.00    +0.000 C 
ATOM     10  O   UNL     1      43.889   2.813  10.803  0.00  0.00    +0.000 OA
ATOM     11  C   UNL     1      45.160   3.409  10.491  0.00  0.00    +0.000 C 
ATOM     12  C   UNL     1      44.994   4.841   9.962  0.00  0.00    +0.000 C 
ENDBRANCH   3   7
BRANCH   5  13
ATOM     13  C   UNL     1      48.235   7.096  13.407  0.00  0.00    +0.000 C 
ATOM     14  C   UNL     1      49.286   8.183  13.242  0.00  0.00    +0.000 C 
ATOM     15  C   UNL     1      49.377   6.946  12.411  0.00  0.00    +0.000 C 
BRANCH  13  16
ATOM     16  C   UNL     1      48.238   6.162  14.625  0.00  0.00    +0.000 A 
ATOM     17  C   UNL     1      48.773   6.588  15.832  0.00  0.00    +0.000 A 
ATOM     18  C   UNL     1      48.494   5.830  16.945  0.00  0.00    +0.000 A 
ATOM     19  N   UNL     1      47.784   4.691  16.906  0.00  0.00    +0.000 NA
ATOM     20  C   UNL     1      47.351   4.329  15.692  0.00  0.00    +0.000 A 
ATOM     21  N   UNL     1      47.542   5.002  14.547  0.00  0.00    +0.000 NA
ENDBRANCH  13  16
ENDBRANCH   5  13
TORSDOF 3
ENDMDL
MODEL 8
REMARK VINA RESULT:    -5.955      2.245      2.633
REMARK INTER + INTRA:          -7.119
REMARK INTER:                  -6.742
REMARK INTRA:                  -0.377
REMARK UNBOUND:                -0.119
REMARK  Name = 
REMARK  3 active torsions:
REMARK  status: ('A' for Active; 'I' for Inactive)
REMARK    1  A    between atoms: C_3  and  N_4
REMARK    2  A    between atoms: C_11  and  C_12
REMARK    3  A    between atoms: C_12  and  C_13
REMARK                            x       y       z     vdW  Elec       q    Type
REMARK                         _______ _______ _______ _____ _____    ______ ____
ROOT
ATOM      1  C   UNL     1      44.816   4.143  13.161  0.00  0.00    +0.000 A 
ATOM      2  C   UNL     1      44.652   3.566  11.896  0.00  0.00    +0.000 A 
ATOM      3  C   UNL     1      45.078   4.224  10.741  0.00  0.00    +0.000 A 
ATOM      4  C   UNL     1      45.646   5.493  10.904  0.00  0.00    +0.000 A 
ATOM      5  C   UNL     1      45.770   6.135  12.155  0.00  0.00    +0.000 A 
ATOM      6  C   UNL     1      45.370   5.417  13.287  0.00  0.00    +0.000 A 
ENDROOT
BRANCH   3   7
ATOM      7  N   UNL     1      44.916   3.715   9.466  0.00  0.00    +0.000 N 
ATOM      8  C   UNL     1      44.686   2.292   9.186  0.00  0.00    +0.000 C 
ATOM      9  C   UNL     1      45.880   1.674   8.447  0.00  0.00    +0.000 C 
ATOM     10  O   UNL     1      46.240   2.435   7.282  0.00  0.00    +0.000 OA
ATOM     11  C   UNL     1      46.587   3.779   7.657  0.00  0.00    +0.000 C 
ATOM     12  C   UNL     1      45.404   4.500   8.320  0.00  0.00    +0.000 C 
ENDBRANCH   3   7
BRANCH   5  13
ATOM     13  C   UNL     1      46.118   7.620  12.225  0.00  0.00    +0.000 C 
ATOM     14  C   UNL     1      45.079   8.552  12.828  0.00  0.00    +0.000 C 
ATOM     15  C   UNL     1      45.369   8.630  11.365  0.00  0.00    +0.000 C 
BRANCH  13  16
ATOM     16  C   UNL     1      47.619   7.854  12.437  0.00  0.00    +0.000 A 
ATOM     17  C   UNL     1      48.120   8.069  13.713  0.00  0.00    +0.000 A 
ATOM     18  C   UNL     1      49.485   7.988  13.874  0.00  0.00    +0.000 A 
ATOM     19  N   UNL     1      50.337   7.767  12.861  0.00  0.00    +0.000 NA
ATOM     20  C   UNL     1      49.769   7.624  11.657  0.00  0.00    +0.000 A 
ATOM     21  N   UNL     1      48.455   7.659  11.389  0.00  0.00    +0.000 NA
ENDBRANCH  13  16
ENDBRANCH   5  13
TORSDOF 3
ENDMDL
MODEL 9
REMARK VINA RESULT:    -5.794      2.767      4.201
REMARK INTER + INTRA:          -6.930
REMARK INTER:                  -6.999
REMARK INTRA:                   0.069
REMARK UNBOUND:                -0.119
REMARK  Name = 
REMARK  3 active torsions:
REMARK  status: ('A' for Active; 'I' for Inactive)
REMARK    1  A    between atoms: C_3  and  N_4
REMARK    2  A    between atoms: C_11  and  C_12
REMARK    3  A    between atoms: C_12  and  C_13
REMARK                            x       y       z     vdW  Elec       q    Type
REMARK                         _______ _______ _______ _____ _____    ______ ____
ROOT
ATOM      1  C   UNL     1      46.436   5.000  13.870  0.00  0.00    +0.000 A 
ATOM      2  C   UNL     1      45.651   4.533  12.809  0.00  0.00    +0.000 A 
ATOM      3  C   UNL     1      45.711   5.129  11.549  0.00  0.00    +0.000 A 
ATOM      4  C   UNL     1      46.567   6.228  11.405  0.00  0.00    +0.000 A 
ATOM      5  C   UNL     1      47.325   6.768  12.466  0.00  0.00    +0.000 A 
ATOM      6  C   UNL     1      47.265   6.108  13.698  0.00  0.00    +0.000 A 
ENDROOT
BRANCH   3   7
ATOM      7  N   UNL     1      44.940   4.729  10.475  0.00  0.00    +0.000 N 
ATOM      8  C   UNL     1      43.975   3.623  10.539  0.00  0.00    +0.000 C 
ATOM      9  C   UNL     1      44.426   2.445   9.665  0.00  0.00    +0.000 C 
ATOM     10  O   UNL     1      44.730   2.861   8.322  0.00  0.00    +0.000 OA
ATOM     11  C   UNL     1      45.781   3.842   8.336  0.00  0.00    +0.000 C 
ATOM     12  C   UNL     1      45.366   5.099   9.116  0.00  0.00    +0.000 C 
ENDBRANCH   3   7
BRANCH   5  13
ATOM     13  C   UNL     1      47.997   8.130  12.314  0.00  0.00    +0.000 C 
ATOM     14  C   UNL     1      49.310   8.179  11.549  0.00  0.00    +0.000 C 
ATOM     15  C   UNL     1      49.313   8.426  13.022  0.00  0.00    +0.000 C 
BRANCH  13  16
ATOM     16  C   UNL     1      46.977   9.273  12.222  0.00  0.00    +0.000 A 
ATOM     17  C   UNL     1      47.328  10.478  11.630  0.00  0.00    +0.000 A 
ATOM     18  C   UNL     1      46.307  11.348  11.322  0.00  0.00    +0.000 A 
ATOM     19  N   UNL     1      45.019  11.107  11.610  0.00  0.00    +0.000 NA
ATOM     20  C   UNL     1      44.778   9.943  12.228  0.00  0.00    +0.000 A 
ATOM     21  N   UNL     1      45.689   9.013  12.552  0.00  0.00    +0.000 NA
ENDBRANCH  13  16
ENDBRANCH   5  13
TORSDOF 3
ENDMDL
