MODEL 1
REMARK VINA RESULT:    -8.416      0.000      0.000
REMARK INTER + INTRA:         -10.196
REMARK INTER:                 -10.384
REMARK INTRA:                   0.188
REMARK UNBOUND:                 0.188
REMARK  Name = 
REMARK  6 active torsions:
REMARK  status: ('A' for Active; 'I' for Inactive)
REMARK    1  A    between atoms: C_1  and  C_2
REMARK    2  A    between atoms: C_5  and  N_6
REMARK    3  A    between atoms: N_6  and  C_7
REMARK    4  A    between atoms: C_7  and  C_8
REMARK    5  A    between atoms: C_12  and  C_13
REMARK    6  A    between atoms: C_22  and  C_23
REMARK                            x       y       z     vdW  Elec       q    Type
REMARK                         _______ _______ _______ _____ _____    ______ ____
ROOT
ATOM      1  C   UNL     1      43.913   4.777  10.867  0.00  0.00    +0.000 C 
ATOM      2  C   UNL     1      43.231   3.724  11.740  0.00  0.00    +0.000 C 
ATOM      3  C   UNL     1      42.621   5.078  11.608  0.00  0.00    +0.000 C 
ENDROOT
BRANCH   1   4
ATOM      4  C   UNL     1      45.224   5.347  11.407  0.00  0.00    +0.000 A 
ATOM      5  C   UNL     1      45.888   6.406  10.773  0.00  0.00    +0.000 A 
ATOM      6  C   UNL     1      47.035   6.974  11.322  0.00  0.00    +0.000 A 
ATOM      7  C   UNL     1      47.531   6.509  12.540  0.00  0.00    +0.000 A 
ATOM      8  C   UNL     1      46.906   5.454  13.221  0.00  0.00    +0.000 A 
ATOM      9  C   UNL     1      45.786   4.864  12.607  0.00  0.00    +0.000 A 
BRANCH   8  10
ATOM     10  C   UNL     1      47.341   5.029  14.568  0.00  0.00    +0.000 A 
ATOM     11  C   UNL     1      48.117   5.844  15.405  0.00  0.00    +0.000 A 
ATOM     12  C   UNL     1      48.566   5.371  16.637  0.00  0.00    +0.000 A 
ATOM     13  C   UNL     1      48.216   4.089  17.016  0.00  0.00    +0.000 A 
ATOM     14  N   UNL     1      47.466   3.263  16.257  0.00  0.00    +0.000 NA
ATOM     15  C   UNL     1      47.057   3.755  15.057  0.00  0.00    +0.000 A 
ENDBRANCH   8  10
ENDBRANCH   1   4
BRANCH   1  16
ATOM     16  N   UNL     1      43.882   4.572   9.394  0.00  0.00    +0.000 N 
ATOM     17  H   UNL     1      43.020   4.143   9.071  0.00  0.00    +0.000 HD
BRANCH  16  22
ATOM     18  C   UNL     1      48.072   2.068   6.469  0.00  0.00    +0.000 C 
ATOM     19  C   UNL     1      47.014   2.695   7.317  0.00  0.00    +0.000 A 
ATOM     20  C   UNL     1      46.851   4.065   7.378  0.00  0.00    +0.000 A 
ATOM     21  N   UNL     1      45.858   4.679   8.057  0.00  0.00    +0.000 NA
ATOM     22  C   UNL     1      44.974   3.928   8.753  0.00  0.00    +0.000 A 
ATOM     23  C   UNL     1      45.085   2.530   8.789  0.00  0.00    +0.000 A 
ATOM     24  C   UNL     1      44.139   1.630   9.532  0.00  0.00    +0.000 C 
ATOM     25  C   UNL     1      46.113   1.923   8.044  0.00  0.00    +0.000 A 
ENDBRANCH  16  22
ENDBRANCH   1  16
TORSDOF 4
ENDMDL
MODEL 2
REMARK VINA RESULT:    -8.018      2.951      4.710
REMARK INTER + INTRA:          -9.705
REMARK INTER:                  -9.464
REMARK INTRA:                  -0.240
REMARK UNBOUND:                 0.188
REMARK  Name = 
REMARK  6 active torsions:
REMARK  status: ('A' for Active; 'I' for Inactive)
REMARK    1  A    between atoms: C_1  and  C_2
REMARK    2  A    between atoms: C_5  and  N_6
REMARK    3  A    between atoms: N_6  and  C_7
REMARK    4  A    between atoms: C_7  and  C_8
REMARK    5  A    between atoms: C_12  and  C_13
REMARK    6  A    between atoms: C_22  and  C_23
REMARK                            x       y       z     vdW  Elec       q    Type
REMARK                         _______ _______ _______ _____ _____    ______ ____
ROOT
ATOM      1  C   UNL     1      44.280   4.816  11.217  0.00  0.00    +0.000 C 
ATOM      2  C   UNL     1      44.533   3.583  12.084  0.00  0.00    +0.000 C 
ATOM      3  C   UNL     1      43.255   4.337  12.231  0.00  0.00    +0.000 C 
ENDROOT
BRANCH   1   4
ATOM      4  C   UNL     1      45.123   6.049  11.544  0.00  0.00    +0.000 A 
ATOM      5  C   UNL     1      46.502   5.963  11.772  0.00  0.00    +0.000 A 
ATOM      6  C   UNL     1      47.274   7.104  11.984  0.00  0.00    +0.000 A 
ATOM      7  C   UNL     1      46.680   8.366  11.944  0.00  0.00    +0.000 A 
ATOM      8  C   UNL     1      45.304   8.512  11.715  0.00  0.00    +0.000 A 
ATOM      9  C   UNL     1      44.546   7.336  11.567  0.00  0.00    +0.000 A 
BRANCH   8  10
ATOM     10  C   UNL     1      44.679   9.841  11.547  0.00  0.00    +0.000 A 
ATOM     11  C   UNL     1      43.411  10.014  10.974  0.00  0.00    +0.000 A 
ATOM     12  C   UNL     1      42.895  11.294  10.767  0.00  0.00    +0.000 A 
ATOM     13  C   UNL     1      43.657  12.379  11.155  0.00  0.00    +0.000 A 
ATOM     14  N   UNL     1      44.877  12.274  11.719  0.00  0.00    +0.000 NA
ATOM     15  C   UNL     1      45.353  11.011  11.892  0.00  0.00    +0.000 A 
ENDBRANCH   8  10
ENDBRANCH   1   4
BRANCH   1  16
ATOM     16  N   UNL     1      44.034   4.597   9.766  0.00  0.00    +0.000 N 
ATOM     17  H   UNL     1      43.166   4.104   9.581  0.00  0.00    +0.000 HD
BRANCH  16  22
ATOM     18  C   UNL     1      47.930   2.461   6.210  0.00  0.00    +0.000 C 
ATOM     19  C   UNL     1      46.951   2.976   7.215  0.00  0.00    +0.000 A 
ATOM     20  C   UNL     1      46.860   4.322   7.515  0.00  0.00    +0.000 A 
ATOM     21  N   UNL     1      45.938   4.850   8.346  0.00  0.00    +0.000 NA
ATOM     22  C   UNL     1      45.057   4.028   8.961  0.00  0.00    +0.000 A 
ATOM     23  C   UNL     1      45.099   2.641   8.755  0.00  0.00    +0.000 A 
ATOM     24  C   UNL     1      44.151   1.666   9.393  0.00  0.00    +0.000 C 
ATOM     25  C   UNL     1      46.053   2.129   7.857  0.00  0.00    +0.000 A 
ENDBRANCH  16  22
ENDBRANCH   1  16
TORSDOF 4
ENDMDL
MODEL 3
REMARK VINA RESULT:    -7.983      1.635      2.566
REMARK INTER + INTRA:          -9.661
REMARK INTER:                  -8.598
REMARK INTRA:                  -1.064
REMARK UNBOUND:                 0.188
REMARK  Name = 
REMARK  6 active torsions:
REMARK  status: ('A' for Active; 'I' for Inactive)
REMARK    1  A    between atoms: C_1  and  C_2
REMARK    2  A    between atoms: C_5  and  N_6
REMARK    3  A    between atoms: N_6  and  C_7
REMARK    4  A    between atoms: C_7  and  C_8
REMARK    5  A    between atoms: C_12  and  C_13
REMARK    6  A    between atoms: C_22  and  C_23
REMARK                            x       y       z     vdW  Elec       q    Type
REMARK                         _______ _______ _______ _____ _____    ______ ____
ROOT
ATOM      1  C   UNL     1      43.786   5.226  10.921  0.00  0.00    +0.000 C 
ATOM      2  C   UNL     1      42.519   5.770  11.581  0.00  0.00    +0.000 C 
ATOM      3  C   UNL     1      43.403   6.692  10.810  0.00  0.00    +0.000 C 
ENDROOT
BRANCH   1   4
ATOM      4  C   UNL     1      44.916   4.828  11.870  0.00  0.00    +0.000 A 
ATOM      5  C   UNL     1      45.058   3.517  12.344  0.00  0.00    +0.000 A 
ATOM      6  C   UNL     1      46.141   3.147  13.138  0.00  0.00    +0.000 A 
ATOM      7  C   UNL     1      47.127   4.082  13.454  0.00  0.00    +0.000 A 
ATOM      8  C   UNL     1      47.039   5.407  13.004  0.00  0.00    +0.000 A 
ATOM      9  C   UNL     1      45.901   5.760  12.256  0.00  0.00    +0.000 A 
BRANCH   8  10
ATOM     10  C   UNL     1      48.131   6.379  13.224  0.00  0.00    +0.000 A 
ATOM     11  C   UNL     1      48.717   7.109  12.180  0.00  0.00    +0.000 A 
ATOM     12  C   UNL     1      49.795   7.958  12.426  0.00  0.00    +0.000 A 
ATOM     13  C   UNL     1      50.259   8.071  13.723  0.00  0.00    +0.000 A 
ATOM     14  N   UNL     1      49.730   7.402  14.768  0.00  0.00    +0.000 NA
ATOM     15  C   UNL     1      48.689   6.573  14.487  0.00  0.00    +0.000 A 
ENDBRANCH   8  10
ENDBRANCH   1   4
BRANCH   1  16
ATOM     16  N   UNL     1      43.617   4.332   9.744  0.00  0.00    +0.000 N 
ATOM     17  H   UNL     1      43.040   3.521   9.942  0.00  0.00    +0.000 HD
BRANCH  16  22
ATOM     18  C   UNL     1      48.007   2.738   6.494  0.00  0.00    +0.000 C 
ATOM     19  C   UNL     1      46.900   3.117   7.422  0.00  0.00    +0.000 A 
ATOM     20  C   UNL     1      46.603   4.439   7.693  0.00  0.00    +0.000 A 
ATOM     21  N   UNL     1      45.560   4.839   8.452  0.00  0.00    +0.000 NA
ATOM     22  C   UNL     1      44.762   3.906   9.019  0.00  0.00    +0.000 A 
ATOM     23  C   UNL     1      45.011   2.537   8.838  0.00  0.00    +0.000 A 
ATOM     24  C   UNL     1      44.165   1.444   9.427  0.00  0.00    +0.000 C 
ATOM     25  C   UNL     1      46.086   2.157   8.015  0.00  0.00    +0.000 A 
ENDBRANCH  16  22
ENDBRANCH   1  16
TORSDOF 4
ENDMDL
MODEL 4
REMARK VINA RESULT:    -7.941      1.706      7.178
REMARK INTER + INTRA:          -9.609
REMARK INTER:                  -8.645
REMARK INTRA:                  -0.964
REMARK UNBOUND:                 0.188
REMARK  Name = 
REMARK  6 active torsions:
REMARK  status: ('A' for Active; 'I' for Inactive)
REMARK    1  A    between atoms: C_1  and  C_2
REMARK    2  A    between atoms: C_5  and  N_6
REMARK    3  A    between atoms: N_6  and  C_7
REMARK    4  A    between atoms: C_7  and  C_8
REMARK    5  A    between atoms: C_12  and  C_13
REMARK    6  A    between atoms: C_22  and  C_23
REMARK                            x       y       z     vdW  Elec       q    Type
REMARK                         _______ _______ _______ _____ _____    ______ ____
ROOT
ATOM      1  C   UNL     1      46.405   7.377  12.409  0.00  0.00    +0.000 C 
ATOM      2  C   UNL     1      46.398   8.813  11.886  0.00  0.00    +0.000 C 
ATOM      3  C   UNL     1      45.858   8.522  13.244  0.00  0.00    +0.000 C 
ENDROOT
BRANCH   1   4
ATOM      4  C   UNL     1      45.422   6.416  11.739  0.00  0.00    +0.000 A 
ATOM      5  C   UNL     1      44.042   6.487  11.973  0.00  0.00    +0.000 A 
ATOM      6  C   UNL     1      43.149   5.664  11.291  0.00  0.00    +0.000 A 
ATOM      7  C   UNL     1      43.619   4.765  10.334  0.00  0.00    +0.000 A 
ATOM      8  C   UNL     1      44.989   4.655  10.055  0.00  0.00    +0.000 A 
ATOM      9  C   UNL     1      45.867   5.457  10.806  0.00  0.00    +0.000 A 
BRANCH   8  10
ATOM     10  C   UNL     1      45.495   3.800   8.960  0.00  0.00    +0.000 A 
ATOM     11  C   UNL     1      45.533   2.402   9.047  0.00  0.00    +0.000 A 
ATOM     12  C   UNL     1      46.089   1.641   8.017  0.00  0.00    +0.000 A 
ATOM     13  C   UNL     1      46.584   2.301   6.909  0.00  0.00    +0.000 A 
ATOM     14  N   UNL     1      46.566   3.642   6.765  0.00  0.00    +0.000 NA
ATOM     15  C   UNL     1      46.029   4.350   7.795  0.00  0.00    +0.000 A 
ENDBRANCH   8  10
ENDBRANCH   1   4
BRANCH   1  16
ATOM     16  N   UNL     1      47.722   6.778  12.757  0.00  0.00    +0.000 N 
ATOM     17  H   UNL     1      48.098   6.193  12.017  0.00  0.00    +0.000 HD
BRANCH  16  22
ATOM     18  C   UNL     1      47.949   4.144  17.796  0.00  0.00    +0.000 C 
ATOM     19  C   UNL     1      47.984   4.822  16.464  0.00  0.00    +0.000 A 
ATOM     20  C   UNL     1      47.345   4.288  15.362  0.00  0.00    +0.000 A 
ATOM     21  N   UNL     1      47.270   4.901  14.161  0.00  0.00    +0.000 NA
ATOM     22  C   UNL     1      47.877   6.098  13.994  0.00  0.00    +0.000 A 
ATOM     23  C   UNL     1      48.589   6.699  15.043  0.00  0.00    +0.000 A 
ATOM     24  C   UNL     1      49.280   8.029  14.936  0.00  0.00    +0.000 C 
ATOM     25  C   UNL     1      48.619   6.048  16.289  0.00  0.00    +0.000 A 
ENDBRANCH  16  22
ENDBRANCH   1  16
TORSDOF 4
ENDMDL
MODEL 5
REMARK VINA RESULT:    -7.818      3.270      7.116
REMARK INTER + INTRA:          -9.459
REMARK INTER:                  -8.476
REMARK INTRA:                  -0.983
REMARK UNBOUND:                 0.188
REMARK  Name = 
REMARK  6 active torsions:
REMARK  status: ('A' for Active; 'I' for Inactive)
REMARK    1  A    between atoms: C_1  and  C_2
REMARK    2  A    between atoms: C_5  and  N_6
REMARK    3  A    between atoms: N_6  and  C_7
REMARK    4  A    between atoms: C_7  and  C_8
REMARK    5  A    between atoms: C_12  and  C_13
REMARK    6  A    between atoms: C_22  and  C_23
REMARK                            x       y       z     vdW  Elec       q    Type
REMARK                         _______ _______ _______ _____ _____    ______ ____
ROOT
ATOM      1  C   UNL     1      45.934   7.895  12.593  0.00  0.00    +0.000 C 
ATOM      2  C   UNL     1      47.109   7.674  13.544  0.00  0.00    +0.000 C 
ATOM      3  C   UNL     1      47.372   8.037  12.122  0.00  0.00    +0.000 C 
ENDROOT
BRANCH   1   4
ATOM      4  C   UNL     1      45.148   6.645  12.198  0.00  0.00    +0.000 A 
ATOM      5  C   UNL     1      43.914   6.331  12.783  0.00  0.00    +0.000 A 
ATOM      6  C   UNL     1      43.166   5.236  12.354  0.00  0.00    +0.000 A 
ATOM      7  C   UNL     1      43.629   4.443  11.304  0.00  0.00    +0.000 A 
ATOM      8  C   UNL     1      44.855   4.713  10.678  0.00  0.00    +0.000 A 
ATOM      9  C   UNL     1      45.612   5.788  11.178  0.00  0.00    +0.000 A 
BRANCH   8  10
ATOM     10  C   UNL     1      45.303   3.962   9.486  0.00  0.00    +0.000 A 
ATOM     11  C   UNL     1      45.284   2.561   9.423  0.00  0.00    +0.000 A 
ATOM     12  C   UNL     1      45.787   1.895   8.305  0.00  0.00    +0.000 A 
ATOM     13  C   UNL     1      46.288   2.650   7.262  0.00  0.00    +0.000 A 
ATOM     14  N   UNL     1      46.324   3.998   7.263  0.00  0.00    +0.000 NA
ATOM     15  C   UNL     1      45.837   4.612   8.375  0.00  0.00    +0.000 A 
ENDBRANCH   8  10
ENDBRANCH   1   4
BRANCH   1  16
ATOM     16  N   UNL     1      45.105   9.114  12.796  0.00  0.00    +0.000 N 
ATOM     17  H   UNL     1      44.292   8.946  13.380  0.00  0.00    +0.000 HD
BRANCH  16  22
ATOM     18  C   UNL     1      43.634  11.892   8.053  0.00  0.00    +0.000 C 
ATOM     19  C   UNL     1      43.998  11.241   9.348  0.00  0.00    +0.000 A 
ATOM     20  C   UNL     1      43.287  10.165   9.843  0.00  0.00    +0.000 A 
ATOM     21  N   UNL     1      43.625   9.485  10.960  0.00  0.00    +0.000 NA
ATOM     22  C   UNL     1      44.704   9.883  11.672  0.00  0.00    +0.000 A 
ATOM     23  C   UNL     1      45.462  10.994  11.273  0.00  0.00    +0.000 A 
ATOM     24  C   UNL     1      46.676  11.490  12.006  0.00  0.00    +0.000 C 
ATOM     25  C   UNL     1      45.100  11.659  10.087  0.00  0.00    +0.000 A 
ENDBRANCH  16  22
ENDBRANCH   1  16
TORSDOF 4
ENDMDL
MODEL 6
REMARK VINA RESULT:    -7.702      2.037      2.787
REMARK INTER + INTRA:          -9.314
REMARK INTER:                  -9.110
REMARK INTRA:                  -0.204
REMARK UNBOUND:                 0.188
REMARK  Name = 
REMARK  6 active torsions:
REMARK  status: ('A' for Active; 'I' for Inactive)
REMARK    1  A    between atoms: C_1  and  C_2
REMARK    2  A    between atoms: C_5  and  N_6
REMARK    3  A    between atoms: N_6  and  C_7
REMARK    4  A    between atoms: C_7  and  C_8
REMARK    5  A    between atoms: C_12  and  C_13
REMARK    6  A    between atoms: C_22  and  C_23
REMARK                            x       y       z     vdW  Elec       q    Type
REMARK                         _______ _______ _______ _____ _____    ______ ____
ROOT
ATOM      1  C   UNL     1      44.592   4.940  11.282  0.00  0.00    +0.000 C 
ATOM      2  C   UNL     1      45.259   3.839  12.105  0.00  0.00    +0.000 C 
ATOM      3  C   UNL     1      43.873   4.272  12.442  0.00  0.00    +0.000 C 
ENDROOT
BRANCH   1   4
ATOM      4  C   UNL     1      45.151   6.350  11.473  0.00  0.00    +0.000 A 
ATOM      5  C   UNL     1      44.339   7.488  11.379  0.00  0.00    +0.000 A 
ATOM      6  C   UNL     1      44.842   8.761  11.640  0.00  0.00    +0.000 A 
ATOM      7  C   UNL     1      46.171   8.919  12.030  0.00  0.00    +0.000 A 
ATOM      8  C   UNL     1      47.029   7.816  12.145  0.00  0.00    +0.000 A 
ATOM      9  C   UNL     1      46.504   6.553  11.814  0.00  0.00    +0.000 A 
BRANCH   8  10
ATOM     10  C   UNL     1      48.403   7.948  12.674  0.00  0.00    +0.000 A 
ATOM     11  C   UNL     1      49.432   8.579  11.960  0.00  0.00    +0.000 A 
ATOM     12  C   UNL     1      50.730   8.614  12.469  0.00  0.00    +0.000 A 
ATOM     13  C   UNL     1      50.970   8.026  13.697  0.00  0.00    +0.000 A 
ATOM     14  N   UNL     1      50.020   7.414  14.432  0.00  0.00    +0.000 NA
ATOM     15  C   UNL     1      48.769   7.388  13.897  0.00  0.00    +0.000 A 
ENDBRANCH   8  10
ENDBRANCH   1   4
BRANCH   1  16
ATOM     16  N   UNL     1      44.195   4.611   9.886  0.00  0.00    +0.000 N 
ATOM     17  H   UNL     1      43.337   4.070   9.836  0.00  0.00    +0.000 HD
BRANCH  16  22
ATOM     18  C   UNL     1      47.787   2.435   6.047  0.00  0.00    +0.000 C 
ATOM     19  C   UNL     1      46.893   2.959   7.123  0.00  0.00    +0.000 A 
ATOM     20  C   UNL     1      46.845   4.305   7.434  0.00  0.00    +0.000 A 
ATOM     21  N   UNL     1      45.994   4.843   8.333  0.00  0.00    +0.000 NA
ATOM     22  C   UNL     1      45.147   4.031   9.006  0.00  0.00    +0.000 A 
ATOM     23  C   UNL     1      45.153   2.644   8.791  0.00  0.00    +0.000 A 
ATOM     24  C   UNL     1      44.237   1.681   9.493  0.00  0.00    +0.000 C 
ATOM     25  C   UNL     1      46.030   2.122   7.824  0.00  0.00    +0.000 A 
ENDBRANCH  16  22
ENDBRANCH   1  16
TORSDOF 4
ENDMDL
MODEL 7
REMARK VINA RESULT:    -7.619      2.136      7.131
REMARK INTER + INTRA:          -9.212
REMARK INTER:                  -8.499
REMARK INTRA:                  -0.714
REMARK UNBOUND:                 0.188
REMARK  Name = 
REMARK  6 active torsions:
REMARK  status: ('A' for Active; 'I' for Inactive)
REMARK    1  A    between atoms: C_1  and  C_2
REMARK    2  A    between atoms: C_5  and  N_6
REMARK    3  A    between atoms: N_6  and  C_7
REMARK    4  A    between atoms: C_7  and  C_8
REMARK    5  A    between atoms: C_12  and  C_13
REMARK    6  A    between atoms: C_22  and  C_23
REMARK                            x       y       z     vdW  Elec       q    Type
REMARK                         _______ _______ _______ _____ _____    ______ ____
ROOT
ATOM      1  C   UNL     1      44.806   5.564  11.509  0.00  0.00    +0.000 C 
ATOM      2  C   UNL     1      43.445   6.234  11.695  0.00  0.00    +0.000 C 
ATOM      3  C   UNL     1      44.161   5.683  12.880  0.00  0.00    +0.000 C 
ENDROOT
BRANCH   1   4
ATOM      4  C   UNL     1      44.793   4.208  10.802  0.00  0.00    +0.000 A 
ATOM      5  C   UNL     1      43.892   3.196  11.158  0.00  0.00    +0.000 A 
ATOM      6  C   UNL     1      43.831   1.997  10.450  0.00  0.00    +0.000 A 
ATOM      7  C   UNL     1      44.659   1.797   9.346  0.00  0.00    +0.000 A 
ATOM      8  C   UNL     1      45.578   2.777   8.941  0.00  0.00    +0.000 A 
ATOM      9  C   UNL     1      45.654   3.948   9.716  0.00  0.00    +0.000 A 
BRANCH   8  10
ATOM     10  C   UNL     1      46.374   2.634   7.704  0.00  0.00    +0.000 A 
ATOM     11  C   UNL     1      46.255   3.517   6.621  0.00  0.00    +0.000 A 
ATOM     12  C   UNL     1      46.973   3.298   5.446  0.00  0.00    +0.000 A 
ATOM     13  C   UNL     1      47.813   2.202   5.384  0.00  0.00    +0.000 A 
ATOM     14  N   UNL     1      47.975   1.326   6.395  0.00  0.00    +0.000 NA
ATOM     15  C   UNL     1      47.248   1.564   7.520  0.00  0.00    +0.000 A 
ENDBRANCH   8  10
ENDBRANCH   1   4
BRANCH   1  16
ATOM     16  N   UNL     1      45.960   6.436  11.163  0.00  0.00    +0.000 N 
ATOM     17  H   UNL     1      46.540   6.049  10.425  0.00  0.00    +0.000 HD
BRANCH  16  22
ATOM     18  C   UNL     1      49.145   8.136  15.561  0.00  0.00    +0.000 C 
ATOM     19  C   UNL     1      48.351   7.757  14.353  0.00  0.00    +0.000 A 
ATOM     20  C   UNL     1      48.500   6.525  13.745  0.00  0.00    +0.000 A 
ATOM     21  N   UNL     1      47.748   6.098  12.708  0.00  0.00    +0.000 NA
ATOM     22  C   UNL     1      46.806   6.921  12.195  0.00  0.00    +0.000 A 
ATOM     23  C   UNL     1      46.611   8.210  12.716  0.00  0.00    +0.000 A 
ATOM     24  C   UNL     1      45.580   9.176  12.206  0.00  0.00    +0.000 C 
ATOM     25  C   UNL     1      47.390   8.609  13.817  0.00  0.00    +0.000 A 
ENDBRANCH  16  22
ENDBRANCH   1  16
TORSDOF 4
ENDMDL
MODEL 8
REMARK VINA RESULT:    -7.222      2.042      6.637
REMARK INTER + INTRA:          -8.723
REMARK INTER:                  -7.477
REMARK INTRA:                  -1.246
REMARK UNBOUND:                 0.188
REMARK  Name = 
REMARK  6 active torsions:
REMARK  status: ('A' for Active; 'I' for Inactive)
REMARK    1  A    between atoms: C_1  and  C_2
REMARK    2  A    between atoms: C_5  and  N_6
REMARK    3  A    between atoms: N_6  and  C_7
REMARK    4  A    between atoms: C_7  and  C_8
REMARK    5  A    between atoms: C_12  and  C_13
REMARK    6  A    between atoms: C_22  and  C_23
REMARK                            x       y       z     vdW  Elec       q    Type
REMARK                         _______ _______ _______ _____ _____    ______ ____
ROOT
ATOM      1  C   UNL     1      46.576   5.070  14.034  0.00  0.00    +0.000 C 
ATOM      2  C   UNL     1      46.462   4.146  15.246  0.00  0.00    +0.000 C 
ATOM      3  C   UNL     1      47.583   3.959  14.280  0.00  0.00    +0.000 C 
ENDROOT
BRANCH   1   4
ATOM      4  C   UNL     1      45.519   4.880  12.946  0.00  0.00    +0.000 A 
ATOM      5  C   UNL     1      44.216   5.378  13.085  0.00  0.00    +0.000 A 
ATOM      6  C   UNL     1      43.287   5.275  12.052  0.00  0.00    +0.000 A 
ATOM      7  C   UNL     1      43.654   4.693  10.839  0.00  0.00    +0.000 A 
ATOM      8  C   UNL     1      44.945   4.181  10.641  0.00  0.00    +0.000 A 
ATOM      9  C   UNL     1      45.838   4.247  11.727  0.00  0.00    +0.000 A 
BRANCH   8  10
ATOM     10  C   UNL     1      45.390   3.673   9.326  0.00  0.00    +0.000 A 
ATOM     11  C   UNL     1      45.452   2.306   9.025  0.00  0.00    +0.000 A 
ATOM     12  C   UNL     1      45.949   1.872   7.795  0.00  0.00    +0.000 A 
ATOM     13  C   UNL     1      46.362   2.824   6.882  0.00  0.00    +0.000 A 
ATOM     14  N   UNL     1      46.317   4.151   7.113  0.00  0.00    +0.000 NA
ATOM     15  C   UNL     1      45.839   4.536   8.327  0.00  0.00    +0.000 A 
ENDBRANCH   8  10
ENDBRANCH   1   4
BRANCH   1  16
ATOM     16  N   UNL     1      46.968   6.483  14.282  0.00  0.00    +0.000 N 
ATOM     17  H   UNL     1      46.171   7.097  14.420  0.00  0.00    +0.000 HD
BRANCH  16  22
ATOM     18  C   UNL     1      50.763   9.261  11.078  0.00  0.00    +0.000 C 
ATOM     19  C   UNL     1      49.732   8.492  11.839  0.00  0.00    +0.000 A 
ATOM     20  C   UNL     1      50.083   7.499  12.733  0.00  0.00    +0.000 A 
ATOM     21  N   UNL     1      49.201   6.835  13.510  0.00  0.00    +0.000 NA
ATOM     22  C   UNL     1      47.883   7.121  13.402  0.00  0.00    +0.000 A 
ATOM     23  C   UNL     1      47.425   8.083  12.488  0.00  0.00    +0.000 A 
ATOM     24  C   UNL     1      45.981   8.460  12.318  0.00  0.00    +0.000 C 
ATOM     25  C   UNL     1      48.376   8.777  11.718  0.00  0.00    +0.000 A 
ENDBRANCH  16  22
ENDBRANCH   1  16
TORSDOF 4
ENDMDL
MODEL 9
REMARK VINA RESULT:    -7.153      2.409      7.589
REMARK INTER + INTRA:          -8.638
REMARK INTER:                  -7.674
REMARK INTRA:                  -0.964
REMARK UNBOUND:                 0.188
REMARK  Name = 
REMARK  6 active torsions:
REMARK  status: ('A' for Active; 'I' for Inactive)
REMARK    1  A    between atoms: C_1  and  C_2
REMARK    2  A    between atoms: C_5  and  N_6
REMARK    3  A    between atoms: N_6  and  C_7
REMARK    4  A    between atoms: C_7  and  C_8
REMARK    5  A    between atoms: C_12  and  C_13
REMARK    6  A    between atoms: C_22  and  C_23
REMARK                            x       y       z     vdW  Elec       q    Type
REMARK                         _______ _______ _______ _____ _____    ______ ____
ROOT
ATOM      1  C   UNL     1      48.576   8.314  12.500  0.00  0.00    +0.000 C 
ATOM      2  C   UNL     1      49.207   9.355  11.576  0.00  0.00    +0.000 C 
ATOM      3  C   UNL     1      48.866   9.726  12.980  0.00  0.00    +0.000 C 
ENDROOT
BRANCH   1   4
ATOM      4  C   UNL     1      47.132   7.924  12.182  0.00  0.00    +0.000 A 
ATOM      5  C   UNL     1      46.062   8.799  12.411  0.00  0.00    +0.000 A 
ATOM      6  C   UNL     1      44.762   8.466  12.037  0.00  0.00    +0.000 A 
ATOM      7  C   UNL     1      44.509   7.253  11.396  0.00  0.00    +0.000 A 
ATOM      8  C   UNL     1      45.542   6.340  11.139  0.00  0.00    +0.000 A 
ATOM      9  C   UNL     1      46.831   6.682  11.585  0.00  0.00    +0.000 A 
BRANCH   8  10
ATOM     10  C   UNL     1      45.316   5.108  10.354  0.00  0.00    +0.000 A 
ATOM     11  C   UNL     1      45.685   4.990   9.007  0.00  0.00    +0.000 A 
ATOM     12  C   UNL     1      45.383   3.833   8.287  0.00  0.00    +0.000 A 
ATOM     13  C   UNL     1      44.726   2.807   8.939  0.00  0.00    +0.000 A 
ATOM     14  N   UNL     1      44.355   2.861  10.235  0.00  0.00    +0.000 NA
ATOM     15  C   UNL     1      44.654   4.009  10.900  0.00  0.00    +0.000 A 
ENDBRANCH   8  10
ENDBRANCH   1   4
BRANCH   1  16
ATOM     16  N   UNL     1      49.438   7.192  12.960  0.00  0.00    +0.000 N 
ATOM     17  H   UNL     1      49.293   6.339  12.429  0.00  0.00    +0.000 HD
BRANCH  16  22
ATOM     18  C   UNL     1      49.306   6.143  18.552  0.00  0.00    +0.000 C 
ATOM     19  C   UNL     1      49.419   6.363  17.078  0.00  0.00    +0.000 A 
ATOM     20  C   UNL     1      48.460   5.895  16.200  0.00  0.00    +0.000 A 
ATOM     21  N   UNL     1      48.467   6.141  14.872  0.00  0.00    +0.000 NA
ATOM     22  C   UNL     1      49.481   6.862  14.341  0.00  0.00    +0.000 A 
ATOM     23  C   UNL     1      50.525   7.342  15.146  0.00  0.00    +0.000 A 
ATOM     24  C   UNL     1      51.678   8.156  14.631  0.00  0.00    +0.000 C 
ATOM     25  C   UNL     1      50.468   7.094  16.530  0.00  0.00    +0.000 A 
ENDBRANCH  16  22
ENDBRANCH   1  16
TORSDOF 4
ENDMDL
