MODEL 1
REMARK VINA RESULT:    -7.926      0.000      0.000
REMARK INTER + INTRA:         -11.591
REMARK INTER:                 -10.938
REMARK INTRA:                  -0.652
REMARK UNBOUND:                -0.652
REMARK  Name = 
REMARK  7 active torsions:
REMARK  status: ('A' for Active; 'I' for Inactive)
REMARK    1  A    between atoms: N_1  and  C_2
REMARK    2  A    between atoms: C_2  and  C_3
REMARK    3  A    between atoms: C_7  and  C_8
REMARK    4  A    between atoms: C_8  and  C_9
REMARK    5  A    between atoms: C_9  and  O_10
REMARK    6  A    between atoms: O_10  and  C_11
REMARK    7  A    between atoms: C_14  and  C_15
REMARK                            x       y       z     vdW  Elec       q    Type
REMARK                         _______ _______ _______ _____ _____    ______ ____
ROOT
ATOM      1  C   UNL     1      43.359   4.171  11.064  0.00  0.00    +0.000 C 
ENDROOT
BRANCH   1   2
ATOM      2  C   UNL     1      43.483   5.297  12.084  0.00  0.00    +0.000 C 
BRANCH   2   7
ATOM      3  C   UNL     1      46.756   5.088  14.059  0.00  0.00    +0.000 A 
ATOM      4  C   UNL     1      47.591   5.886  13.264  0.00  0.00    +0.000 A 
ATOM      5  C   UNL     1      47.092   6.520  12.125  0.00  0.00    +0.000 A 
ATOM      6  C   UNL     1      45.760   6.345  11.753  0.00  0.00    +0.000 A 
ATOM      7  C   UNL     1      44.914   5.527  12.512  0.00  0.00    +0.000 A 
ATOM      8  C   UNL     1      45.415   4.924  13.677  0.00  0.00    +0.000 A 
BRANCH   3   9
ATOM      9  C   UNL     1      47.308   4.367  15.264  0.00  0.00    +0.000 C 
BRANCH   9  10
ATOM     10  N   UNL     1      47.691   2.994  14.959  0.00  0.00    +0.000 NA
ATOM     11  H   UNL     1      48.170   2.976  14.060  0.00  0.00    +0.000 HD
ATOM     12  H   UNL     1      46.846   2.436  14.847  0.00  0.00    +0.000 HD
ENDBRANCH   9  10
ENDBRANCH   3   9
ENDBRANCH   2   7
ENDBRANCH   1   2
BRANCH   1  13
ATOM     13  O   UNL     1      43.566   4.692   9.740  0.00  0.00    +0.000 OA
BRANCH  13  14
ATOM     14  C   UNL     1      44.538   3.983   9.060  0.00  0.00    +0.000 A 
ATOM     15  C   UNL     1      44.609   2.615   9.272  0.00  0.00    +0.000 A 
ATOM     16  C   UNL     1      45.587   1.890   8.587  0.00  0.00    +0.000 A 
ATOM     17  C   UNL     1      46.459   2.553   7.717  0.00  0.00    +0.000 A 
ATOM     18  C   UNL     1      46.302   3.919   7.578  0.00  0.00    +0.000 A 
ATOM     19  N   UNL     1      45.363   4.644   8.225  0.00  0.00    +0.000 NA
BRANCH  17  20
ATOM     20  C   UNL     1      47.497   1.789   6.984  0.00  0.00    +0.000 C 
ATOM     21  N   UNL     1      48.556   2.461   6.437  0.00  0.00    +0.000 N 
ATOM     22  O   UNL     1      47.417   0.571   6.865  0.00  0.00    +0.000 OA
ATOM     23  H   UNL     1      48.719   3.456   6.472  0.00  0.00    +0.000 HD
ATOM     24  H   UNL     1      49.243   1.901   5.945  0.00  0.00    +0.000 HD
ENDBRANCH  17  20
ENDBRANCH  13  14
ENDBRANCH   1  13
TORSDOF 7
ENDMDL
MODEL 2
REMARK VINA RESULT:    -7.817      1.737      2.322
REMARK INTER + INTRA:         -11.440
REMARK INTER:                 -10.816
REMARK INTRA:                  -0.623
REMARK UNBOUND:                -0.652
REMARK  Name = 
REMARK  7 active torsions:
REMARK  status: ('A' for Active; 'I' for Inactive)
REMARK    1  A    between atoms: N_1  and  C_2
REMARK    2  A    between atoms: C_2  and  C_3
REMARK    3  A    between atoms: C_7  and  C_8
REMARK    4  A    between atoms: C_8  and  C_9
REMARK    5  A    between atoms: C_9  and  O_10
REMARK    6  A    between atoms: O_10  and  C_11
REMARK    7  A    between atoms: C_14  and  C_15
REMARK                            x       y       z     vdW  Elec       q    Type
REMARK                         _______ _______ _______ _____ _____    ______ ____
ROOT
ATOM      1  C   UNL     1      43.380   3.710  11.244  0.00  0.00    +0.000 C 
ENDROOT
BRANCH   1   2
ATOM      2  C   UNL     1      43.304   4.619  12.465  0.00  0.00    +0.000 C 
BRANCH   2   7
ATOM      3  C   UNL     1      45.961   7.354  12.808  0.00  0.00    +0.000 A 
ATOM      4  C   UNL     1      47.026   6.617  13.345  0.00  0.00    +0.000 A 
ATOM      5  C   UNL     1      46.903   5.242  13.554  0.00  0.00    +0.000 A 
ATOM      6  C   UNL     1      45.707   4.592  13.252  0.00  0.00    +0.000 A 
ATOM      7  C   UNL     1      44.617   5.312  12.746  0.00  0.00    +0.000 A 
ATOM      8  C   UNL     1      44.763   6.687  12.504  0.00  0.00    +0.000 A 
BRANCH   3   9
ATOM      9  C   UNL     1      46.080   8.847  12.626  0.00  0.00    +0.000 C 
BRANCH   9  10
ATOM     10  N   UNL     1      44.807   9.531  12.824  0.00  0.00    +0.000 NA
ATOM     11  H   UNL     1      44.329   9.608  11.927  0.00  0.00    +0.000 HD
ATOM     12  H   UNL     1      44.993  10.483  13.134  0.00  0.00    +0.000 HD
ENDBRANCH   9  10
ENDBRANCH   3   9
ENDBRANCH   2   7
ENDBRANCH   1   2
BRANCH   1  13
ATOM     13  O   UNL     1      43.716   4.486  10.081  0.00  0.00    +0.000 OA
BRANCH  13  14
ATOM     14  C   UNL     1      44.648   3.842   9.291  0.00  0.00    +0.000 A 
ATOM     15  C   UNL     1      44.758   2.466   9.409  0.00  0.00    +0.000 A 
ATOM     16  C   UNL     1      45.697   1.807   8.612  0.00  0.00    +0.000 A 
ATOM     17  C   UNL     1      46.494   2.542   7.727  0.00  0.00    +0.000 A 
ATOM     18  C   UNL     1      46.303   3.911   7.687  0.00  0.00    +0.000 A 
ATOM     19  N   UNL     1      45.400   4.573   8.444  0.00  0.00    +0.000 NA
BRANCH  17  20
ATOM     20  C   UNL     1      47.489   1.849   6.875  0.00  0.00    +0.000 C 
ATOM     21  N   UNL     1      48.565   2.550   6.403  0.00  0.00    +0.000 N 
ATOM     22  O   UNL     1      47.360   0.662   6.593  0.00  0.00    +0.000 OA
ATOM     23  H   UNL     1      48.767   3.524   6.570  0.00  0.00    +0.000 HD
ATOM     24  H   UNL     1      49.222   2.038   5.825  0.00  0.00    +0.000 HD
ENDBRANCH  17  20
ENDBRANCH  13  14
ENDBRANCH   1  13
TORSDOF 7
ENDMDL
MODEL 3
REMARK VINA RESULT:    -7.180      1.704      2.057
REMARK INTER + INTRA:         -10.560
REMARK INTER:                  -9.959
REMARK INTRA:                  -0.601
REMARK UNBOUND:                -0.652
REMARK  Name = 
REMARK  7 active torsions:
REMARK  status: ('A' for Active; 'I' for Inactive)
REMARK    1  A    between atoms: N_1  and  C_2
REMARK    2  A    between atoms: C_2  and  C_3
REMARK    3  A    between atoms: C_7  and  C_8
REMARK    4  A    between atoms: C_8  and  C_9
REMARK    5  A    between atoms: C_9  and  O_10
REMARK    6  A    between atoms: O_10  and  C_11
REMARK    7  A    between atoms: C_14  and  C_15
REMARK                            x       y       z     vdW  Elec       q    Type
REMARK                         _______ _______ _______ _____ _____    ______ ____
ROOT
ATOM      1  C   UNL     1      43.627   4.374  10.921  0.00  0.00    +0.000 C 
ENDROOT
BRANCH   1   2
ATOM      2  C   UNL     1      44.538   4.315  12.141  0.00  0.00    +0.000 C 
BRANCH   2   7
ATOM      3  C   UNL     1      47.159   6.850  13.308  0.00  0.00    +0.000 A 
ATOM      4  C   UNL     1      46.638   8.032  12.764  0.00  0.00    +0.000 A 
ATOM      5  C   UNL     1      45.431   8.020  12.064  0.00  0.00    +0.000 A 
ATOM      6  C   UNL     1      44.742   6.822  11.878  0.00  0.00    +0.000 A 
ATOM      7  C   UNL     1      45.257   5.621  12.383  0.00  0.00    +0.000 A 
ATOM      8  C   UNL     1      46.453   5.651  13.118  0.00  0.00    +0.000 A 
BRANCH   3   9
ATOM      9  C   UNL     1      48.486   6.858  14.025  0.00  0.00    +0.000 C 
BRANCH   9  10
ATOM     10  N   UNL     1      49.614   6.837  13.100  0.00  0.00    +0.000 NA
ATOM     11  H   UNL     1      49.803   7.788  12.788  0.00  0.00    +0.000 HD
ATOM     12  H   UNL     1      49.347   6.309  12.272  0.00  0.00    +0.000 HD
ENDBRANCH   9  10
ENDBRANCH   3   9
ENDBRANCH   2   7
ENDBRANCH   1   2
BRANCH   1  13
ATOM     13  O   UNL     1      43.549   3.073  10.312  0.00  0.00    +0.000 OA
BRANCH  13  14
ATOM     14  C   UNL     1      44.532   2.899   9.357  0.00  0.00    +0.000 A 
ATOM     15  C   UNL     1      44.924   4.005   8.620  0.00  0.00    +0.000 A 
ATOM     16  C   UNL     1      45.919   3.837   7.654  0.00  0.00    +0.000 A 
ATOM     17  C   UNL     1      46.487   2.574   7.455  0.00  0.00    +0.000 A 
ATOM     18  C   UNL     1      46.024   1.537   8.245  0.00  0.00    +0.000 A 
ATOM     19  N   UNL     1      45.065   1.673   9.188  0.00  0.00    +0.000 NA
BRANCH  17  20
ATOM     20  C   UNL     1      47.546   2.390   6.435  0.00  0.00    +0.000 C 
ATOM     21  N   UNL     1      47.475   3.099   5.266  0.00  0.00    +0.000 N 
ATOM     22  O   UNL     1      48.478   1.615   6.626  0.00  0.00    +0.000 OA
ATOM     23  H   UNL     1      46.756   3.756   5.006  0.00  0.00    +0.000 HD
ATOM     24  H   UNL     1      48.220   2.944   4.597  0.00  0.00    +0.000 HD
ENDBRANCH  17  20
ENDBRANCH  13  14
ENDBRANCH   1  13
TORSDOF 7
ENDMDL
MODEL 4
REMARK VINA RESULT:    -6.908      2.387      6.400
REMARK INTER + INTRA:         -10.185
REMARK INTER:                  -9.506
REMARK INTRA:                  -0.679
REMARK UNBOUND:                -0.652
REMARK  Name = 
REMARK  7 active torsions:
REMARK  status: ('A' for Active; 'I' for Inactive)
REMARK    1  A    between atoms: N_1  and  C_2
REMARK    2  A    between atoms: C_2  and  C_3
REMARK    3  A    between atoms: C_7  and  C_8
REMARK    4  A    between atoms: C_8  and  C_9
REMARK    5  A    between atoms: C_9  and  O_10
REMARK    6  A    between atoms: O_10  and  C_11
REMARK    7  A    between atoms: C_14  and  C_15
REMARK                            x       y       z     vdW  Elec       q    Type
REMARK                         _______ _______ _______ _____ _____    ______ ____
ROOT
ATOM      1  C   UNL     1      44.494   2.932  11.757  0.00  0.00    +0.000 C 
ENDROOT
BRANCH   1   2
ATOM      2  C   UNL     1      43.950   2.696  10.352  0.00  0.00    +0.000 C 
BRANCH   2   7
ATOM      3  C   UNL     1      46.608   2.245   7.634  0.00  0.00    +0.000 A 
ATOM      4  C   UNL     1      46.806   3.575   7.239  0.00  0.00    +0.000 A 
ATOM      5  C   UNL     1      46.120   4.613   7.873  0.00  0.00    +0.000 A 
ATOM      6  C   UNL     1      45.211   4.332   8.892  0.00  0.00    +0.000 A 
ATOM      7  C   UNL     1      44.971   3.008   9.282  0.00  0.00    +0.000 A 
ATOM      8  C   UNL     1      45.694   1.975   8.665  0.00  0.00    +0.000 A 
BRANCH   3   9
ATOM      9  C   UNL     1      47.316   1.122   6.917  0.00  0.00    +0.000 C 
BRANCH   9  10
ATOM     10  N   UNL     1      48.393   1.604   6.061  0.00  0.00    +0.000 NA
ATOM     11  H   UNL     1      49.283   1.469   6.540  0.00  0.00    +0.000 HD
ATOM     12  H   UNL     1      48.284   2.609   5.934  0.00  0.00    +0.000 HD
ENDBRANCH   9  10
ENDBRANCH   3   9
ENDBRANCH   2   7
ENDBRANCH   1   2
BRANCH   1  13
ATOM     13  O   UNL     1      44.172   4.267  12.183  0.00  0.00    +0.000 OA
BRANCH  13  14
ATOM     14  C   UNL     1      45.294   4.948  12.615  0.00  0.00    +0.000 A 
ATOM     15  C   UNL     1      45.578   6.169  12.026  0.00  0.00    +0.000 A 
ATOM     16  C   UNL     1      46.710   6.865  12.459  0.00  0.00    +0.000 A 
ATOM     17  C   UNL     1      47.518   6.319  13.462  0.00  0.00    +0.000 A 
ATOM     18  C   UNL     1      47.144   5.094  13.983  0.00  0.00    +0.000 A 
ATOM     19  N   UNL     1      46.054   4.402  13.585  0.00  0.00    +0.000 NA
BRANCH  17  20
ATOM     20  C   UNL     1      48.718   7.053  13.929  0.00  0.00    +0.000 C 
ATOM     21  N   UNL     1      49.818   7.116  13.117  0.00  0.00    +0.000 N 
ATOM     22  O   UNL     1      48.734   7.602  15.026  0.00  0.00    +0.000 OA
ATOM     23  H   UNL     1      49.914   6.701  12.202  0.00  0.00    +0.000 HD
ATOM     24  H   UNL     1      50.616   7.629  13.474  0.00  0.00    +0.000 HD
ENDBRANCH  17  20
ENDBRANCH  13  14
ENDBRANCH   1  13
TORSDOF 7
ENDMDL
MODEL 5
REMARK VINA RESULT:    -6.832      2.491      6.571
REMARK INTER + INTRA:         -10.080
REMARK INTER:                  -9.516
REMARK INTRA:                  -0.564
REMARK UNBOUND:                -0.652
REMARK  Name = 
REMARK  7 active torsions:
REMARK  status: ('A' for Active; 'I' for Inactive)
REMARK    1  A    between atoms: N_1  and  C_2
REMARK    2  A    between atoms: C_2  and  C_3
REMARK    3  A    between atoms: C_7  and  C_8
REMARK    4  A    between atoms: C_8  and  C_9
REMARK    5  A    between atoms: C_9  and  O_10
REMARK    6  A    between atoms: O_10  and  C_11
REMARK    7  A    between atoms: C_14  and  C_15
REMARK                            x       y       z     vdW  Elec       q    Type
REMARK                         _______ _______ _______ _____ _____    ______ ____
ROOT
ATOM      1  C   UNL     1      43.634   4.266  10.362  0.00  0.00    +0.000 C 
ENDROOT
BRANCH   1   2
ATOM      2  C   UNL     1      44.435   4.663   9.128  0.00  0.00    +0.000 C 
BRANCH   2   7
ATOM      3  C   UNL     1      46.721   2.603   6.850  0.00  0.00    +0.000 A 
ATOM      4  C   UNL     1      46.606   1.337   7.442  0.00  0.00    +0.000 A 
ATOM      5  C   UNL     1      45.765   1.140   8.539  0.00  0.00    +0.000 A 
ATOM      6  C   UNL     1      45.049   2.211   9.073  0.00  0.00    +0.000 A 
ATOM      7  C   UNL     1      45.172   3.492   8.521  0.00  0.00    +0.000 A 
ATOM      8  C   UNL     1      45.990   3.672   7.394  0.00  0.00    +0.000 A 
BRANCH   3   9
ATOM      9  C   UNL     1      47.664   2.823   5.693  0.00  0.00    +0.000 C 
BRANCH   9  10
ATOM     10  N   UNL     1      48.575   1.701   5.501  0.00  0.00    +0.000 NA
ATOM     11  H   UNL     1      48.839   1.653   4.518  0.00  0.00    +0.000 HD
ATOM     12  H   UNL     1      48.077   0.837   5.709  0.00  0.00    +0.000 HD
ENDBRANCH   9  10
ENDBRANCH   3   9
ENDBRANCH   2   7
ENDBRANCH   1   2
BRANCH   1  13
ATOM     13  O   UNL     1      43.403   5.424  11.182  0.00  0.00    +0.000 OA
BRANCH  13  14
ATOM     14  C   UNL     1      44.552   5.819  11.841  0.00  0.00    +0.000 A 
ATOM     15  C   UNL     1      45.269   4.852  12.527  0.00  0.00    +0.000 A 
ATOM     16  C   UNL     1      46.433   5.243  13.194  0.00  0.00    +0.000 A 
ATOM     17  C   UNL     1      46.839   6.581  13.155  0.00  0.00    +0.000 A 
ATOM     18  C   UNL     1      46.050   7.464  12.441  0.00  0.00    +0.000 A 
ATOM     19  N   UNL     1      44.923   7.113  11.785  0.00  0.00    +0.000 NA
BRANCH  17  20
ATOM     20  C   UNL     1      48.075   7.002  13.857  0.00  0.00    +0.000 C 
ATOM     21  N   UNL     1      47.989   7.931  14.858  0.00  0.00    +0.000 N 
ATOM     22  O   UNL     1      49.165   6.528  13.553  0.00  0.00    +0.000 OA
ATOM     23  H   UNL     1      47.150   8.385  15.185  0.00  0.00    +0.000 HD
ATOM     24  H   UNL     1      48.858   8.190  15.312  0.00  0.00    +0.000 HD
ENDBRANCH  17  20
ENDBRANCH  13  14
ENDBRANCH   1  13
TORSDOF 7
ENDMDL
MODEL 6
REMARK VINA RESULT:    -6.558      3.566      6.152
REMARK INTER + INTRA:          -9.702
REMARK INTER:                  -9.301
REMARK INTRA:                  -0.401
REMARK UNBOUND:                -0.652
REMARK  Name = 
REMARK  7 active torsions:
REMARK  status: ('A' for Active; 'I' for Inactive)
REMARK    1  A    between atoms: N_1  and  C_2
REMARK    2  A    between atoms: C_2  and  C_3
REMARK    3  A    between atoms: C_7  and  C_8
REMARK    4  A    between atoms: C_8  and  C_9
REMARK    5  A    between atoms: C_9  and  O_10
REMARK    6  A    between atoms: O_10  and  C_11
REMARK    7  A    between atoms: C_14  and  C_15
REMARK                            x       y       z     vdW  Elec       q    Type
REMARK                         _______ _______ _______ _____ _____    ______ ____
ROOT
ATOM      1  C   UNL     1      47.282   4.053  15.770  0.00  0.00    +0.000 C 
ENDROOT
BRANCH   1   2
ATOM      2  C   UNL     1      47.771   3.182  16.921  0.00  0.00    +0.000 C 
BRANCH   2   7
ATOM      3  C   UNL     1      51.474   2.525  17.636  0.00  0.00    +0.000 A 
ATOM      4  C   UNL     1      51.957   3.837  17.734  0.00  0.00    +0.000 A 
ATOM      5  C   UNL     1      51.089   4.924  17.615  0.00  0.00    +0.000 A 
ATOM      6  C   UNL     1      49.733   4.713  17.370  0.00  0.00    +0.000 A 
ATOM      7  C   UNL     1      49.231   3.412  17.234  0.00  0.00    +0.000 A 
ATOM      8  C   UNL     1      50.105   2.325  17.395  0.00  0.00    +0.000 A 
BRANCH   3   9
ATOM      9  C   UNL     1      52.421   1.354  17.721  0.00  0.00    +0.000 C 
BRANCH   9  10
ATOM     10  N   UNL     1      51.746   0.125  18.123  0.00  0.00    +0.000 NA
ATOM     11  H   UNL     1      51.405  -0.354  17.291  0.00  0.00    +0.000 HD
ATOM     12  H   UNL     1      50.923   0.370  18.672  0.00  0.00    +0.000 HD
ENDBRANCH   9  10
ENDBRANCH   3   9
ENDBRANCH   2   7
ENDBRANCH   1   2
BRANCH   1  13
ATOM     13  O   UNL     1      47.461   3.356  14.525  0.00  0.00    +0.000 OA
BRANCH  13  14
ATOM     14  C   UNL     1      46.553   3.776  13.571  0.00  0.00    +0.000 A 
ATOM     15  C   UNL     1      46.388   5.140  13.391  0.00  0.00    +0.000 A 
ATOM     16  C   UNL     1      45.473   5.573  12.428  0.00  0.00    +0.000 A 
ATOM     17  C   UNL     1      44.756   4.633  11.680  0.00  0.00    +0.000 A 
ATOM     18  C   UNL     1      44.998   3.297  11.939  0.00  0.00    +0.000 A 
ATOM     19  N   UNL     1      45.878   2.851  12.862  0.00  0.00    +0.000 NA
BRANCH  17  20
ATOM     20  C   UNL     1      43.788   5.086  10.653  0.00  0.00    +0.000 C 
ATOM     21  N   UNL     1      43.985   4.726   9.347  0.00  0.00    +0.000 N 
ATOM     22  O   UNL     1      42.819   5.773  10.959  0.00  0.00    +0.000 OA
ATOM     23  H   UNL     1      44.745   4.171   8.986  0.00  0.00    +0.000 HD
ATOM     24  H   UNL     1      43.299   5.057   8.678  0.00  0.00    +0.000 HD
ENDBRANCH  17  20
ENDBRANCH  13  14
ENDBRANCH   1  13
TORSDOF 7
ENDMDL
MODEL 7
REMARK VINA RESULT:    -6.160      3.074      7.371
REMARK INTER + INTRA:          -9.153
REMARK INTER:                  -8.646
REMARK INTRA:                  -0.507
REMARK UNBOUND:                -0.652
REMARK  Name = 
REMARK  7 active torsions:
REMARK  status: ('A' for Active; 'I' for Inactive)
REMARK    1  A    between atoms: N_1  and  C_2
REMARK    2  A    between atoms: C_2  and  C_3
REMARK    3  A    between atoms: C_7  and  C_8
REMARK    4  A    between atoms: C_8  and  C_9
REMARK    5  A    between atoms: C_9  and  O_10
REMARK    6  A    between atoms: O_10  and  C_11
REMARK    7  A    between atoms: C_14  and  C_15
REMARK                            x       y       z     vdW  Elec       q    Type
REMARK                         _______ _______ _______ _____ _____    ______ ____
ROOT
ATOM      1  C   UNL     1      45.583   6.059  12.504  0.00  0.00    +0.000 C 
ENDROOT
BRANCH   1   2
ATOM      2  C   UNL     1      45.166   6.232  11.048  0.00  0.00    +0.000 C 
BRANCH   2   7
ATOM      3  C   UNL     1      45.325   3.463   8.409  0.00  0.00    +0.000 A 
ATOM      4  C   UNL     1      44.660   2.427   9.079  0.00  0.00    +0.000 A 
ATOM      5  C   UNL     1      44.127   2.631  10.353  0.00  0.00    +0.000 A 
ATOM      6  C   UNL     1      44.274   3.867  10.983  0.00  0.00    +0.000 A 
ATOM      7  C   UNL     1      44.963   4.909  10.349  0.00  0.00    +0.000 A 
ATOM      8  C   UNL     1      45.461   4.704   9.052  0.00  0.00    +0.000 A 
BRANCH   3   9
ATOM      9  C   UNL     1      45.939   3.226   7.052  0.00  0.00    +0.000 C 
BRANCH   9  10
ATOM     10  N   UNL     1      46.985   4.194   6.742  0.00  0.00    +0.000 NA
ATOM     11  H   UNL     1      47.866   3.700   6.614  0.00  0.00    +0.000 HD
ATOM     12  H   UNL     1      47.111   4.807   7.545  0.00  0.00    +0.000 HD
ENDBRANCH   9  10
ENDBRANCH   3   9
ENDBRANCH   2   7
ENDBRANCH   1   2
BRANCH   1  13
ATOM     13  O   UNL     1      46.950   5.617  12.567  0.00  0.00    +0.000 OA
BRANCH  13  14
ATOM     14  C   UNL     1      47.351   5.388  13.870  0.00  0.00    +0.000 A 
ATOM     15  C   UNL     1      46.883   4.247  14.501  0.00  0.00    +0.000 A 
ATOM     16  C   UNL     1      47.285   4.007  15.817  0.00  0.00    +0.000 A 
ATOM     17  C   UNL     1      48.138   4.913  16.457  0.00  0.00    +0.000 A 
ATOM     18  C   UNL     1      48.547   6.019  15.736  0.00  0.00    +0.000 A 
ATOM     19  N   UNL     1      48.176   6.274  14.462  0.00  0.00    +0.000 NA
BRANCH  17  20
ATOM     20  C   UNL     1      48.573   4.662  17.852  0.00  0.00    +0.000 C 
ATOM     21  N   UNL     1      47.688   4.106  18.735  0.00  0.00    +0.000 N 
ATOM     22  O   UNL     1      49.708   4.946  18.219  0.00  0.00    +0.000 OA
ATOM     23  H   UNL     1      46.735   3.838  18.542  0.00  0.00    +0.000 HD
ATOM     24  H   UNL     1      48.026   3.951  19.678  0.00  0.00    +0.000 HD
ENDBRANCH  17  20
ENDBRANCH  13  14
ENDBRANCH   1  13
TORSDOF 7
ENDMDL
MODEL 8
REMARK VINA RESULT:    -6.074      2.455      6.761
REMARK INTER + INTRA:          -9.035
REMARK INTER:                  -8.404
REMARK INTRA:                  -0.631
REMARK UNBOUND:                -0.652
REMARK  Name = 
REMARK  7 active torsions:
REMARK  status: ('A' for Active; 'I' for Inactive)
REMARK    1  A    between atoms: N_1  and  C_2
REMARK    2  A    between atoms: C_2  and  C_3
REMARK    3  A    between atoms: C_7  and  C_8
REMARK    4  A    between atoms: C_8  and  C_9
REMARK    5  A    between atoms: C_9  and  O_10
REMARK    6  A    between atoms: O_10  and  C_11
REMARK    7  A    between atoms: C_14  and  C_15
REMARK                            x       y       z     vdW  Elec       q    Type
REMARK                         _______ _______ _______ _____ _____    ______ ____
ROOT
ATOM      1  C   UNL     1      45.889   5.721  10.405  0.00  0.00    +0.000 C 
ENDROOT
BRANCH   1   2
ATOM      2  C   UNL     1      45.065   5.341   9.180  0.00  0.00    +0.000 C 
BRANCH   2   7
ATOM      3  C   UNL     1      46.651   2.768   6.831  0.00  0.00    +0.000 A 
ATOM      4  C   UNL     1      46.370   1.580   7.519  0.00  0.00    +0.000 A 
ATOM      5  C   UNL     1      45.638   1.603   8.707  0.00  0.00    +0.000 A 
ATOM      6  C   UNL     1      45.200   2.817   9.235  0.00  0.00    +0.000 A 
ATOM      7  C   UNL     1      45.496   4.022   8.585  0.00  0.00    +0.000 A 
ATOM      8  C   UNL     1      46.200   3.984   7.370  0.00  0.00    +0.000 A 
BRANCH   3   9
ATOM      9  C   UNL     1      47.480   2.745   5.570  0.00  0.00    +0.000 C 
BRANCH   9  10
ATOM     10  N   UNL     1      48.592   1.805   5.658  0.00  0.00    +0.000 NA
ATOM     11  H   UNL     1      48.674   1.477   6.619  0.00  0.00    +0.000 HD
ATOM     12  H   UNL     1      49.456   2.301   5.448  0.00  0.00    +0.000 HD
ENDBRANCH   9  10
ENDBRANCH   3   9
ENDBRANCH   2   7
ENDBRANCH   1   2
BRANCH   1  13
ATOM     13  O   UNL     1      45.086   5.585  11.590  0.00  0.00    +0.000 OA
BRANCH  13  14
ATOM     14  C   UNL     1      45.817   5.070  12.644  0.00  0.00    +0.000 A 
ATOM     15  C   UNL     1      45.850   3.694  12.798  0.00  0.00    +0.000 A 
ATOM     16  C   UNL     1      46.588   3.165  13.860  0.00  0.00    +0.000 A 
ATOM     17  C   UNL     1      47.266   4.026  14.730  0.00  0.00    +0.000 A 
ATOM     18  C   UNL     1      47.168   5.383  14.485  0.00  0.00    +0.000 A 
ATOM     19  N   UNL     1      46.464   5.920  13.465  0.00  0.00    +0.000 NA
BRANCH  17  20
ATOM     20  C   UNL     1      48.055   3.472  15.856  0.00  0.00    +0.000 C 
ATOM     21  N   UNL     1      48.138   4.182  17.023  0.00  0.00    +0.000 N 
ATOM     22  O   UNL     1      48.627   2.392  15.754  0.00  0.00    +0.000 OA
ATOM     23  H   UNL     1      47.712   5.077  17.214  0.00  0.00    +0.000 HD
ATOM     24  H   UNL     1      48.687   3.767  17.768  0.00  0.00    +0.000 HD
ENDBRANCH  17  20
ENDBRANCH  13  14
ENDBRANCH   1  13
TORSDOF 7
ENDMDL
MODEL 9
REMARK VINA RESULT:    -5.879      3.141      7.133
REMARK INTER + INTRA:          -8.765
REMARK INTER:                  -8.028
REMARK INTRA:                  -0.737
REMARK UNBOUND:                -0.652
REMARK  Name = 
REMARK  7 active torsions:
REMARK  status: ('A' for Active; 'I' for Inactive)
REMARK    1  A    between atoms: N_1  and  C_2
REMARK    2  A    between atoms: C_2  and  C_3
REMARK    3  A    between atoms: C_7  and  C_8
REMARK    4  A    between atoms: C_8  and  C_9
REMARK    5  A    between atoms: C_9  and  O_10
REMARK    6  A    between atoms: O_10  and  C_11
REMARK    7  A    between atoms: C_14  and  C_15
REMARK                            x       y       z     vdW  Elec       q    Type
REMARK                         _______ _______ _______ _____ _____    ______ ____
ROOT
ATOM      1  C   UNL     1      46.717   7.355  13.018  0.00  0.00    +0.000 C 
ENDROOT
BRANCH   1   2
ATOM      2  C   UNL     1      46.359   7.018  11.575  0.00  0.00    +0.000 C 
BRANCH   2   7
ATOM      3  C   UNL     1      44.268   4.023  10.430  0.00  0.00    +0.000 A 
ATOM      4  C   UNL     1      43.221   4.065  11.361  0.00  0.00    +0.000 A 
ATOM      5  C   UNL     1      43.166   5.075  12.322  0.00  0.00    +0.000 A 
ATOM      6  C   UNL     1      44.171   6.041  12.381  0.00  0.00    +0.000 A 
ATOM      7  C   UNL     1      45.245   6.002  11.483  0.00  0.00    +0.000 A 
ATOM      8  C   UNL     1      45.270   5.004  10.495  0.00  0.00    +0.000 A 
BRANCH   3   9
ATOM      9  C   UNL     1      44.349   2.904   9.420  0.00  0.00    +0.000 C 
BRANCH   9  10
ATOM     10  N   UNL     1      44.436   3.400   8.052  0.00  0.00    +0.000 NA
ATOM     11  H   UNL     1      44.704   2.633   7.437  0.00  0.00    +0.000 HD
ATOM     12  H   UNL     1      45.186   4.087   8.000  0.00  0.00    +0.000 HD
ENDBRANCH   9  10
ENDBRANCH   3   9
ENDBRANCH   2   7
ENDBRANCH   1   2
BRANCH   1  13
ATOM     13  O   UNL     1      47.989   6.773  13.350  0.00  0.00    +0.000 OA
BRANCH  13  14
ATOM     14  C   UNL     1      47.890   5.917  14.430  0.00  0.00    +0.000 A 
ATOM     15  C   UNL     1      47.050   4.821  14.314  0.00  0.00    +0.000 A 
ATOM     16  C   UNL     1      46.946   3.950  15.401  0.00  0.00    +0.000 A 
ATOM     17  C   UNL     1      47.681   4.202  16.564  0.00  0.00    +0.000 A 
ATOM     18  C   UNL     1      48.490   5.323  16.575  0.00  0.00    +0.000 A 
ATOM     19  N   UNL     1      48.611   6.180  15.538  0.00  0.00    +0.000 NA
BRANCH  17  20
ATOM     20  C   UNL     1      47.579   3.279  17.720  0.00  0.00    +0.000 C 
ATOM     21  N   UNL     1      48.489   3.381  18.736  0.00  0.00    +0.000 N 
ATOM     22  O   UNL     1      46.692   2.432  17.774  0.00  0.00    +0.000 OA
ATOM     23  H   UNL     1      49.256   4.034  18.792  0.00  0.00    +0.000 HD
ATOM     24  H   UNL     1      48.383   2.731  19.507  0.00  0.00    +0.000 HD
ENDBRANCH  17  20
ENDBRANCH  13  14
ENDBRANCH   1  13
TORSDOF 7
ENDMDL
