MODEL 1
REMARK VINA RESULT:    -8.176      0.000      0.000
REMARK INTER + INTRA:         -12.321
REMARK INTER:                 -11.522
REMARK INTRA:                  -0.799
REMARK UNBOUND:                -0.799
REMARK  Name = 
REMARK  7 active torsions:
REMARK  status: ('A' for Active; 'I' for Inactive)
REMARK    1  A    between atoms: C_2  and  C_4
REMARK    2  A    between atoms: C_7  and  N_8
REMARK    3  A    between atoms: N_8  and  C_9
REMARK    4  A    between atoms: C_9  and  C_10
REMARK    5  A    between atoms: C_10  and  C_11
REMARK    6  A    between atoms: C_15  and  O_16
REMARK    7  A    between atoms: O_16  and  C_17
REMARK                            x       y       z     vdW  Elec       q    Type
REMARK                         _______ _______ _______ _____ _____    ______ ____
ROOT
ATOM      1  C   UNL     1      43.190   4.181  11.396  0.00  0.00    +0.000 C 
ENDROOT
BRANCH   1   2
ATOM      2  N   UNL     1      43.617   4.660  10.075  0.00  0.00    +0.000 N 
ATOM      3  H   UNL     1      43.815   5.658  10.064  0.00  0.00    +0.000 HD
BRANCH   2   7
ATOM      4  C   UNL     1      46.420   2.563   7.805  0.00  0.00    +0.000 A 
ATOM      5  C   UNL     1      45.617   1.838   8.672  0.00  0.00    +0.000 A 
ATOM      6  C   UNL     1      44.698   2.529   9.461  0.00  0.00    +0.000 A 
ATOM      7  C   UNL     1      44.601   3.922   9.395  0.00  0.00    +0.000 A 
ATOM      8  C   UNL     1      45.451   4.544   8.469  0.00  0.00    +0.000 A 
ATOM      9  N   UNL     1      46.371   3.917   7.688  0.00  0.00    +0.000 NA
BRANCH   4  11
ATOM     10  N   UNL     1      48.424   2.570   6.434  0.00  0.00    +0.000 N 
ATOM     11  C   UNL     1      47.375   1.833   6.911  0.00  0.00    +0.000 C 
ATOM     12  O   UNL     1      47.236   0.651   6.620  0.00  0.00    +0.000 OA
ATOM     13  H   UNL     1      49.100   2.133   5.825  0.00  0.00    +0.000 HD
ATOM     14  H   UNL     1      48.522   3.540   6.709  0.00  0.00    +0.000 HD
ENDBRANCH   4  11
ENDBRANCH   2   7
ENDBRANCH   1   2
BRANCH   1  15
ATOM     15  C   UNL     1      43.372   5.264  12.466  0.00  0.00    +0.000 C 
BRANCH  15  16
ATOM     16  C   UNL     1      44.829   5.407  12.842  0.00  0.00    +0.000 A 
ATOM     17  C   UNL     1      45.534   6.580  12.547  0.00  0.00    +0.000 A 
ATOM     18  C   UNL     1      46.860   6.730  12.964  0.00  0.00    +0.000 A 
ATOM     19  C   UNL     1      47.498   5.711  13.678  0.00  0.00    +0.000 A 
ATOM     20  C   UNL     1      46.807   4.535  13.966  0.00  0.00    +0.000 A 
ATOM     21  C   UNL     1      45.479   4.390  13.556  0.00  0.00    +0.000 A 
BRANCH  20  22
ATOM     22  O   UNL     1      47.315   3.482  14.683  0.00  0.00    +0.000 OA
BRANCH  22  23
ATOM     23  C   UNL     1      47.948   3.739  15.956  0.00  0.00    +0.000 C 
ATOM     24  C   UNL     1      48.440   2.528  16.776  0.00  0.00    +0.000 C 
ATOM     25  N   UNL     1      47.678   2.987  17.946  0.00  0.00    +0.000 NA
ATOM     26  C   UNL     1      46.973   3.981  17.127  0.00  0.00    +0.000 C 
ATOM     27  H   UNL     1      48.248   3.388  18.689  0.00  0.00    +0.000 HD
ENDBRANCH  22  23
ENDBRANCH  20  22
ENDBRANCH  15  16
ENDBRANCH   1  15
TORSDOF 7
ENDMDL
MODEL 2
REMARK VINA RESULT:    -7.365      1.888      7.795
REMARK INTER + INTRA:         -11.177
REMARK INTER:                 -10.569
REMARK INTRA:                  -0.608
REMARK UNBOUND:                -0.799
REMARK  Name = 
REMARK  7 active torsions:
REMARK  status: ('A' for Active; 'I' for Inactive)
REMARK    1  A    between atoms: C_2  and  C_4
REMARK    2  A    between atoms: C_7  and  N_8
REMARK    3  A    between atoms: N_8  and  C_9
REMARK    4  A    between atoms: C_9  and  C_10
REMARK    5  A    between atoms: C_10  and  C_11
REMARK    6  A    between atoms: C_15  and  O_16
REMARK    7  A    between atoms: O_16  and  C_17
REMARK                            x       y       z     vdW  Elec       q    Type
REMARK                         _______ _______ _______ _____ _____    ______ ____
ROOT
ATOM      1  C   UNL     1      46.874   6.417  11.384  0.00  0.00    +0.000 C 
ENDROOT
BRANCH   1   2
ATOM      2  N   UNL     1      46.894   6.952  12.751  0.00  0.00    +0.000 N 
ATOM      3  H   UNL     1      46.084   7.533  12.959  0.00  0.00    +0.000 HD
BRANCH   2   7
ATOM      4  C   UNL     1      47.482   4.345  15.955  0.00  0.00    +0.000 A 
ATOM      5  C   UNL     1      48.274   5.481  15.892  0.00  0.00    +0.000 A 
ATOM      6  C   UNL     1      48.111   6.345  14.809  0.00  0.00    +0.000 A 
ATOM      7  C   UNL     1      47.185   6.064  13.800  0.00  0.00    +0.000 A 
ATOM      8  C   UNL     1      46.429   4.897  13.982  0.00  0.00    +0.000 A 
ATOM      9  N   UNL     1      46.559   4.017  15.012  0.00  0.00    +0.000 NA
BRANCH   4  11
ATOM     10  N   UNL     1      48.824   3.427  17.757  0.00  0.00    +0.000 N 
ATOM     11  C   UNL     1      47.605   3.434  17.138  0.00  0.00    +0.000 C 
ATOM     12  O   UNL     1      46.680   2.735  17.533  0.00  0.00    +0.000 OA
ATOM     13  H   UNL     1      48.968   2.831  18.559  0.00  0.00    +0.000 HD
ATOM     14  H   UNL     1      49.564   4.031  17.419  0.00  0.00    +0.000 HD
ENDBRANCH   4  11
ENDBRANCH   2   7
ENDBRANCH   1   2
BRANCH   1  15
ATOM     15  C   UNL     1      45.441   6.328  10.843  0.00  0.00    +0.000 C 
BRANCH  15  16
ATOM     16  C   UNL     1      45.166   4.954  10.277  0.00  0.00    +0.000 A 
ATOM     17  C   UNL     1      44.465   3.998  11.022  0.00  0.00    +0.000 A 
ATOM     18  C   UNL     1      44.153   2.756  10.462  0.00  0.00    +0.000 A 
ATOM     19  C   UNL     1      44.537   2.453   9.153  0.00  0.00    +0.000 A 
ATOM     20  C   UNL     1      45.245   3.394   8.407  0.00  0.00    +0.000 A 
ATOM     21  C   UNL     1      45.549   4.638   8.965  0.00  0.00    +0.000 A 
BRANCH  20  22
ATOM     22  O   UNL     1      45.648   3.224   7.107  0.00  0.00    +0.000 OA
BRANCH  22  23
ATOM     23  C   UNL     1      47.060   3.127   6.815  0.00  0.00    +0.000 C 
ATOM     24  C   UNL     1      47.479   2.852   5.356  0.00  0.00    +0.000 C 
ATOM     25  N   UNL     1      48.285   1.701   5.786  0.00  0.00    +0.000 NA
ATOM     26  C   UNL     1      47.693   1.755   7.128  0.00  0.00    +0.000 C 
ATOM     27  H   UNL     1      49.292   1.861   5.768  0.00  0.00    +0.000 HD
ENDBRANCH  22  23
ENDBRANCH  20  22
ENDBRANCH  15  16
ENDBRANCH   1  15
TORSDOF 7
ENDMDL
MODEL 3
REMARK VINA RESULT:    -7.279      2.778      4.360
REMARK INTER + INTRA:         -11.057
REMARK INTER:                 -10.311
REMARK INTRA:                  -0.746
REMARK UNBOUND:                -0.799
REMARK  Name = 
REMARK  7 active torsions:
REMARK  status: ('A' for Active; 'I' for Inactive)
REMARK    1  A    between atoms: C_2  and  C_4
REMARK    2  A    between atoms: C_7  and  N_8
REMARK    3  A    between atoms: N_8  and  C_9
REMARK    4  A    between atoms: C_9  and  C_10
REMARK    5  A    between atoms: C_10  and  C_11
REMARK    6  A    between atoms: C_15  and  O_16
REMARK    7  A    between atoms: O_16  and  C_17
REMARK                            x       y       z     vdW  Elec       q    Type
REMARK                         _______ _______ _______ _____ _____    ______ ____
ROOT
ATOM      1  C   UNL     1      43.441   3.307  11.684  0.00  0.00    +0.000 C 
ENDROOT
BRANCH   1   2
ATOM      2  N   UNL     1      43.633   4.040  10.426  0.00  0.00    +0.000 N 
ATOM      3  H   UNL     1      43.677   5.048  10.562  0.00  0.00    +0.000 HD
BRANCH   2   7
ATOM      4  C   UNL     1      46.425   2.791   7.589  0.00  0.00    +0.000 A 
ATOM      5  C   UNL     1      45.864   1.827   8.412  0.00  0.00    +0.000 A 
ATOM      6  C   UNL     1      44.953   2.234   9.386  0.00  0.00    +0.000 A 
ATOM      7  C   UNL     1      44.627   3.584   9.545  0.00  0.00    +0.000 A 
ATOM      8  C   UNL     1      45.245   4.464   8.644  0.00  0.00    +0.000 A 
ATOM      9  N   UNL     1      46.147   4.118   7.686  0.00  0.00    +0.000 NA
BRANCH   4  11
ATOM     10  N   UNL     1      47.329   3.119   5.360  0.00  0.00    +0.000 N 
ATOM     11  C   UNL     1      47.363   2.366   6.502  0.00  0.00    +0.000 C 
ATOM     12  O   UNL     1      48.118   1.408   6.617  0.00  0.00    +0.000 OA
ATOM     13  H   UNL     1      47.938   2.880   4.592  0.00  0.00    +0.000 HD
ATOM     14  H   UNL     1      46.709   3.918   5.303  0.00  0.00    +0.000 HD
ENDBRANCH   4  11
ENDBRANCH   2   7
ENDBRANCH   1   2
BRANCH   1  15
ATOM     15  C   UNL     1      43.356   4.265  12.879  0.00  0.00    +0.000 C 
BRANCH  15  16
ATOM     16  C   UNL     1      44.580   5.148  12.946  0.00  0.00    +0.000 A 
ATOM     17  C   UNL     1      45.866   4.594  12.959  0.00  0.00    +0.000 A 
ATOM     18  C   UNL     1      46.992   5.422  12.948  0.00  0.00    +0.000 A 
ATOM     19  C   UNL     1      46.849   6.812  12.925  0.00  0.00    +0.000 A 
ATOM     20  C   UNL     1      45.573   7.373  12.924  0.00  0.00    +0.000 A 
ATOM     21  C   UNL     1      44.448   6.544  12.927  0.00  0.00    +0.000 A 
BRANCH  20  22
ATOM     22  O   UNL     1      45.307   8.718  12.872  0.00  0.00    +0.000 OA
BRANCH  22  23
ATOM     23  C   UNL     1      45.462   9.418  11.617  0.00  0.00    +0.000 C 
ATOM     24  C   UNL     1      45.795  10.924  11.666  0.00  0.00    +0.000 C 
ATOM     25  N   UNL     1      44.649  11.223  10.796  0.00  0.00    +0.000 NA
ATOM     26  C   UNL     1      44.140   9.856  10.953  0.00  0.00    +0.000 C 
ATOM     27  H   UNL     1      44.899  11.467   9.839  0.00  0.00    +0.000 HD
ENDBRANCH  22  23
ENDBRANCH  20  22
ENDBRANCH  15  16
ENDBRANCH   1  15
TORSDOF 7
ENDMDL
MODEL 4
REMARK VINA RESULT:    -7.183      2.087      2.363
REMARK INTER + INTRA:         -10.921
REMARK INTER:                 -10.064
REMARK INTRA:                  -0.857
REMARK UNBOUND:                -0.799
REMARK  Name = 
REMARK  7 active torsions:
REMARK  status: ('A' for Active; 'I' for Inactive)
REMARK    1  A    between atoms: C_2  and  C_4
REMARK    2  A    between atoms: C_7  and  N_8
REMARK    3  A    between atoms: N_8  and  C_9
REMARK    4  A    between atoms: C_9  and  C_10
REMARK    5  A    between atoms: C_10  and  C_11
REMARK    6  A    between atoms: C_15  and  O_16
REMARK    7  A    between atoms: O_16  and  C_17
REMARK                            x       y       z     vdW  Elec       q    Type
REMARK                         _______ _______ _______ _____ _____    ______ ____
ROOT
ATOM      1  C   UNL     1      43.583   4.808  11.242  0.00  0.00    +0.000 C 
ENDROOT
BRANCH   1   2
ATOM      2  N   UNL     1      43.623   3.454  10.674  0.00  0.00    +0.000 N 
ATOM      3  H   UNL     1      42.695   3.068  10.513  0.00  0.00    +0.000 HD
BRANCH   2   7
ATOM      4  C   UNL     1      46.374   2.652   7.642  0.00  0.00    +0.000 A 
ATOM      5  C   UNL     1      45.971   3.967   7.819  0.00  0.00    +0.000 A 
ATOM      6  C   UNL     1      45.028   4.245   8.807  0.00  0.00    +0.000 A 
ATOM      7  C   UNL     1      44.484   3.222   9.589  0.00  0.00    +0.000 A 
ATOM      8  C   UNL     1      44.982   1.936   9.331  0.00  0.00    +0.000 A 
ATOM      9  N   UNL     1      45.891   1.612   8.372  0.00  0.00    +0.000 NA
BRANCH   4  11
ATOM     10  N   UNL     1      47.456   3.165   5.530  0.00  0.00    +0.000 N 
ATOM     11  C   UNL     1      47.426   2.342   6.622  0.00  0.00    +0.000 C 
ATOM     12  O   UNL     1      48.214   1.412   6.747  0.00  0.00    +0.000 OA
ATOM     13  H   UNL     1      48.142   3.004   4.808  0.00  0.00    +0.000 HD
ATOM     14  H   UNL     1      46.804   3.937   5.466  0.00  0.00    +0.000 HD
ENDBRANCH   4  11
ENDBRANCH   2   7
ENDBRANCH   1   2
BRANCH   1  15
ATOM     15  C   UNL     1      44.206   4.842  12.643  0.00  0.00    +0.000 C 
BRANCH  15  16
ATOM     16  C   UNL     1      45.572   5.487  12.607  0.00  0.00    +0.000 A 
ATOM     17  C   UNL     1      45.959   6.289  11.527  0.00  0.00    +0.000 A 
ATOM     18  C   UNL     1      47.197   6.938  11.538  0.00  0.00    +0.000 A 
ATOM     19  C   UNL     1      48.063   6.795  12.626  0.00  0.00    +0.000 A 
ATOM     20  C   UNL     1      47.690   5.989  13.701  0.00  0.00    +0.000 A 
ATOM     21  C   UNL     1      46.450   5.347  13.692  0.00  0.00    +0.000 A 
BRANCH  20  22
ATOM     22  O   UNL     1      48.440   5.796  14.833  0.00  0.00    +0.000 OA
BRANCH  22  23
ATOM     23  C   UNL     1      49.320   6.851  15.283  0.00  0.00    +0.000 C 
ATOM     24  C   UNL     1      50.128   6.616  16.576  0.00  0.00    +0.000 C 
ATOM     25  N   UNL     1      49.613   7.869  17.146  0.00  0.00    +0.000 NA
ATOM     26  C   UNL     1      48.625   7.984  16.067  0.00  0.00    +0.000 C 
ATOM     27  H   UNL     1      50.291   8.629  17.173  0.00  0.00    +0.000 HD
ENDBRANCH  22  23
ENDBRANCH  20  22
ENDBRANCH  15  16
ENDBRANCH   1  15
TORSDOF 7
ENDMDL
MODEL 5
REMARK VINA RESULT:    -6.817      2.529      3.577
REMARK INTER + INTRA:         -10.405
REMARK INTER:                  -9.819
REMARK INTRA:                  -0.587
REMARK UNBOUND:                -0.799
REMARK  Name = 
REMARK  7 active torsions:
REMARK  status: ('A' for Active; 'I' for Inactive)
REMARK    1  A    between atoms: C_2  and  C_4
REMARK    2  A    between atoms: C_7  and  N_8
REMARK    3  A    between atoms: N_8  and  C_9
REMARK    4  A    between atoms: C_9  and  C_10
REMARK    5  A    between atoms: C_10  and  C_11
REMARK    6  A    between atoms: C_15  and  O_16
REMARK    7  A    between atoms: O_16  and  C_17
REMARK                            x       y       z     vdW  Elec       q    Type
REMARK                         _______ _______ _______ _____ _____    ______ ____
ROOT
ATOM      1  C   UNL     1      43.889   5.199  11.390  0.00  0.00    +0.000 C 
ENDROOT
BRANCH   1   2
ATOM      2  N   UNL     1      43.591   4.972   9.970  0.00  0.00    +0.000 N 
ATOM      3  H   UNL     1      43.479   5.838   9.448  0.00  0.00    +0.000 HD
BRANCH   2   7
ATOM      4  C   UNL     1      46.041   2.120   8.163  0.00  0.00    +0.000 A 
ATOM      5  C   UNL     1      46.188   3.441   7.769  0.00  0.00    +0.000 A 
ATOM      6  C   UNL     1      45.354   4.401   8.341  0.00  0.00    +0.000 A 
ATOM      7  C   UNL     1      44.378   4.038   9.275  0.00  0.00    +0.000 A 
ATOM      8  C   UNL     1      44.336   2.676   9.607  0.00  0.00    +0.000 A 
ATOM      9  N   UNL     1      45.118   1.702   9.069  0.00  0.00    +0.000 NA
BRANCH   4  11
ATOM     10  N   UNL     1      48.041   1.562   6.904  0.00  0.00    +0.000 N 
ATOM     11  C   UNL     1      46.964   1.084   7.599  0.00  0.00    +0.000 C 
ATOM     12  O   UNL     1      46.776  -0.119   7.743  0.00  0.00    +0.000 OA
ATOM     13  H   UNL     1      48.698   0.911   6.500  0.00  0.00    +0.000 HD
ATOM     14  H   UNL     1      48.180   2.562   6.820  0.00  0.00    +0.000 HD
ENDBRANCH   4  11
ENDBRANCH   2   7
ENDBRANCH   1   2
BRANCH   1  15
ATOM     15  C   UNL     1      44.748   6.454  11.584  0.00  0.00    +0.000 C 
BRANCH  15  16
ATOM     16  C   UNL     1      45.804   6.223  12.640  0.00  0.00    +0.000 A 
ATOM     17  C   UNL     1      45.924   4.982  13.276  0.00  0.00    +0.000 A 
ATOM     18  C   UNL     1      46.950   4.757  14.198  0.00  0.00    +0.000 A 
ATOM     19  C   UNL     1      47.868   5.768  14.497  0.00  0.00    +0.000 A 
ATOM     20  C   UNL     1      47.750   7.011  13.877  0.00  0.00    +0.000 A 
ATOM     21  C   UNL     1      46.728   7.232  12.950  0.00  0.00    +0.000 A 
BRANCH  20  22
ATOM     22  O   UNL     1      48.604   8.067  14.067  0.00  0.00    +0.000 OA
BRANCH  22  23
ATOM     23  C   UNL     1      49.409   8.529  12.959  0.00  0.00    +0.000 C 
ATOM     24  C   UNL     1      49.959   7.475  11.976  0.00  0.00    +0.000 C 
ATOM     25  N   UNL     1      51.324   7.985  12.165  0.00  0.00    +0.000 NA
ATOM     26  C   UNL     1      50.888   8.803  13.302  0.00  0.00    +0.000 C 
ATOM     27  H   UNL     1      51.685   8.523  11.378  0.00  0.00    +0.000 HD
ENDBRANCH  22  23
ENDBRANCH  20  22
ENDBRANCH  15  16
ENDBRANCH   1  15
TORSDOF 7
ENDMDL
MODEL 6
REMARK VINA RESULT:    -6.496      3.046      3.848
REMARK INTER + INTRA:          -9.953
REMARK INTER:                  -9.310
REMARK INTRA:                  -0.643
REMARK UNBOUND:                -0.799
REMARK  Name = 
REMARK  7 active torsions:
REMARK  status: ('A' for Active; 'I' for Inactive)
REMARK    1  A    between atoms: C_2  and  C_4
REMARK    2  A    between atoms: C_7  and  N_8
REMARK    3  A    between atoms: N_8  and  C_9
REMARK    4  A    between atoms: C_9  and  C_10
REMARK    5  A    between atoms: C_10  and  C_11
REMARK    6  A    between atoms: C_15  and  O_16
REMARK    7  A    between atoms: O_16  and  C_17
REMARK                            x       y       z     vdW  Elec       q    Type
REMARK                         _______ _______ _______ _____ _____    ______ ____
ROOT
ATOM      1  C   UNL     1      43.793   4.705  11.193  0.00  0.00    +0.000 C 
ENDROOT
BRANCH   1   2
ATOM      2  N   UNL     1      43.776   3.433  10.459  0.00  0.00    +0.000 N 
ATOM      3  H   UNL     1      42.845   3.180  10.133  0.00  0.00    +0.000 HD
BRANCH   2   7
ATOM      4  C   UNL     1      46.478   2.927   7.322  0.00  0.00    +0.000 A 
ATOM      5  C   UNL     1      46.169   1.818   8.094  0.00  0.00    +0.000 A 
ATOM      6  C   UNL     1      45.292   1.979   9.166  0.00  0.00    +0.000 A 
ATOM      7  C   UNL     1      44.752   3.233   9.469  0.00  0.00    +0.000 A 
ATOM      8  C   UNL     1      45.124   4.275   8.607  0.00  0.00    +0.000 A 
ATOM      9  N   UNL     1      45.984   4.171   7.558  0.00  0.00    +0.000 NA
BRANCH   4  11
ATOM     10  N   UNL     1      48.662   2.384   6.409  0.00  0.00    +0.000 N 
ATOM     11  C   UNL     1      47.376   2.762   6.134  0.00  0.00    +0.000 C 
ATOM     12  O   UNL     1      46.994   2.951   4.985  0.00  0.00    +0.000 OA
ATOM     13  H   UNL     1      49.314   2.259   5.649  0.00  0.00    +0.000 HD
ATOM     14  H   UNL     1      48.942   2.216   7.368  0.00  0.00    +0.000 HD
ENDBRANCH   4  11
ENDBRANCH   2   7
ENDBRANCH   1   2
BRANCH   1  15
ATOM     15  C   UNL     1      44.957   4.757  12.190  0.00  0.00    +0.000 C 
BRANCH  15  16
ATOM     16  C   UNL     1      45.611   6.119  12.180  0.00  0.00    +0.000 A 
ATOM     17  C   UNL     1      44.841   7.286  12.259  0.00  0.00    +0.000 A 
ATOM     18  C   UNL     1      45.461   8.537  12.322  0.00  0.00    +0.000 A 
ATOM     19  C   UNL     1      46.855   8.640  12.306  0.00  0.00    +0.000 A 
ATOM     20  C   UNL     1      47.629   7.484  12.217  0.00  0.00    +0.000 A 
ATOM     21  C   UNL     1      47.009   6.233  12.162  0.00  0.00    +0.000 A 
BRANCH  20  22
ATOM     22  O   UNL     1      49.000   7.456  12.224  0.00  0.00    +0.000 OA
BRANCH  22  23
ATOM     23  C   UNL     1      49.727   8.662  12.550  0.00  0.00    +0.000 C 
ATOM     24  C   UNL     1      50.544   9.339  11.430  0.00  0.00    +0.000 C 
ATOM     25  N   UNL     1      51.749   9.317  12.272  0.00  0.00    +0.000 NA
ATOM     26  C   UNL     1      51.089   8.431  13.238  0.00  0.00    +0.000 C 
ATOM     27  H   UNL     1      52.013  10.225  12.652  0.00  0.00    +0.000 HD
ENDBRANCH  22  23
ENDBRANCH  20  22
ENDBRANCH  15  16
ENDBRANCH   1  15
TORSDOF 7
ENDMDL
MODEL 7
REMARK VINA RESULT:    -6.266      2.937      4.365
REMARK INTER + INTRA:          -9.629
REMARK INTER:                  -8.768
REMARK INTRA:                  -0.861
REMARK UNBOUND:                -0.799
REMARK  Name = 
REMARK  7 active torsions:
REMARK  status: ('A' for Active; 'I' for Inactive)
REMARK    1  A    between atoms: C_2  and  C_4
REMARK    2  A    between atoms: C_7  and  N_8
REMARK    3  A    between atoms: N_8  and  C_9
REMARK    4  A    between atoms: C_9  and  C_10
REMARK    5  A    between atoms: C_10  and  C_11
REMARK    6  A    between atoms: C_15  and  O_16
REMARK    7  A    between atoms: O_16  and  C_17
REMARK                            x       y       z     vdW  Elec       q    Type
REMARK                         _______ _______ _______ _____ _____    ______ ____
ROOT
ATOM      1  C   UNL     1      46.556   8.479  12.429  0.00  0.00    +0.000 C 
ENDROOT
BRANCH   1   2
ATOM      2  N   UNL     1      45.580   7.762  13.260  0.00  0.00    +0.000 N 
ATOM      3  H   UNL     1      44.863   8.375  13.642  0.00  0.00    +0.000 HD
BRANCH   2   7
ATOM      4  C   UNL     1      44.239   4.116  11.739  0.00  0.00    +0.000 A 
ATOM      5  C   UNL     1      43.935   5.265  11.026  0.00  0.00    +0.000 A 
ATOM      6  C   UNL     1      44.349   6.494  11.539  0.00  0.00    +0.000 A 
ATOM      7  C   UNL     1      45.037   6.570  12.754  0.00  0.00    +0.000 A 
ATOM      8  C   UNL     1      45.302   5.341  13.375  0.00  0.00    +0.000 A 
ATOM      9  N   UNL     1      44.910   4.120  12.922  0.00  0.00    +0.000 NA
BRANCH   4  11
ATOM     10  N   UNL     1      44.620   2.327  10.143  0.00  0.00    +0.000 N 
ATOM     11  C   UNL     1      43.850   2.784  11.177  0.00  0.00    +0.000 C 
ATOM     12  O   UNL     1      42.903   2.136  11.608  0.00  0.00    +0.000 OA
ATOM     13  H   UNL     1      44.405   1.436   9.722  0.00  0.00    +0.000 HD
ATOM     14  H   UNL     1      45.408   2.877   9.823  0.00  0.00    +0.000 HD
ENDBRANCH   4  11
ENDBRANCH   2   7
ENDBRANCH   1   2
BRANCH   1  15
ATOM     15  C   UNL     1      47.967   7.904  12.606  0.00  0.00    +0.000 C 
BRANCH  15  16
ATOM     16  C   UNL     1      48.326   7.806  14.071  0.00  0.00    +0.000 A 
ATOM     17  C   UNL     1      48.308   8.941  14.892  0.00  0.00    +0.000 A 
ATOM     18  C   UNL     1      48.571   8.827  16.260  0.00  0.00    +0.000 A 
ATOM     19  C   UNL     1      48.857   7.580  16.825  0.00  0.00    +0.000 A 
ATOM     20  C   UNL     1      48.888   6.447  16.013  0.00  0.00    +0.000 A 
ATOM     21  C   UNL     1      48.617   6.561  14.648  0.00  0.00    +0.000 A 
BRANCH  20  22
ATOM     22  O   UNL     1      49.126   5.171  16.456  0.00  0.00    +0.000 OA
BRANCH  22  23
ATOM     23  C   UNL     1      48.276   4.613  17.483  0.00  0.00    +0.000 C 
ATOM     24  C   UNL     1      48.410   3.108  17.793  0.00  0.00    +0.000 C 
ATOM     25  N   UNL     1      46.966   2.919  17.590  0.00  0.00    +0.000 NA
ATOM     26  C   UNL     1      46.845   4.266  17.020  0.00  0.00    +0.000 C 
ATOM     27  H   UNL     1      46.435   2.780  18.448  0.00  0.00    +0.000 HD
ENDBRANCH  22  23
ENDBRANCH  20  22
ENDBRANCH  15  16
ENDBRANCH   1  15
TORSDOF 7
ENDMDL
MODEL 8
REMARK VINA RESULT:    -6.248      3.106      7.415
REMARK INTER + INTRA:          -9.603
REMARK INTER:                  -8.664
REMARK INTRA:                  -0.939
REMARK UNBOUND:                -0.799
REMARK  Name = 
REMARK  7 active torsions:
REMARK  status: ('A' for Active; 'I' for Inactive)
REMARK    1  A    between atoms: C_2  and  C_4
REMARK    2  A    between atoms: C_7  and  N_8
REMARK    3  A    between atoms: N_8  and  C_9
REMARK    4  A    between atoms: C_9  and  C_10
REMARK    5  A    between atoms: C_10  and  C_11
REMARK    6  A    between atoms: C_15  and  O_16
REMARK    7  A    between atoms: O_16  and  C_17
REMARK                            x       y       z     vdW  Elec       q    Type
REMARK                         _______ _______ _______ _____ _____    ______ ____
ROOT
ATOM      1  C   UNL     1      49.325   7.204  12.873  0.00  0.00    +0.000 C 
ENDROOT
BRANCH   1   2
ATOM      2  N   UNL     1      49.292   7.502  14.310  0.00  0.00    +0.000 N 
ATOM      3  H   UNL     1      48.925   8.429  14.512  0.00  0.00    +0.000 HD
BRANCH   2   7
ATOM      4  C   UNL     1      47.972   4.490  16.878  0.00  0.00    +0.000 A 
ATOM      5  C   UNL     1      47.364   4.594  15.637  0.00  0.00    +0.000 A 
ATOM      6  C   UNL     1      47.772   5.615  14.780  0.00  0.00    +0.000 A 
ATOM      7  C   UNL     1      48.758   6.528  15.170  0.00  0.00    +0.000 A 
ATOM      8  C   UNL     1      49.312   6.311  16.441  0.00  0.00    +0.000 A 
ATOM      9  N   UNL     1      48.939   5.339  17.316  0.00  0.00    +0.000 NA
BRANCH   4  11
ATOM     10  N   UNL     1      48.388   3.182  18.881  0.00  0.00    +0.000 N 
ATOM     11  C   UNL     1      47.584   3.366  17.789  0.00  0.00    +0.000 C 
ATOM     12  O   UNL     1      46.612   2.651  17.580  0.00  0.00    +0.000 OA
ATOM     13  H   UNL     1      48.178   2.439  19.530  0.00  0.00    +0.000 HD
ATOM     14  H   UNL     1      49.173   3.803  19.037  0.00  0.00    +0.000 HD
ENDBRANCH   4  11
ENDBRANCH   2   7
ENDBRANCH   1   2
BRANCH   1  15
ATOM     15  C   UNL     1      48.532   8.244  12.071  0.00  0.00    +0.000 C 
BRANCH  15  16
ATOM     16  C   UNL     1      47.095   7.807  11.901  0.00  0.00    +0.000 A 
ATOM     17  C   UNL     1      46.043   8.714  12.079  0.00  0.00    +0.000 A 
ATOM     18  C   UNL     1      44.723   8.318  11.849  0.00  0.00    +0.000 A 
ATOM     19  C   UNL     1      44.436   7.013  11.439  0.00  0.00    +0.000 A 
ATOM     20  C   UNL     1      45.476   6.100  11.269  0.00  0.00    +0.000 A 
ATOM     21  C   UNL     1      46.796   6.499  11.492  0.00  0.00    +0.000 A 
BRANCH  20  22
ATOM     22  O   UNL     1      45.321   4.805  10.843  0.00  0.00    +0.000 OA
BRANCH  22  23
ATOM     23  C   UNL     1      44.012   4.196  10.903  0.00  0.00    +0.000 C 
ATOM     24  C   UNL     1      43.540   3.629  12.257  0.00  0.00    +0.000 C 
ATOM     25  N   UNL     1      43.258   2.328  11.635  0.00  0.00    +0.000 NA
ATOM     26  C   UNL     1      43.955   2.735  10.409  0.00  0.00    +0.000 C 
ATOM     27  H   UNL     1      42.267   2.129  11.505  0.00  0.00    +0.000 HD
ENDBRANCH  22  23
ENDBRANCH  20  22
ENDBRANCH  15  16
ENDBRANCH   1  15
TORSDOF 7
ENDMDL
MODEL 9
REMARK VINA RESULT:    -6.216      2.451      8.206
REMARK INTER + INTRA:          -9.559
REMARK INTER:                  -9.352
REMARK INTRA:                  -0.207
REMARK UNBOUND:                -0.799
REMARK  Name = 
REMARK  7 active torsions:
REMARK  status: ('A' for Active; 'I' for Inactive)
REMARK    1  A    between atoms: C_2  and  C_4
REMARK    2  A    between atoms: C_7  and  N_8
REMARK    3  A    between atoms: N_8  and  C_9
REMARK    4  A    between atoms: C_9  and  C_10
REMARK    5  A    between atoms: C_10  and  C_11
REMARK    6  A    between atoms: C_15  and  O_16
REMARK    7  A    between atoms: O_16  and  C_17
REMARK                            x       y       z     vdW  Elec       q    Type
REMARK                         _______ _______ _______ _____ _____    ______ ____
ROOT
ATOM      1  C   UNL     1      46.815   5.016  13.901  0.00  0.00    +0.000 C 
ENDROOT
BRANCH   1   2
ATOM      2  N   UNL     1      46.550   4.549  15.268  0.00  0.00    +0.000 N 
ATOM      3  H   UNL     1      45.864   3.797  15.300  0.00  0.00    +0.000 HD
BRANCH   2   7
ATOM      4  C   UNL     1      49.997   3.837  17.508  0.00  0.00    +0.000 A 
ATOM      5  C   UNL     1      49.089   2.799  17.370  0.00  0.00    +0.000 A 
ATOM      6  C   UNL     1      47.917   3.032  16.652  0.00  0.00    +0.000 A 
ATOM      7  C   UNL     1      47.652   4.288  16.098  0.00  0.00    +0.000 A 
ATOM      8  C   UNL     1      48.652   5.254  16.288  0.00  0.00    +0.000 A 
ATOM      9  N   UNL     1      49.804   5.079  16.990  0.00  0.00    +0.000 NA
BRANCH   4  11
ATOM     10  N   UNL     1      51.846   2.357  18.041  0.00  0.00    +0.000 N 
ATOM     11  C   UNL     1      51.286   3.590  18.230  0.00  0.00    +0.000 C 
ATOM     12  O   UNL     1      51.813   4.431  18.949  0.00  0.00    +0.000 OA
ATOM     13  H   UNL     1      52.714   2.131  18.503  0.00  0.00    +0.000 HD
ATOM     14  H   UNL     1      51.396   1.690  17.425  0.00  0.00    +0.000 HD
ENDBRANCH   4  11
ENDBRANCH   2   7
ENDBRANCH   1   2
BRANCH   1  15
ATOM     15  C   UNL     1      45.559   5.628  13.269  0.00  0.00    +0.000 C 
BRANCH  15  16
ATOM     16  C   UNL     1      45.007   4.726  12.189  0.00  0.00    +0.000 A 
ATOM     17  C   UNL     1      44.077   3.725  12.496  0.00  0.00    +0.000 A 
ATOM     18  C   UNL     1      43.520   2.945  11.479  0.00  0.00    +0.000 A 
ATOM     19  C   UNL     1      43.884   3.153  10.146  0.00  0.00    +0.000 A 
ATOM     20  C   UNL     1      44.818   4.139   9.832  0.00  0.00    +0.000 A 
ATOM     21  C   UNL     1      45.368   4.924  10.849  0.00  0.00    +0.000 A 
BRANCH  20  22
ATOM     22  O   UNL     1      45.229   4.455   8.563  0.00  0.00    +0.000 OA
BRANCH  22  23
ATOM     23  C   UNL     1      45.507   3.389   7.628  0.00  0.00    +0.000 C 
ATOM     24  C   UNL     1      46.197   2.117   8.165  0.00  0.00    +0.000 C 
ATOM     25  N   UNL     1      47.246   2.233   7.142  0.00  0.00    +0.000 NA
ATOM     26  C   UNL     1      46.787   3.581   6.787  0.00  0.00    +0.000 C 
ATOM     27  H   UNL     1      47.172   1.555   6.385  0.00  0.00    +0.000 HD
ENDBRANCH  22  23
ENDBRANCH  20  22
ENDBRANCH  15  16
ENDBRANCH   1  15
TORSDOF 7
ENDMDL
