MODEL 1
REMARK VINA RESULT:    -7.869      0.000      0.000
REMARK INTER + INTRA:         -10.599
REMARK INTER:                  -9.709
REMARK INTRA:                  -0.890
REMARK UNBOUND:                -0.890
REMARK  Name = 
REMARK  5 active torsions:
REMARK  status: ('A' for Active; 'I' for Inactive)
REMARK    1  A    between atoms: C_1  and  C_2
REMARK    2  A    between atoms: C_7  and  N_8
REMARK    3  A    between atoms: N_8  and  C_9
REMARK    4  A    between atoms: C_9  and  C_10
REMARK    5  A    between atoms: C_14  and  C_15
REMARK                            x       y       z     vdW  Elec       q    Type
REMARK                         _______ _______ _______ _____ _____    ______ ____
ROOT
ATOM      1  C   UNL     1      44.449   3.412  10.958  0.00  0.00    +0.000 C 
ATOM      2  C   UNL     1      43.159   2.842  11.579  0.00  0.00    +0.000 C 
ATOM      3  C   UNL     1      43.106   4.108  10.814  0.00  0.00    +0.000 C 
ENDROOT
BRANCH   1   4
ATOM      4  C   UNL     1      45.416   4.097  11.927  0.00  0.00    +0.000 A 
ATOM      5  C   UNL     1      46.091   3.374  12.917  0.00  0.00    +0.000 A 
ATOM      6  C   UNL     1      47.047   3.987  13.720  0.00  0.00    +0.000 A 
ATOM      7  C   UNL     1      47.359   5.337  13.532  0.00  0.00    +0.000 A 
ATOM      8  C   UNL     1      46.726   6.101  12.542  0.00  0.00    +0.000 A 
ATOM      9  C   UNL     1      45.727   5.464  11.788  0.00  0.00    +0.000 A 
BRANCH   8  10
ATOM     10  C   UNL     1      47.175   7.473  12.208  0.00  0.00    +0.000 A 
ATOM     11  C   UNL     1      46.303   8.565  12.354  0.00  0.00    +0.000 A 
ATOM     12  C   UNL     1      46.721   9.874  12.127  0.00  0.00    +0.000 A 
ATOM     13  C   UNL     1      48.035  10.128  11.748  0.00  0.00    +0.000 A 
ATOM     14  C   UNL     1      48.925   9.067  11.593  0.00  0.00    +0.000 A 
ATOM     15  C   UNL     1      48.497   7.753  11.811  0.00  0.00    +0.000 A 
ENDBRANCH   8  10
ENDBRANCH   1   4
BRANCH   1  16
ATOM     16  N   UNL     1      45.126   2.450  10.092  0.00  0.00    +0.000 N 
ATOM     17  H   UNL     1      45.392   1.570  10.530  0.00  0.00    +0.000 HD
BRANCH  16  24
ATOM     18  C   UNL     1      45.857   4.984   8.433  0.00  0.00    +0.000 C 
ATOM     19  C   UNL     1      46.122   3.562   8.077  0.00  0.00    +0.000 A 
ATOM     20  C   UNL     1      46.720   3.317   6.823  0.00  0.00    +0.000 A 
ATOM     21  C   UNL     1      47.041   2.030   6.431  0.00  0.00    +0.000 A 
ATOM     22  C   UNL     1      46.765   1.017   7.313  0.00  0.00    +0.000 A 
ATOM     23  N   UNL     1      46.165   1.215   8.509  0.00  0.00    +0.000 NA
ATOM     24  C   UNL     1      45.820   2.475   8.892  0.00  0.00    +0.000 A 
ENDBRANCH  16  24
ENDBRANCH   1  16
TORSDOF 4
ENDMDL
MODEL 2
REMARK VINA RESULT:    -7.724      1.312      1.798
REMARK INTER + INTRA:         -10.421
REMARK INTER:                  -9.867
REMARK INTRA:                  -0.554
REMARK UNBOUND:                -0.890
REMARK  Name = 
REMARK  5 active torsions:
REMARK  status: ('A' for Active; 'I' for Inactive)
REMARK    1  A    between atoms: C_1  and  C_2
REMARK    2  A    between atoms: C_7  and  N_8
REMARK    3  A    between atoms: N_8  and  C_9
REMARK    4  A    between atoms: C_9  and  C_10
REMARK    5  A    between atoms: C_14  and  C_15
REMARK                            x       y       z     vdW  Elec       q    Type
REMARK                         _______ _______ _______ _____ _____    ______ ____
ROOT
ATOM      1  C   UNL     1      43.929   4.996  10.905  0.00  0.00    +0.000 C 
ATOM      2  C   UNL     1      42.934   3.942  11.426  0.00  0.00    +0.000 C 
ATOM      3  C   UNL     1      42.617   5.380  11.568  0.00  0.00    +0.000 C 
ENDROOT
BRANCH   1   4
ATOM      4  C   UNL     1      45.169   5.236  11.768  0.00  0.00    +0.000 A 
ATOM      5  C   UNL     1      45.658   4.251  12.634  0.00  0.00    +0.000 A 
ATOM      6  C   UNL     1      46.845   4.440  13.332  0.00  0.00    +0.000 A 
ATOM      7  C   UNL     1      47.579   5.618  13.161  0.00  0.00    +0.000 A 
ATOM      8  C   UNL     1      47.144   6.629  12.292  0.00  0.00    +0.000 A 
ATOM      9  C   UNL     1      45.913   6.426  11.646  0.00  0.00    +0.000 A 
BRANCH   8  10
ATOM     10  C   UNL     1      47.997   7.793  11.959  0.00  0.00    +0.000 A 
ATOM     11  C   UNL     1      47.489   9.100  12.054  0.00  0.00    +0.000 A 
ATOM     12  C   UNL     1      48.290  10.217  11.827  0.00  0.00    +0.000 A 
ATOM     13  C   UNL     1      49.633  10.055  11.502  0.00  0.00    +0.000 A 
ATOM     14  C   UNL     1      50.167   8.772  11.398  0.00  0.00    +0.000 A 
ATOM     15  C   UNL     1      49.356   7.653  11.615  0.00  0.00    +0.000 A 
ENDBRANCH   8  10
ENDBRANCH   1   4
BRANCH   1  16
ATOM     16  N   UNL     1      44.268   4.798   9.497  0.00  0.00    +0.000 N 
ATOM     17  H   UNL     1      43.594   5.158   8.824  0.00  0.00    +0.000 HD
BRANCH  16  24
ATOM     18  C   UNL     1      44.255   1.681   9.498  0.00  0.00    +0.000 C 
ATOM     19  C   UNL     1      45.186   2.582   8.762  0.00  0.00    +0.000 A 
ATOM     20  C   UNL     1      46.220   1.970   8.024  0.00  0.00    +0.000 A 
ATOM     21  C   UNL     1      47.102   2.729   7.277  0.00  0.00    +0.000 A 
ATOM     22  C   UNL     1      46.919   4.087   7.277  0.00  0.00    +0.000 A 
ATOM     23  N   UNL     1      45.958   4.709   7.998  0.00  0.00    +0.000 NA
ATOM     24  C   UNL     1      45.102   3.972   8.759  0.00  0.00    +0.000 A 
ENDBRANCH  16  24
ENDBRANCH   1  16
TORSDOF 4
ENDMDL
MODEL 3
REMARK VINA RESULT:    -7.709      2.877      7.078
REMARK INTER + INTRA:         -10.402
REMARK INTER:                  -9.292
REMARK INTRA:                  -1.110
REMARK UNBOUND:                -0.890
REMARK  Name = 
REMARK  5 active torsions:
REMARK  status: ('A' for Active; 'I' for Inactive)
REMARK    1  A    between atoms: C_1  and  C_2
REMARK    2  A    between atoms: C_7  and  N_8
REMARK    3  A    between atoms: N_8  and  C_9
REMARK    4  A    between atoms: C_9  and  C_10
REMARK    5  A    between atoms: C_14  and  C_15
REMARK                            x       y       z     vdW  Elec       q    Type
REMARK                         _______ _______ _______ _____ _____    ______ ____
ROOT
ATOM      1  C   UNL     1      45.534   7.556  11.919  0.00  0.00    +0.000 C 
ATOM      2  C   UNL     1      46.456   7.487  13.153  0.00  0.00    +0.000 C 
ATOM      3  C   UNL     1      47.049   7.553  11.798  0.00  0.00    +0.000 C 
ENDROOT
BRANCH   1   4
ATOM      4  C   UNL     1      44.863   6.244  11.507  0.00  0.00    +0.000 A 
ATOM      5  C   UNL     1      43.568   5.922  11.930  0.00  0.00    +0.000 A 
ATOM      6  C   UNL     1      42.929   4.780  11.462  0.00  0.00    +0.000 A 
ATOM      7  C   UNL     1      43.571   3.944  10.543  0.00  0.00    +0.000 A 
ATOM      8  C   UNL     1      44.861   4.229  10.074  0.00  0.00    +0.000 A 
ATOM      9  C   UNL     1      45.496   5.361  10.610  0.00  0.00    +0.000 A 
BRANCH   8  10
ATOM     10  C   UNL     1      45.477   3.461   8.967  0.00  0.00    +0.000 A 
ATOM     11  C   UNL     1      46.060   4.127   7.875  0.00  0.00    +0.000 A 
ATOM     12  C   UNL     1      46.719   3.436   6.861  0.00  0.00    +0.000 A 
ATOM     13  C   UNL     1      46.818   2.050   6.915  0.00  0.00    +0.000 A 
ATOM     14  C   UNL     1      46.250   1.360   7.984  0.00  0.00    +0.000 A 
ATOM     15  C   UNL     1      45.579   2.057   8.994  0.00  0.00    +0.000 A 
ENDBRANCH   8  10
ENDBRANCH   1   4
BRANCH   1  16
ATOM     16  N   UNL     1      44.583   8.663  11.993  0.00  0.00    +0.000 N 
ATOM     17  H   UNL     1      43.804   8.535  12.636  0.00  0.00    +0.000 HD
BRANCH  16  24
ATOM     18  C   UNL     1      46.275  11.235  11.510  0.00  0.00    +0.000 C 
ATOM     19  C   UNL     1      44.904  10.945  11.002  0.00  0.00    +0.000 A 
ATOM     20  C   UNL     1      44.265  11.964  10.267  0.00  0.00    +0.000 A 
ATOM     21  C   UNL     1      43.009  11.763   9.723  0.00  0.00    +0.000 A 
ATOM     22  C   UNL     1      42.428  10.538   9.919  0.00  0.00    +0.000 A 
ATOM     23  N   UNL     1      43.000   9.550  10.644  0.00  0.00    +0.000 NA
ATOM     24  C   UNL     1      44.223   9.748  11.208  0.00  0.00    +0.000 A 
ENDBRANCH  16  24
ENDBRANCH   1  16
TORSDOF 4
ENDMDL
MODEL 4
REMARK VINA RESULT:    -7.482      2.324      6.905
REMARK INTER + INTRA:         -10.121
REMARK INTER:                  -9.113
REMARK INTRA:                  -1.008
REMARK UNBOUND:                -0.890
REMARK  Name = 
REMARK  5 active torsions:
REMARK  status: ('A' for Active; 'I' for Inactive)
REMARK    1  A    between atoms: C_1  and  C_2
REMARK    2  A    between atoms: C_7  and  N_8
REMARK    3  A    between atoms: N_8  and  C_9
REMARK    4  A    between atoms: C_9  and  C_10
REMARK    5  A    between atoms: C_14  and  C_15
REMARK                            x       y       z     vdW  Elec       q    Type
REMARK                         _______ _______ _______ _____ _____    ______ ____
ROOT
ATOM      1  C   UNL     1      46.293   6.836  12.671  0.00  0.00    +0.000 C 
ATOM      2  C   UNL     1      46.825   8.090  11.952  0.00  0.00    +0.000 C 
ATOM      3  C   UNL     1      45.769   8.228  12.980  0.00  0.00    +0.000 C 
ENDROOT
BRANCH   1   4
ATOM      4  C   UNL     1      45.328   5.959  11.869  0.00  0.00    +0.000 A 
ATOM      5  C   UNL     1      43.942   6.115  11.972  0.00  0.00    +0.000 A 
ATOM      6  C   UNL     1      43.080   5.388  11.159  0.00  0.00    +0.000 A 
ATOM      7  C   UNL     1      43.594   4.499  10.210  0.00  0.00    +0.000 A 
ATOM      8  C   UNL     1      44.975   4.318  10.054  0.00  0.00    +0.000 A 
ATOM      9  C   UNL     1      45.814   5.028  10.929  0.00  0.00    +0.000 A 
BRANCH   8  10
ATOM     10  C   UNL     1      45.538   3.526   8.934  0.00  0.00    +0.000 A 
ATOM     11  C   UNL     1      46.078   4.168   7.807  0.00  0.00    +0.000 A 
ATOM     12  C   UNL     1      46.687   3.456   6.778  0.00  0.00    +0.000 A 
ATOM     13  C   UNL     1      46.777   2.069   6.851  0.00  0.00    +0.000 A 
ATOM     14  C   UNL     1      46.250   1.402   7.955  0.00  0.00    +0.000 A 
ATOM     15  C   UNL     1      45.629   2.121   8.981  0.00  0.00    +0.000 A 
ENDBRANCH   8  10
ENDBRANCH   1   4
BRANCH   1  16
ATOM     16  N   UNL     1      47.358   6.054  13.295  0.00  0.00    +0.000 N 
ATOM     17  H   UNL     1      47.847   5.403  12.683  0.00  0.00    +0.000 HD
BRANCH  16  24
ATOM     18  C   UNL     1      49.083   7.727  15.280  0.00  0.00    +0.000 C 
ATOM     19  C   UNL     1      48.542   6.354  15.486  0.00  0.00    +0.000 A 
ATOM     20  C   UNL     1      48.890   5.703  16.688  0.00  0.00    +0.000 A 
ATOM     21  C   UNL     1      48.396   4.445  16.980  0.00  0.00    +0.000 A 
ATOM     22  C   UNL     1      47.553   3.872  16.064  0.00  0.00    +0.000 A 
ATOM     23  N   UNL     1      47.224   4.456  14.889  0.00  0.00    +0.000 NA
ATOM     24  C   UNL     1      47.727   5.682  14.580  0.00  0.00    +0.000 A 
ENDBRANCH  16  24
ENDBRANCH   1  16
TORSDOF 4
ENDMDL
MODEL 5
REMARK VINA RESULT:    -6.734      3.093      7.511
REMARK INTER + INTRA:          -9.198
REMARK INTER:                  -8.189
REMARK INTRA:                  -1.010
REMARK UNBOUND:                -0.890
REMARK  Name = 
REMARK  5 active torsions:
REMARK  status: ('A' for Active; 'I' for Inactive)
REMARK    1  A    between atoms: C_1  and  C_2
REMARK    2  A    between atoms: C_7  and  N_8
REMARK    3  A    between atoms: N_8  and  C_9
REMARK    4  A    between atoms: C_9  and  C_10
REMARK    5  A    between atoms: C_14  and  C_15
REMARK                            x       y       z     vdW  Elec       q    Type
REMARK                         _______ _______ _______ _____ _____    ______ ____
ROOT
ATOM      1  C   UNL     1      48.834   7.882  12.612  0.00  0.00    +0.000 C 
ATOM      2  C   UNL     1      49.821   7.758  11.435  0.00  0.00    +0.000 C 
ATOM      3  C   UNL     1      49.468   9.097  11.957  0.00  0.00    +0.000 C 
ENDROOT
BRANCH   1   4
ATOM      4  C   UNL     1      47.355   7.679  12.274  0.00  0.00    +0.000 A 
ATOM      5  C   UNL     1      46.420   8.705  12.444  0.00  0.00    +0.000 A 
ATOM      6  C   UNL     1      45.101   8.544  12.033  0.00  0.00    +0.000 A 
ATOM      7  C   UNL     1      44.698   7.350  11.425  0.00  0.00    +0.000 A 
ATOM      8  C   UNL     1      45.599   6.297  11.216  0.00  0.00    +0.000 A 
ATOM      9  C   UNL     1      46.908   6.475  11.693  0.00  0.00    +0.000 A 
BRANCH   8  10
ATOM     10  C   UNL     1      45.237   5.108  10.410  0.00  0.00    +0.000 A 
ATOM     11  C   UNL     1      45.629   5.011   9.064  0.00  0.00    +0.000 A 
ATOM     12  C   UNL     1      45.376   3.871   8.306  0.00  0.00    +0.000 A 
ATOM     13  C   UNL     1      44.721   2.786   8.879  0.00  0.00    +0.000 A 
ATOM     14  C   UNL     1      44.317   2.851  10.211  0.00  0.00    +0.000 A 
ATOM     15  C   UNL     1      44.563   4.003  10.966  0.00  0.00    +0.000 A 
ENDBRANCH   8  10
ENDBRANCH   1   4
BRANCH   1  16
ATOM     16  N   UNL     1      49.247   7.097  13.773  0.00  0.00    +0.000 N 
ATOM     17  H   UNL     1      49.694   6.204  13.569  0.00  0.00    +0.000 HD
BRANCH  16  24
ATOM     18  C   UNL     1      48.815   9.528  15.674  0.00  0.00    +0.000 C 
ATOM     19  C   UNL     1      48.794   8.082  16.035  0.00  0.00    +0.000 A 
ATOM     20  C   UNL     1      48.616   7.765  17.397  0.00  0.00    +0.000 A 
ATOM     21  C   UNL     1      48.540   6.448  17.813  0.00  0.00    +0.000 A 
ATOM     22  C   UNL     1      48.633   5.478  16.850  0.00  0.00    +0.000 A 
ATOM     23  N   UNL     1      48.834   5.747  15.539  0.00  0.00    +0.000 NA
ATOM     24  C   UNL     1      48.938   7.039  15.124  0.00  0.00    +0.000 A 
ENDBRANCH  16  24
ENDBRANCH   1  16
TORSDOF 4
ENDMDL
MODEL 6
REMARK VINA RESULT:    -6.614      2.841      7.270
REMARK INTER + INTRA:          -9.051
REMARK INTER:                  -7.934
REMARK INTRA:                  -1.117
REMARK UNBOUND:                -0.890
REMARK  Name = 
REMARK  5 active torsions:
REMARK  status: ('A' for Active; 'I' for Inactive)
REMARK    1  A    between atoms: C_1  and  C_2
REMARK    2  A    between atoms: C_7  and  N_8
REMARK    3  A    between atoms: N_8  and  C_9
REMARK    4  A    between atoms: C_9  and  C_10
REMARK    5  A    between atoms: C_14  and  C_15
REMARK                            x       y       z     vdW  Elec       q    Type
REMARK                         _______ _______ _______ _____ _____    ______ ____
ROOT
ATOM      1  C   UNL     1      48.332   7.732  13.370  0.00  0.00    +0.000 C 
ATOM      2  C   UNL     1      49.481   8.227  12.470  0.00  0.00    +0.000 C 
ATOM      3  C   UNL     1      48.866   9.152  13.449  0.00  0.00    +0.000 C 
ENDROOT
BRANCH   1   4
ATOM      4  C   UNL     1      46.960   7.608  12.702  0.00  0.00    +0.000 A 
ATOM      5  C   UNL     1      46.085   8.697  12.622  0.00  0.00    +0.000 A 
ATOM      6  C   UNL     1      44.889   8.601  11.919  0.00  0.00    +0.000 A 
ATOM      7  C   UNL     1      44.555   7.412  11.264  0.00  0.00    +0.000 A 
ATOM      8  C   UNL     1      45.404   6.297  11.297  0.00  0.00    +0.000 A 
ATOM      9  C   UNL     1      46.576   6.412  12.062  0.00  0.00    +0.000 A 
BRANCH   8  10
ATOM     10  C   UNL     1      45.155   5.101  10.459  0.00  0.00    +0.000 A 
ATOM     11  C   UNL     1      45.632   5.043   9.139  0.00  0.00    +0.000 A 
ATOM     12  C   UNL     1      45.486   3.901   8.355  0.00  0.00    +0.000 A 
ATOM     13  C   UNL     1      44.857   2.775   8.877  0.00  0.00    +0.000 A 
ATOM     14  C   UNL     1      44.371   2.801  10.183  0.00  0.00    +0.000 A 
ATOM     15  C   UNL     1      44.509   3.954  10.962  0.00  0.00    +0.000 A 
ENDBRANCH   8  10
ENDBRANCH   1   4
BRANCH   1  16
ATOM     16  N   UNL     1      48.688   6.532  14.123  0.00  0.00    +0.000 N 
ATOM     17  H   UNL     1      49.073   5.763  13.577  0.00  0.00    +0.000 HD
BRANCH  16  24
ATOM     18  C   UNL     1      49.430   7.685  16.922  0.00  0.00    +0.000 C 
ATOM     19  C   UNL     1      48.727   6.405  16.628  0.00  0.00    +0.000 A 
ATOM     20  C   UNL     1      48.406   5.585  17.729  0.00  0.00    +0.000 A 
ATOM     21  C   UNL     1      47.714   4.400  17.551  0.00  0.00    +0.000 A 
ATOM     22  C   UNL     1      47.349   4.071  16.271  0.00  0.00    +0.000 A 
ATOM     23  N   UNL     1      47.668   4.820  15.191  0.00  0.00    +0.000 NA
ATOM     24  C   UNL     1      48.373   5.973  15.353  0.00  0.00    +0.000 A 
ENDBRANCH  16  24
ENDBRANCH   1  16
TORSDOF 4
ENDMDL
MODEL 7
REMARK VINA RESULT:    -6.108      2.627      5.303
REMARK INTER + INTRA:          -8.426
REMARK INTER:                  -7.417
REMARK INTRA:                  -1.009
REMARK UNBOUND:                -0.890
REMARK  Name = 
REMARK  5 active torsions:
REMARK  status: ('A' for Active; 'I' for Inactive)
REMARK    1  A    between atoms: C_1  and  C_2
REMARK    2  A    between atoms: C_7  and  N_8
REMARK    3  A    between atoms: N_8  and  C_9
REMARK    4  A    between atoms: C_9  and  C_10
REMARK    5  A    between atoms: C_14  and  C_15
REMARK                            x       y       z     vdW  Elec       q    Type
REMARK                         _______ _______ _______ _____ _____    ______ ____
ROOT
ATOM      1  C   UNL     1      45.372   8.305  11.700  0.00  0.00    +0.000 C 
ATOM      2  C   UNL     1      44.740   9.348  12.641  0.00  0.00    +0.000 C 
ATOM      3  C   UNL     1      45.427   9.796  11.409  0.00  0.00    +0.000 C 
ENDROOT
BRANCH   1   4
ATOM      4  C   UNL     1      46.701   7.701  12.160  0.00  0.00    +0.000 A 
ATOM      5  C   UNL     1      47.913   8.055  11.557  0.00  0.00    +0.000 A 
ATOM      6  C   UNL     1      49.122   7.582  12.054  0.00  0.00    +0.000 A 
ATOM      7  C   UNL     1      49.140   6.756  13.182  0.00  0.00    +0.000 A 
ATOM      8  C   UNL     1      47.957   6.385  13.835  0.00  0.00    +0.000 A 
ATOM      9  C   UNL     1      46.752   6.837  13.273  0.00  0.00    +0.000 A 
BRANCH   8  10
ATOM     10  C   UNL     1      47.971   5.669  15.132  0.00  0.00    +0.000 A 
ATOM     11  C   UNL     1      48.716   6.168  16.214  0.00  0.00    +0.000 A 
ATOM     12  C   UNL     1      48.684   5.564  17.468  0.00  0.00    +0.000 A 
ATOM     13  C   UNL     1      47.895   4.437  17.677  0.00  0.00    +0.000 A 
ATOM     14  C   UNL     1      47.146   3.917  16.624  0.00  0.00    +0.000 A 
ATOM     15  C   UNL     1      47.190   4.520  15.363  0.00  0.00    +0.000 A 
ENDBRANCH   8  10
ENDBRANCH   1   4
BRANCH   1  16
ATOM     16  N   UNL     1      44.419   7.282  11.277  0.00  0.00    +0.000 N 
ATOM     17  H   UNL     1      43.506   7.622  10.979  0.00  0.00    +0.000 HD
BRANCH  16  24
ATOM     18  C   UNL     1      45.549   5.038   9.433  0.00  0.00    +0.000 C 
ATOM     19  C   UNL     1      44.677   4.872  10.630  0.00  0.00    +0.000 A 
ATOM     20  C   UNL     1      44.261   3.562  10.942  0.00  0.00    +0.000 A 
ATOM     21  C   UNL     1      43.487   3.312  12.060  0.00  0.00    +0.000 A 
ATOM     22  C   UNL     1      43.157   4.384  12.848  0.00  0.00    +0.000 A 
ATOM     23  N   UNL     1      43.513   5.657  12.561  0.00  0.00    +0.000 NA
ATOM     24  C   UNL     1      44.252   5.916  11.447  0.00  0.00    +0.000 A 
ENDBRANCH  16  24
ENDBRANCH   1  16
TORSDOF 4
ENDMDL
MODEL 8
REMARK VINA RESULT:    -6.046      3.626      6.020
REMARK INTER + INTRA:          -8.350
REMARK INTER:                  -7.466
REMARK INTRA:                  -0.884
REMARK UNBOUND:                -0.890
REMARK  Name = 
REMARK  5 active torsions:
REMARK  status: ('A' for Active; 'I' for Inactive)
REMARK    1  A    between atoms: C_1  and  C_2
REMARK    2  A    between atoms: C_7  and  N_8
REMARK    3  A    between atoms: N_8  and  C_9
REMARK    4  A    between atoms: C_9  and  C_10
REMARK    5  A    between atoms: C_14  and  C_15
REMARK                            x       y       z     vdW  Elec       q    Type
REMARK                         _______ _______ _______ _____ _____    ______ ____
ROOT
ATOM      1  C   UNL     1      46.418   4.953  13.732  0.00  0.00    +0.000 C 
ATOM      2  C   UNL     1      44.952   4.730  13.314  0.00  0.00    +0.000 C 
ATOM      3  C   UNL     1      46.027   3.959  12.652  0.00  0.00    +0.000 C 
ENDROOT
BRANCH   1   4
ATOM      4  C   UNL     1      47.080   6.230  13.208  0.00  0.00    +0.000 A 
ATOM      5  C   UNL     1      48.436   6.261  12.865  0.00  0.00    +0.000 A 
ATOM      6  C   UNL     1      49.001   7.394  12.289  0.00  0.00    +0.000 A 
ATOM      7  C   UNL     1      48.208   8.516  12.030  0.00  0.00    +0.000 A 
ATOM      8  C   UNL     1      46.841   8.532  12.338  0.00  0.00    +0.000 A 
ATOM      9  C   UNL     1      46.318   7.390  12.968  0.00  0.00    +0.000 A 
BRANCH   8  10
ATOM     10  C   UNL     1      45.954   9.635  11.901  0.00  0.00    +0.000 A 
ATOM     11  C   UNL     1      44.615   9.381  11.557  0.00  0.00    +0.000 A 
ATOM     12  C   UNL     1      43.736  10.407  11.222  0.00  0.00    +0.000 A 
ATOM     13  C   UNL     1      44.174  11.727  11.227  0.00  0.00    +0.000 A 
ATOM     14  C   UNL     1      45.496  12.013  11.562  0.00  0.00    +0.000 A 
ATOM     15  C   UNL     1      46.379  10.978  11.886  0.00  0.00    +0.000 A 
ENDBRANCH   8  10
ENDBRANCH   1   4
BRANCH   1  16
ATOM     16  N   UNL     1      46.624   4.775  15.167  0.00  0.00    +0.000 N 
ATOM     17  H   UNL     1      45.984   5.286  15.774  0.00  0.00    +0.000 HD
BRANCH  16  24
ATOM     18  C   UNL     1      48.502   6.601  16.856  0.00  0.00    +0.000 C 
ATOM     19  C   UNL     1      48.555   5.117  16.732  0.00  0.00    +0.000 A 
ATOM     20  C   UNL     1      49.603   4.455  17.403  0.00  0.00    +0.000 A 
ATOM     21  C   UNL     1      49.702   3.076  17.377  0.00  0.00    +0.000 A 
ATOM     22  C   UNL     1      48.737   2.390  16.686  0.00  0.00    +0.000 A 
ATOM     23  N   UNL     1      47.736   2.995  16.006  0.00  0.00    +0.000 NA
ATOM     24  C   UNL     1      47.647   4.353  16.003  0.00  0.00    +0.000 A 
ENDBRANCH  16  24
ENDBRANCH   1  16
TORSDOF 4
ENDMDL
MODEL 9
REMARK VINA RESULT:    -6.006      2.470      4.882
REMARK INTER + INTRA:          -8.301
REMARK INTER:                  -7.492
REMARK INTRA:                  -0.809
REMARK UNBOUND:                -0.890
REMARK  Name = 
REMARK  5 active torsions:
REMARK  status: ('A' for Active; 'I' for Inactive)
REMARK    1  A    between atoms: C_1  and  C_2
REMARK    2  A    between atoms: C_7  and  N_8
REMARK    3  A    between atoms: N_8  and  C_9
REMARK    4  A    between atoms: C_9  and  C_10
REMARK    5  A    between atoms: C_14  and  C_15
REMARK                            x       y       z     vdW  Elec       q    Type
REMARK                         _______ _______ _______ _____ _____    ______ ____
ROOT
ATOM      1  C   UNL     1      45.660   6.584  11.974  0.00  0.00    +0.000 C 
ATOM      2  C   UNL     1      44.391   7.348  12.396  0.00  0.00    +0.000 C 
ATOM      3  C   UNL     1      45.225   7.869  11.290  0.00  0.00    +0.000 C 
ENDROOT
BRANCH   1   4
ATOM      4  C   UNL     1      46.874   6.735  12.894  0.00  0.00    +0.000 A 
ATOM      5  C   UNL     1      47.704   7.860  12.829  0.00  0.00    +0.000 A 
ATOM      6  C   UNL     1      48.738   8.036  13.742  0.00  0.00    +0.000 A 
ATOM      7  C   UNL     1      48.949   7.093  14.753  0.00  0.00    +0.000 A 
ATOM      8  C   UNL     1      48.136   5.958  14.873  0.00  0.00    +0.000 A 
ATOM      9  C   UNL     1      47.136   5.785  13.901  0.00  0.00    +0.000 A 
BRANCH   8  10
ATOM     10  C   UNL     1      48.227   5.052  16.042  0.00  0.00    +0.000 A 
ATOM     11  C   UNL     1      49.120   5.329  17.091  0.00  0.00    +0.000 A 
ATOM     12  C   UNL     1      49.170   4.543  18.239  0.00  0.00    +0.000 A 
ATOM     13  C   UNL     1      48.317   3.452  18.372  0.00  0.00    +0.000 A 
ATOM     14  C   UNL     1      47.421   3.150  17.350  0.00  0.00    +0.000 A 
ATOM     15  C   UNL     1      47.382   3.935  16.193  0.00  0.00    +0.000 A 
ENDBRANCH   8  10
ENDBRANCH   1   4
BRANCH   1  16
ATOM     16  N   UNL     1      45.389   5.187  11.645  0.00  0.00    +0.000 N 
ATOM     17  H   UNL     1      45.695   4.501  12.334  0.00  0.00    +0.000 HD
BRANCH  16  24
ATOM     18  C   UNL     1      43.516   2.702  11.473  0.00  0.00    +0.000 C 
ATOM     19  C   UNL     1      44.333   3.297  10.378  0.00  0.00    +0.000 A 
ATOM     20  C   UNL     1      44.310   2.637   9.132  0.00  0.00    +0.000 A 
ATOM     21  C   UNL     1      45.005   3.145   8.049  0.00  0.00    +0.000 A 
ATOM     22  C   UNL     1      45.698   4.313   8.239  0.00  0.00    +0.000 A 
ATOM     23  N   UNL     1      45.765   4.953   9.428  0.00  0.00    +0.000 NA
ATOM     24  C   UNL     1      45.108   4.446  10.506  0.00  0.00    +0.000 A 
ENDBRANCH  16  24
ENDBRANCH   1  16
TORSDOF 4
ENDMDL
