MODEL 1
REMARK VINA RESULT:    -7.245      0.000      0.000
REMARK INTER + INTRA:         -10.720
REMARK INTER:                  -9.786
REMARK INTRA:                  -0.935
REMARK UNBOUND:                -0.935
REMARK  Name = 
REMARK  7 active torsions:
REMARK  status: ('A' for Active; 'I' for Inactive)
REMARK    1  A    between atoms: C_1  and  C_2
REMARK    2  A    between atoms: C_2  and  C_3
REMARK    3  A    between atoms: C_3  and  N_4
REMARK    4  A    between atoms: C_3  and  C_17
REMARK    5  A    between atoms: C_5  and  C_7
REMARK    6  A    between atoms: C_20  and  C_21
REMARK    7  A    between atoms: C_21  and  N_22
REMARK                            x       y       z     vdW  Elec       q    Type
REMARK                         _______ _______ _______ _____ _____    ______ ____
ROOT
ATOM      1  C   UNL     1      47.877   6.441  13.706  0.00  0.00    +0.000 C 
ENDROOT
BRANCH   1   2
ATOM      2  C   UNL     1      46.709   5.542  13.307  0.00  0.00    +0.000 A 
ATOM      3  C   UNL     1      46.888   4.155  13.219  0.00  0.00    +0.000 A 
ATOM      4  C   UNL     1      45.872   3.328  12.720  0.00  0.00    +0.000 A 
ATOM      5  C   UNL     1      44.654   3.867  12.288  0.00  0.00    +0.000 A 
ATOM      6  C   UNL     1      44.435   5.240  12.472  0.00  0.00    +0.000 A 
ATOM      7  C   UNL     1      45.448   6.067  12.979  0.00  0.00    +0.000 A 
BRANCH   5   8
ATOM      8  C   UNL     1      43.685   3.027  11.481  0.00  0.00    +0.000 C 
BRANCH   8   9
ATOM      9  N   UNL     1      43.727   3.062  10.027  0.00  0.00    +0.000 NA
ATOM     10  C   UNL     1      44.311   1.908   9.350  0.00  0.00    +0.000 C 
ATOM     11  C   UNL     1      45.742   2.114   8.813  0.00  0.00    +0.000 C 
ATOM     12  N   UNL     1      45.896   3.351   8.026  0.00  0.00    +0.000 NA
ATOM     13  C   UNL     1      45.476   4.489   8.862  0.00  0.00    +0.000 C 
ATOM     14  C   UNL     1      44.038   4.346   9.402  0.00  0.00    +0.000 C 
ATOM     15  H   UNL     1      45.255   3.296   7.232  0.00  0.00    +0.000 HD
ENDBRANCH   8   9
ENDBRANCH   5   8
ENDBRANCH   1   2
BRANCH   1  16
ATOM     16  N   UNL     1      47.845   6.660  15.146  0.00  0.00    +0.000 N 
ATOM     17  C   UNL     1      48.970   6.625  15.933  0.00  0.00    +0.000 C 
ATOM     18  O   UNL     1      50.102   6.502  15.478  0.00  0.00    +0.000 OA
ATOM     19  H   UNL     1      46.951   6.487  15.594  0.00  0.00    +0.000 HD
BRANCH  17  20
ATOM     20  C   UNL     1      48.757   6.799  17.375  0.00  0.00    +0.000 A 
ATOM     21  C   UNL     1      48.670   8.074  17.916  0.00  0.00    +0.000 A 
ATOM     22  S   UNL     1      48.448   8.081  19.607  0.00  0.00    +0.000 S 
ATOM     23  C   UNL     1      48.511   6.381  19.676  0.00  0.00    +0.000 A 
ATOM     24  N   UNL     1      48.439   5.725  20.864  0.00  0.00    +0.000 NA
ATOM     25  C   UNL     1      48.539   4.441  20.772  0.00  0.00    +0.000 A 
ATOM     26  N   UNL     1      48.674   3.752  19.593  0.00  0.00    +0.000 N 
ATOM     27  C   UNL     1      48.698   4.370  18.367  0.00  0.00    +0.000 A 
ATOM     28  O   UNL     1      48.729   3.726  17.324  0.00  0.00    +0.000 OA
ATOM     29  C   UNL     1      48.646   5.817  18.422  0.00  0.00    +0.000 A 
ATOM     30  H   UNL     1      48.712   2.742  19.582  0.00  0.00    +0.000 HD
ENDBRANCH  17  20
ENDBRANCH   1  16
BRANCH   1  32
ATOM     31  C   UNL     1      48.935   7.855  11.828  0.00  0.00    +0.000 C 
ATOM     32  C   UNL     1      47.884   7.780  12.928  0.00  0.00    +0.000 C 
ENDBRANCH   1  32
TORSDOF 6
ENDMDL
MODEL 2
REMARK VINA RESULT:    -7.106      2.135      3.061
REMARK INTER + INTRA:         -10.534
REMARK INTER:                  -9.052
REMARK INTRA:                  -1.481
REMARK UNBOUND:                -0.935
REMARK  Name = 
REMARK  7 active torsions:
REMARK  status: ('A' for Active; 'I' for Inactive)
REMARK    1  A    between atoms: C_1  and  C_2
REMARK    2  A    between atoms: C_2  and  C_3
REMARK    3  A    between atoms: C_3  and  N_4
REMARK    4  A    between atoms: C_3  and  C_17
REMARK    5  A    between atoms: C_5  and  C_7
REMARK    6  A    between atoms: C_20  and  C_21
REMARK    7  A    between atoms: C_21  and  N_22
REMARK                            x       y       z     vdW  Elec       q    Type
REMARK                         _______ _______ _______ _____ _____    ______ ____
ROOT
ATOM      1  C   UNL     1      48.414   8.377  13.607  0.00  0.00    +0.000 C 
ENDROOT
BRANCH   1   2
ATOM      2  C   UNL     1      47.187   7.998  12.782  0.00  0.00    +0.000 A 
ATOM      3  C   UNL     1      45.977   8.682  12.965  0.00  0.00    +0.000 A 
ATOM      4  C   UNL     1      44.805   8.259  12.324  0.00  0.00    +0.000 A 
ATOM      5  C   UNL     1      44.809   7.135  11.488  0.00  0.00    +0.000 A 
ATOM      6  C   UNL     1      46.038   6.513  11.222  0.00  0.00    +0.000 A 
ATOM      7  C   UNL     1      47.212   6.940  11.857  0.00  0.00    +0.000 A 
BRANCH   5   8
ATOM      8  C   UNL     1      43.506   6.506  11.039  0.00  0.00    +0.000 C 
BRANCH   8   9
ATOM      9  N   UNL     1      43.131   5.186  11.522  0.00  0.00    +0.000 NA
ATOM     10  C   UNL     1      43.271   4.936  12.953  0.00  0.00    +0.000 C 
ATOM     11  C   UNL     1      44.498   4.093  13.358  0.00  0.00    +0.000 C 
ATOM     12  N   UNL     1      44.642   2.858  12.566  0.00  0.00    +0.000 NA
ATOM     13  C   UNL     1      44.699   3.224  11.140  0.00  0.00    +0.000 C 
ATOM     14  C   UNL     1      43.479   4.046  10.676  0.00  0.00    +0.000 C 
ATOM     15  H   UNL     1      43.800   2.297  12.709  0.00  0.00    +0.000 HD
ENDBRANCH   8   9
ENDBRANCH   5   8
ENDBRANCH   1   2
BRANCH   1  16
ATOM     16  N   UNL     1      48.415   7.612  14.847  0.00  0.00    +0.000 N 
ATOM     17  C   UNL     1      49.559   7.109  15.415  0.00  0.00    +0.000 C 
ATOM     18  O   UNL     1      50.681   7.340  14.977  0.00  0.00    +0.000 OA
ATOM     19  H   UNL     1      47.535   7.166  15.085  0.00  0.00    +0.000 HD
BRANCH  17  20
ATOM     20  C   UNL     1      49.379   6.303  16.628  0.00  0.00    +0.000 A 
ATOM     21  C   UNL     1      50.071   6.628  17.787  0.00  0.00    +0.000 A 
ATOM     22  S   UNL     1      49.758   5.567  19.086  0.00  0.00    +0.000 S 
ATOM     23  C   UNL     1      48.727   4.611  18.126  0.00  0.00    +0.000 A 
ATOM     24  N   UNL     1      48.153   3.483  18.622  0.00  0.00    +0.000 NA
ATOM     25  C   UNL     1      47.428   2.835  17.774  0.00  0.00    +0.000 A 
ATOM     26  N   UNL     1      47.198   3.231  16.480  0.00  0.00    +0.000 N 
ATOM     27  C   UNL     1      47.714   4.390  15.953  0.00  0.00    +0.000 A 
ATOM     28  O   UNL     1      47.421   4.767  14.824  0.00  0.00    +0.000 OA
ATOM     29  C   UNL     1      48.583   5.124  16.851  0.00  0.00    +0.000 A 
ATOM     30  H   UNL     1      46.591   2.699  15.873  0.00  0.00    +0.000 HD
ENDBRANCH  17  20
ENDBRANCH   1  16
BRANCH   1  32
ATOM     31  C   UNL     1      49.094  10.705  12.734  0.00  0.00    +0.000 C 
ATOM     32  C   UNL     1      48.494   9.900  13.879  0.00  0.00    +0.000 C 
ENDBRANCH   1  32
TORSDOF 6
ENDMDL
MODEL 3
REMARK VINA RESULT:    -7.047      2.960      8.634
REMARK INTER + INTRA:         -10.454
REMARK INTER:                  -9.140
REMARK INTRA:                  -1.314
REMARK UNBOUND:                -0.935
REMARK  Name = 
REMARK  7 active torsions:
REMARK  status: ('A' for Active; 'I' for Inactive)
REMARK    1  A    between atoms: C_1  and  C_2
REMARK    2  A    between atoms: C_2  and  C_3
REMARK    3  A    between atoms: C_3  and  N_4
REMARK    4  A    between atoms: C_3  and  C_17
REMARK    5  A    between atoms: C_5  and  C_7
REMARK    6  A    between atoms: C_20  and  C_21
REMARK    7  A    between atoms: C_21  and  N_22
REMARK                            x       y       z     vdW  Elec       q    Type
REMARK                         _______ _______ _______ _____ _____    ______ ____
ROOT
ATOM      1  C   UNL     1      47.751   7.726  12.386  0.00  0.00    +0.000 C 
ENDROOT
BRANCH   1   2
ATOM      2  C   UNL     1      48.069   7.719  13.879  0.00  0.00    +0.000 A 
ATOM      3  C   UNL     1      47.915   8.888  14.636  0.00  0.00    +0.000 A 
ATOM      4  C   UNL     1      48.334   8.943  15.972  0.00  0.00    +0.000 A 
ATOM      5  C   UNL     1      48.926   7.831  16.585  0.00  0.00    +0.000 A 
ATOM      6  C   UNL     1      48.987   6.631  15.862  0.00  0.00    +0.000 A 
ATOM      7  C   UNL     1      48.560   6.574  14.528  0.00  0.00    +0.000 A 
BRANCH   5   8
ATOM      8  C   UNL     1      49.643   7.976  17.912  0.00  0.00    +0.000 C 
BRANCH   8   9
ATOM      9  N   UNL     1      49.165   7.253  19.081  0.00  0.00    +0.000 NA
ATOM     10  C   UNL     1      49.875   6.030  19.442  0.00  0.00    +0.000 C 
ATOM     11  C   UNL     1      49.158   4.717  19.063  0.00  0.00    +0.000 C 
ATOM     12  N   UNL     1      47.747   4.681  19.486  0.00  0.00    +0.000 NA
ATOM     13  C   UNL     1      47.058   5.846  18.905  0.00  0.00    +0.000 C 
ATOM     14  C   UNL     1      47.719   7.190  19.277  0.00  0.00    +0.000 C 
ATOM     15  H   UNL     1      47.724   4.783  20.502  0.00  0.00    +0.000 HD
ENDBRANCH   8   9
ENDBRANCH   5   8
ENDBRANCH   1   2
BRANCH   1  16
ATOM     16  N   UNL     1      46.954   6.552  12.058  0.00  0.00    +0.000 N 
ATOM     17  C   UNL     1      45.586   6.583  11.948  0.00  0.00    +0.000 C 
ATOM     18  O   UNL     1      44.932   7.619  12.021  0.00  0.00    +0.000 OA
ATOM     19  H   UNL     1      47.389   5.658  12.263  0.00  0.00    +0.000 HD
BRANCH  17  20
ATOM     20  C   UNL     1      44.928   5.299  11.680  0.00  0.00    +0.000 A 
ATOM     21  C   UNL     1      44.186   4.677  12.675  0.00  0.00    +0.000 A 
ATOM     22  S   UNL     1      43.517   3.184  12.192  0.00  0.00    +0.000 S 
ATOM     23  C   UNL     1      44.238   3.298  10.654  0.00  0.00    +0.000 A 
ATOM     24  N   UNL     1      44.108   2.298   9.743  0.00  0.00    +0.000 NA
ATOM     25  C   UNL     1      44.739   2.499   8.635  0.00  0.00    +0.000 A 
ATOM     26  N   UNL     1      45.464   3.628   8.343  0.00  0.00    +0.000 N 
ATOM     27  C   UNL     1      45.578   4.685   9.213  0.00  0.00    +0.000 A 
ATOM     28  O   UNL     1      46.156   5.718   8.894  0.00  0.00    +0.000 OA
ATOM     29  C   UNL     1      44.934   4.481  10.495  0.00  0.00    +0.000 A 
ATOM     30  H   UNL     1      45.907   3.743   7.443  0.00  0.00    +0.000 HD
ENDBRANCH  17  20
ENDBRANCH   1  16
BRANCH   1  32
ATOM     31  C   UNL     1      49.651   9.196  11.450  0.00  0.00    +0.000 C 
ATOM     32  C   UNL     1      49.027   7.808  11.512  0.00  0.00    +0.000 C 
ENDBRANCH   1  32
TORSDOF 6
ENDMDL
MODEL 4
REMARK VINA RESULT:    -6.944      3.110      7.983
REMARK INTER + INTRA:         -10.314
REMARK INTER:                  -9.044
REMARK INTRA:                  -1.270
REMARK UNBOUND:                -0.935
REMARK  Name = 
REMARK  7 active torsions:
REMARK  status: ('A' for Active; 'I' for Inactive)
REMARK    1  A    between atoms: C_1  and  C_2
REMARK    2  A    between atoms: C_2  and  C_3
REMARK    3  A    between atoms: C_3  and  N_4
REMARK    4  A    between atoms: C_3  and  C_17
REMARK    5  A    between atoms: C_5  and  C_7
REMARK    6  A    between atoms: C_20  and  C_21
REMARK    7  A    between atoms: C_21  and  N_22
REMARK                            x       y       z     vdW  Elec       q    Type
REMARK                         _______ _______ _______ _____ _____    ______ ____
ROOT
ATOM      1  C   UNL     1      48.368   7.844  12.567  0.00  0.00    +0.000 C 
ENDROOT
BRANCH   1   2
ATOM      2  C   UNL     1      48.625   7.383  14.000  0.00  0.00    +0.000 A 
ATOM      3  C   UNL     1      48.108   6.160  14.449  0.00  0.00    +0.000 A 
ATOM      4  C   UNL     1      48.210   5.785  15.795  0.00  0.00    +0.000 A 
ATOM      5  C   UNL     1      48.826   6.626  16.731  0.00  0.00    +0.000 A 
ATOM      6  C   UNL     1      49.434   7.801  16.265  0.00  0.00    +0.000 A 
ATOM      7  C   UNL     1      49.339   8.174  14.916  0.00  0.00    +0.000 A 
BRANCH   5   8
ATOM      8  C   UNL     1      48.674   6.366  18.215  0.00  0.00    +0.000 C 
BRANCH   8   9
ATOM      9  N   UNL     1      49.372   5.249  18.834  0.00  0.00    +0.000 NA
ATOM     10  C   UNL     1      50.797   5.113  18.545  0.00  0.00    +0.000 C 
ATOM     11  C   UNL     1      51.159   4.014  17.525  0.00  0.00    +0.000 C 
ATOM     12  N   UNL     1      50.530   2.715  17.820  0.00  0.00    +0.000 NA
ATOM     13  C   UNL     1      49.071   2.911  17.890  0.00  0.00    +0.000 C 
ATOM     14  C   UNL     1      48.652   3.981  18.919  0.00  0.00    +0.000 C 
ATOM     15  H   UNL     1      50.848   2.419  18.744  0.00  0.00    +0.000 HD
ENDBRANCH   8   9
ENDBRANCH   5   8
ENDBRANCH   1   2
BRANCH   1  16
ATOM     16  N   UNL     1      47.645   6.802  11.850  0.00  0.00    +0.000 N 
ATOM     17  C   UNL     1      46.305   6.882  11.563  0.00  0.00    +0.000 C 
ATOM     18  O   UNL     1      45.629   7.877  11.802  0.00  0.00    +0.000 OA
ATOM     19  H   UNL     1      48.065   5.878  11.883  0.00  0.00    +0.000 HD
BRANCH  17  20
ATOM     20  C   UNL     1      45.715   5.717  10.894  0.00  0.00    +0.000 A 
ATOM     21  C   UNL     1      45.854   5.558   9.522  0.00  0.00    +0.000 A 
ATOM     22  S   UNL     1      45.082   4.163   8.917  0.00  0.00    +0.000 S 
ATOM     23  C   UNL     1      44.495   3.753  10.461  0.00  0.00    +0.000 A 
ATOM     24  N   UNL     1      43.692   2.671  10.642  0.00  0.00    +0.000 NA
ATOM     25  C   UNL     1      43.289   2.502  11.857  0.00  0.00    +0.000 A 
ATOM     26  N   UNL     1      43.641   3.303  12.915  0.00  0.00    +0.000 N 
ATOM     27  C   UNL     1      44.490   4.374  12.788  0.00  0.00    +0.000 A 
ATOM     28  O   UNL     1      44.860   5.019  13.762  0.00  0.00    +0.000 OA
ATOM     29  C   UNL     1      44.925   4.639  11.431  0.00  0.00    +0.000 A 
ATOM     30  H   UNL     1      43.320   3.099  13.850  0.00  0.00    +0.000 HD
ENDBRANCH  17  20
ENDBRANCH   1  16
BRANCH   1  32
ATOM     31  C   UNL     1      49.736   9.705  11.422  0.00  0.00    +0.000 C 
ATOM     32  C   UNL     1      49.672   8.239  11.832  0.00  0.00    +0.000 C 
ENDBRANCH   1  32
TORSDOF 6
ENDMDL
MODEL 5
REMARK VINA RESULT:    -6.739      2.927      9.120
REMARK INTER + INTRA:         -10.038
REMARK INTER:                  -8.708
REMARK INTRA:                  -1.330
REMARK UNBOUND:                -0.935
REMARK  Name = 
REMARK  7 active torsions:
REMARK  status: ('A' for Active; 'I' for Inactive)
REMARK    1  A    between atoms: C_1  and  C_2
REMARK    2  A    between atoms: C_2  and  C_3
REMARK    3  A    between atoms: C_3  and  N_4
REMARK    4  A    between atoms: C_3  and  C_17
REMARK    5  A    between atoms: C_5  and  C_7
REMARK    6  A    between atoms: C_20  and  C_21
REMARK    7  A    between atoms: C_21  and  N_22
REMARK                            x       y       z     vdW  Elec       q    Type
REMARK                         _______ _______ _______ _____ _____    ______ ____
ROOT
ATOM      1  C   UNL     1      48.055   4.629  16.189  0.00  0.00    +0.000 C 
ENDROOT
BRANCH   1   2
ATOM      2  C   UNL     1      48.028   5.693  17.283  0.00  0.00    +0.000 A 
ATOM      3  C   UNL     1      47.330   5.456  18.476  0.00  0.00    +0.000 A 
ATOM      4  C   UNL     1      47.174   6.469  19.432  0.00  0.00    +0.000 A 
ATOM      5  C   UNL     1      47.704   7.747  19.218  0.00  0.00    +0.000 A 
ATOM      6  C   UNL     1      48.490   7.955  18.075  0.00  0.00    +0.000 A 
ATOM      7  C   UNL     1      48.653   6.940  17.121  0.00  0.00    +0.000 A 
BRANCH   5   8
ATOM      8  C   UNL     1      47.286   8.909  20.095  0.00  0.00    +0.000 C 
BRANCH   8   9
ATOM      9  N   UNL     1      48.254   9.538  20.982  0.00  0.00    +0.000 NA
ATOM     10  C   UNL     1      48.890  10.764  20.510  0.00  0.00    +0.000 C 
ATOM     11  C   UNL     1      50.337  10.602  20.002  0.00  0.00    +0.000 C 
ATOM     12  N   UNL     1      51.201   9.857  20.934  0.00  0.00    +0.000 NA
ATOM     13  C   UNL     1      50.582   8.545  21.194  0.00  0.00    +0.000 C 
ATOM     14  C   UNL     1      49.140   8.652  21.733  0.00  0.00    +0.000 C 
ATOM     15  H   UNL     1      51.222  10.370  21.817  0.00  0.00    +0.000 HD
ENDBRANCH   8   9
ENDBRANCH   5   8
ENDBRANCH   1   2
BRANCH   1  16
ATOM     16  N   UNL     1      47.103   4.988  15.146  0.00  0.00    +0.000 N 
ATOM     17  C   UNL     1      47.466   5.637  13.992  0.00  0.00    +0.000 C 
ATOM     18  O   UNL     1      48.632   5.884  13.702  0.00  0.00    +0.000 OA
ATOM     19  H   UNL     1      46.136   5.066  15.446  0.00  0.00    +0.000 HD
BRANCH  17  20
ATOM     20  C   UNL     1      46.375   5.987  13.075  0.00  0.00    +0.000 A 
ATOM     21  C   UNL     1      46.152   7.315  12.735  0.00  0.00    +0.000 A 
ATOM     22  S   UNL     1      44.829   7.533  11.680  0.00  0.00    +0.000 S 
ATOM     23  C   UNL     1      44.481   5.866  11.685  0.00  0.00    +0.000 A 
ATOM     24  N   UNL     1      43.409   5.371  11.011  0.00  0.00    +0.000 NA
ATOM     25  C   UNL     1      43.243   4.097  11.134  0.00  0.00    +0.000 A 
ATOM     26  N   UNL     1      44.072   3.267  11.846  0.00  0.00    +0.000 N 
ATOM     27  C   UNL     1      45.195   3.715  12.498  0.00  0.00    +0.000 A 
ATOM     28  O   UNL     1      45.968   2.941  13.051  0.00  0.00    +0.000 OA
ATOM     29  C   UNL     1      45.393   5.149  12.437  0.00  0.00    +0.000 A 
ATOM     30  H   UNL     1      43.910   2.271  11.876  0.00  0.00    +0.000 HD
ENDBRANCH  17  20
ENDBRANCH   1  16
BRANCH   1  32
ATOM     31  C   UNL     1      49.031   2.345  16.879  0.00  0.00    +0.000 C 
ATOM     32  C   UNL     1      47.784   3.208  16.741  0.00  0.00    +0.000 C 
ENDBRANCH   1  32
TORSDOF 6
ENDMDL
MODEL 6
REMARK VINA RESULT:    -6.494      3.130      8.720
REMARK INTER + INTRA:          -9.706
REMARK INTER:                  -8.587
REMARK INTRA:                  -1.119
REMARK UNBOUND:                -0.935
REMARK  Name = 
REMARK  7 active torsions:
REMARK  status: ('A' for Active; 'I' for Inactive)
REMARK    1  A    between atoms: C_1  and  C_2
REMARK    2  A    between atoms: C_2  and  C_3
REMARK    3  A    between atoms: C_3  and  N_4
REMARK    4  A    between atoms: C_3  and  C_17
REMARK    5  A    between atoms: C_5  and  C_7
REMARK    6  A    between atoms: C_20  and  C_21
REMARK    7  A    between atoms: C_21  and  N_22
REMARK                            x       y       z     vdW  Elec       q    Type
REMARK                         _______ _______ _______ _____ _____    ______ ____
ROOT
ATOM      1  C   UNL     1      47.964   4.470  16.426  0.00  0.00    +0.000 C 
ENDROOT
BRANCH   1   2
ATOM      2  C   UNL     1      48.672   5.484  17.321  0.00  0.00    +0.000 A 
ATOM      3  C   UNL     1      47.947   6.200  18.282  0.00  0.00    +0.000 A 
ATOM      4  C   UNL     1      48.546   7.234  19.015  0.00  0.00    +0.000 A 
ATOM      5  C   UNL     1      49.885   7.584  18.800  0.00  0.00    +0.000 A 
ATOM      6  C   UNL     1      50.640   6.801  17.914  0.00  0.00    +0.000 A 
ATOM      7  C   UNL     1      50.043   5.762  17.186  0.00  0.00    +0.000 A 
BRANCH   5   8
ATOM      8  C   UNL     1      50.441   8.875  19.364  0.00  0.00    +0.000 C 
BRANCH   8   9
ATOM      9  N   UNL     1      50.059  10.151  18.776  0.00  0.00    +0.000 NA
ATOM     10  C   UNL     1      48.955  10.869  19.406  0.00  0.00    +0.000 C 
ATOM     11  C   UNL     1      47.606  10.788  18.661  0.00  0.00    +0.000 C 
ATOM     12  N   UNL     1      47.715  11.094  17.224  0.00  0.00    +0.000 NA
ATOM     13  C   UNL     1      48.705  10.180  16.627  0.00  0.00    +0.000 C 
ATOM     14  C   UNL     1      50.083  10.244  17.318  0.00  0.00    +0.000 C 
ATOM     15  H   UNL     1      48.079  12.045  17.136  0.00  0.00    +0.000 HD
ENDBRANCH   8   9
ENDBRANCH   5   8
ENDBRANCH   1   2
BRANCH   1  16
ATOM     16  N   UNL     1      47.155   5.178  15.443  0.00  0.00    +0.000 N 
ATOM     17  C   UNL     1      46.967   4.724  14.161  0.00  0.00    +0.000 C 
ATOM     18  O   UNL     1      47.384   3.640  13.768  0.00  0.00    +0.000 OA
ATOM     19  H   UNL     1      47.033   6.172  15.613  0.00  0.00    +0.000 HD
BRANCH  17  20
ATOM     20  C   UNL     1      46.181   5.590  13.275  0.00  0.00    +0.000 A 
ATOM     21  C   UNL     1      46.618   6.879  12.996  0.00  0.00    +0.000 A 
ATOM     22  S   UNL     1      45.566   7.746  11.971  0.00  0.00    +0.000 S 
ATOM     23  C   UNL     1      44.470   6.446  11.907  0.00  0.00    +0.000 A 
ATOM     24  N   UNL     1      43.297   6.550  11.227  0.00  0.00    +0.000 NA
ATOM     25  C   UNL     1      42.545   5.504  11.296  0.00  0.00    +0.000 A 
ATOM     26  N   UNL     1      42.874   4.348  11.960  0.00  0.00    +0.000 N 
ATOM     27  C   UNL     1      44.069   4.180  12.615  0.00  0.00    +0.000 A 
ATOM     28  O   UNL     1      44.377   3.107  13.123  0.00  0.00    +0.000 OA
ATOM     29  C   UNL     1      44.925   5.349  12.614  0.00  0.00    +0.000 A 
ATOM     30  H   UNL     1      42.257   3.548  11.948  0.00  0.00    +0.000 HD
ENDBRANCH  17  20
ENDBRANCH   1  16
BRANCH   1  32
ATOM     31  C   UNL     1      47.933   2.542  18.137  0.00  0.00    +0.000 C 
ATOM     32  C   UNL     1      47.116   3.459  17.237  0.00  0.00    +0.000 C 
ENDBRANCH   1  32
TORSDOF 6
ENDMDL
MODEL 7
REMARK VINA RESULT:    -6.388      2.675      4.735
REMARK INTER + INTRA:          -9.564
REMARK INTER:                  -8.436
REMARK INTRA:                  -1.128
REMARK UNBOUND:                -0.935
REMARK  Name = 
REMARK  7 active torsions:
REMARK  status: ('A' for Active; 'I' for Inactive)
REMARK    1  A    between atoms: C_1  and  C_2
REMARK    2  A    between atoms: C_2  and  C_3
REMARK    3  A    between atoms: C_3  and  N_4
REMARK    4  A    between atoms: C_3  and  C_17
REMARK    5  A    between atoms: C_5  and  C_7
REMARK    6  A    between atoms: C_20  and  C_21
REMARK    7  A    between atoms: C_21  and  N_22
REMARK                            x       y       z     vdW  Elec       q    Type
REMARK                         _______ _______ _______ _____ _____    ______ ____
ROOT
ATOM      1  C   UNL     1      49.382   5.403  18.024  0.00  0.00    +0.000 C 
ENDROOT
BRANCH   1   2
ATOM      2  C   UNL     1      48.637   5.254  16.699  0.00  0.00    +0.000 A 
ATOM      3  C   UNL     1      48.768   6.234  15.705  0.00  0.00    +0.000 A 
ATOM      4  C   UNL     1      47.986   6.190  14.543  0.00  0.00    +0.000 A 
ATOM      5  C   UNL     1      47.046   5.170  14.347  0.00  0.00    +0.000 A 
ATOM      6  C   UNL     1      46.988   4.134  15.291  0.00  0.00    +0.000 A 
ATOM      7  C   UNL     1      47.775   4.173  16.451  0.00  0.00    +0.000 A 
BRANCH   5   8
ATOM      8  C   UNL     1      46.005   5.284  13.254  0.00  0.00    +0.000 C 
BRANCH   8   9
ATOM      9  N   UNL     1      44.914   4.323  13.183  0.00  0.00    +0.000 NA
ATOM     10  C   UNL     1      45.072   3.205  12.258  0.00  0.00    +0.000 C 
ATOM     11  C   UNL     1      44.277   3.321  10.941  0.00  0.00    +0.000 C 
ATOM     12  N   UNL     1      42.861   3.671  11.145  0.00  0.00    +0.000 NA
ATOM     13  C   UNL     1      42.798   4.927  11.914  0.00  0.00    +0.000 C 
ATOM     14  C   UNL     1      43.555   4.855  13.256  0.00  0.00    +0.000 C 
ATOM     15  H   UNL     1      42.439   2.937  11.717  0.00  0.00    +0.000 HD
ENDBRANCH   8   9
ENDBRANCH   5   8
ENDBRANCH   1   2
BRANCH   1  16
ATOM     16  N   UNL     1      49.012   6.669  18.644  0.00  0.00    +0.000 N 
ATOM     17  C   UNL     1      47.841   6.849  19.337  0.00  0.00    +0.000 C 
ATOM     18  O   UNL     1      47.056   5.936  19.572  0.00  0.00    +0.000 OA
ATOM     19  H   UNL     1      49.461   7.493  18.255  0.00  0.00    +0.000 HD
BRANCH  17  20
ATOM     20  C   UNL     1      47.588   8.203  19.841  0.00  0.00    +0.000 A 
ATOM     21  C   UNL     1      47.243   8.396  21.172  0.00  0.00    +0.000 A 
ATOM     22  S   UNL     1      46.962  10.030  21.571  0.00  0.00    +0.000 S 
ATOM     23  C   UNL     1      47.242  10.526  19.967  0.00  0.00    +0.000 A 
ATOM     24  N   UNL     1      47.106  11.828  19.602  0.00  0.00    +0.000 NA
ATOM     25  C   UNL     1      47.310  12.055  18.348  0.00  0.00    +0.000 A 
ATOM     26  N   UNL     1      47.669  11.100  17.430  0.00  0.00    +0.000 N 
ATOM     27  C   UNL     1      47.870   9.783  17.765  0.00  0.00    +0.000 A 
ATOM     28  O   UNL     1      48.277   8.968  16.945  0.00  0.00    +0.000 OA
ATOM     29  C   UNL     1      47.596   9.468  19.152  0.00  0.00    +0.000 A 
ATOM     30  H   UNL     1      47.850  11.345  16.467  0.00  0.00    +0.000 HD
ENDBRANCH  17  20
ENDBRANCH   1  16
BRANCH   1  32
ATOM     31  C   UNL     1      51.406   3.857  17.629  0.00  0.00    +0.000 C 
ATOM     32  C   UNL     1      50.917   5.281  17.854  0.00  0.00    +0.000 C 
ENDBRANCH   1  32
TORSDOF 6
ENDMDL
MODEL 8
REMARK VINA RESULT:    -6.336      3.546      9.105
REMARK INTER + INTRA:          -9.494
REMARK INTER:                  -8.375
REMARK INTRA:                  -1.119
REMARK UNBOUND:                -0.935
REMARK  Name = 
REMARK  7 active torsions:
REMARK  status: ('A' for Active; 'I' for Inactive)
REMARK    1  A    between atoms: C_1  and  C_2
REMARK    2  A    between atoms: C_2  and  C_3
REMARK    3  A    between atoms: C_3  and  N_4
REMARK    4  A    between atoms: C_3  and  C_17
REMARK    5  A    between atoms: C_5  and  C_7
REMARK    6  A    between atoms: C_20  and  C_21
REMARK    7  A    between atoms: C_21  and  N_22
REMARK                            x       y       z     vdW  Elec       q    Type
REMARK                         _______ _______ _______ _____ _____    ______ ____
ROOT
ATOM      1  C   UNL     1      48.033   4.542  16.308  0.00  0.00    +0.000 C 
ENDROOT
BRANCH   1   2
ATOM      2  C   UNL     1      48.166   5.618  17.382  0.00  0.00    +0.000 A 
ATOM      3  C   UNL     1      47.376   5.559  18.539  0.00  0.00    +0.000 A 
ATOM      4  C   UNL     1      47.380   6.608  19.469  0.00  0.00    +0.000 A 
ATOM      5  C   UNL     1      48.168   7.747  19.263  0.00  0.00    +0.000 A 
ATOM      6  C   UNL     1      49.035   7.762  18.161  0.00  0.00    +0.000 A 
ATOM      7  C   UNL     1      49.038   6.710  17.234  0.00  0.00    +0.000 A 
BRANCH   5   8
ATOM      8  C   UNL     1      47.949   8.993  20.097  0.00  0.00    +0.000 C 
BRANCH   8   9
ATOM      9  N   UNL     1      46.945   9.968  19.701  0.00  0.00    +0.000 NA
ATOM     10  C   UNL     1      47.343  10.972  18.719  0.00  0.00    +0.000 C 
ATOM     11  C   UNL     1      47.634  12.375  19.292  0.00  0.00    +0.000 C 
ATOM     12  N   UNL     1      46.574  12.869  20.187  0.00  0.00    +0.000 NA
ATOM     13  C   UNL     1      46.381  11.887  21.267  0.00  0.00    +0.000 C 
ATOM     14  C   UNL     1      46.058  10.470  20.748  0.00  0.00    +0.000 C 
ATOM     15  H   UNL     1      45.707  12.911  19.648  0.00  0.00    +0.000 HD
ENDBRANCH   8   9
ENDBRANCH   5   8
ENDBRANCH   1   2
BRANCH   1  16
ATOM     16  N   UNL     1      46.948   4.898  15.403  0.00  0.00    +0.000 N 
ATOM     17  C   UNL     1      46.819   4.367  14.144  0.00  0.00    +0.000 C 
ATOM     18  O   UNL     1      47.550   3.481  13.713  0.00  0.00    +0.000 OA
ATOM     19  H   UNL     1      46.504   5.793  15.584  0.00  0.00    +0.000 HD
BRANCH  17  20
ATOM     20  C   UNL     1      45.709   4.882  13.334  0.00  0.00    +0.000 A 
ATOM     21  C   UNL     1      44.676   4.036  12.953  0.00  0.00    +0.000 A 
ATOM     22  S   UNL     1      43.489   4.801  11.995  0.00  0.00    +0.000 S 
ATOM     23  C   UNL     1      44.344   6.273  12.017  0.00  0.00    +0.000 A 
ATOM     24  N   UNL     1      43.896   7.355  11.326  0.00  0.00    +0.000 NA
ATOM     25  C   UNL     1      44.664   8.390  11.399  0.00  0.00    +0.000 A 
ATOM     26  N   UNL     1      45.825   8.452  12.127  0.00  0.00    +0.000 N 
ATOM     27  C   UNL     1      46.288   7.402  12.882  0.00  0.00    +0.000 A 
ATOM     28  O   UNL     1      47.279   7.511  13.594  0.00  0.00    +0.000 OA
ATOM     29  C   UNL     1      45.490   6.196  12.786  0.00  0.00    +0.000 A 
ATOM     30  H   UNL     1      46.366   9.304  12.174  0.00  0.00    +0.000 HD
ENDBRANCH  17  20
ENDBRANCH   1  16
BRANCH   1  32
ATOM     31  C   UNL     1      49.114   2.326  17.061  0.00  0.00    +0.000 C 
ATOM     32  C   UNL     1      47.829   3.130  16.910  0.00  0.00    +0.000 C 
ENDBRANCH   1  32
TORSDOF 6
ENDMDL
MODEL 9
REMARK VINA RESULT:    -6.287      1.942      3.089
REMARK INTER + INTRA:          -9.427
REMARK INTER:                  -8.100
REMARK INTRA:                  -1.327
REMARK UNBOUND:                -0.935
REMARK  Name = 
REMARK  7 active torsions:
REMARK  status: ('A' for Active; 'I' for Inactive)
REMARK    1  A    between atoms: C_1  and  C_2
REMARK    2  A    between atoms: C_2  and  C_3
REMARK    3  A    between atoms: C_3  and  N_4
REMARK    4  A    between atoms: C_3  and  C_17
REMARK    5  A    between atoms: C_5  and  C_7
REMARK    6  A    between atoms: C_20  and  C_21
REMARK    7  A    between atoms: C_21  and  N_22
REMARK                            x       y       z     vdW  Elec       q    Type
REMARK                         _______ _______ _______ _____ _____    ______ ____
ROOT
ATOM      1  C   UNL     1      48.529   8.156  14.475  0.00  0.00    +0.000 C 
ENDROOT
BRANCH   1   2
ATOM      2  C   UNL     1      47.384   7.609  13.626  0.00  0.00    +0.000 A 
ATOM      3  C   UNL     1      47.437   6.297  13.137  0.00  0.00    +0.000 A 
ATOM      4  C   UNL     1      46.469   5.822  12.241  0.00  0.00    +0.000 A 
ATOM      5  C   UNL     1      45.426   6.650  11.805  0.00  0.00    +0.000 A 
ATOM      6  C   UNL     1      45.314   7.927  12.373  0.00  0.00    +0.000 A 
ATOM      7  C   UNL     1      46.277   8.400  13.275  0.00  0.00    +0.000 A 
BRANCH   5   8
ATOM      8  C   UNL     1      44.566   6.245  10.626  0.00  0.00    +0.000 C 
BRANCH   8   9
ATOM      9  N   UNL     1      43.637   5.132  10.750  0.00  0.00    +0.000 NA
ATOM     10  C   UNL     1      42.900   5.017  12.005  0.00  0.00    +0.000 C 
ATOM     11  C   UNL     1      43.415   3.934  12.975  0.00  0.00    +0.000 C 
ATOM     12  N   UNL     1      43.614   2.623  12.330  0.00  0.00    +0.000 NA
ATOM     13  C   UNL     1      44.536   2.798  11.195  0.00  0.00    +0.000 C 
ATOM     14  C   UNL     1      44.053   3.853  10.178  0.00  0.00    +0.000 C 
ATOM     15  H   UNL     1      42.713   2.322  11.954  0.00  0.00    +0.000 HD
ENDBRANCH   8   9
ENDBRANCH   5   8
ENDBRANCH   1   2
BRANCH   1  16
ATOM     16  N   UNL     1      48.420   7.625  15.828  0.00  0.00    +0.000 N 
ATOM     17  C   UNL     1      49.351   6.777  16.375  0.00  0.00    +0.000 C 
ATOM     18  O   UNL     1      50.395   6.473  15.808  0.00  0.00    +0.000 OA
ATOM     19  H   UNL     1      47.483   7.610  16.217  0.00  0.00    +0.000 HD
BRANCH  17  20
ATOM     20  C   UNL     1      49.059   6.278  17.724  0.00  0.00    +0.000 A 
ATOM     21  C   UNL     1      49.242   4.935  18.023  0.00  0.00    +0.000 A 
ATOM     22  S   UNL     1      48.828   4.533  19.628  0.00  0.00    +0.000 S 
ATOM     23  C   UNL     1      48.344   6.131  19.960  0.00  0.00    +0.000 A 
ATOM     24  N   UNL     1      47.821   6.469  21.169  0.00  0.00    +0.000 NA
ATOM     25  C   UNL     1      47.461   7.705  21.268  0.00  0.00    +0.000 A 
ATOM     26  N   UNL     1      47.605   8.642  20.276  0.00  0.00    +0.000 N 
ATOM     27  C   UNL     1      48.176   8.358  19.059  0.00  0.00    +0.000 A 
ATOM     28  O   UNL     1      48.376   9.233  18.224  0.00  0.00    +0.000 OA
ATOM     29  C   UNL     1      48.545   6.968  18.879  0.00  0.00    +0.000 A 
ATOM     30  H   UNL     1      47.336   9.604  20.426  0.00  0.00    +0.000 HD
ENDBRANCH  17  20
ENDBRANCH   1  16
BRANCH   1  32
ATOM     31  C   UNL     1      49.859  10.288  15.050  0.00  0.00    +0.000 C 
ATOM     32  C   UNL     1      48.575   9.704  14.476  0.00  0.00    +0.000 C 
ENDBRANCH   1  32
TORSDOF 6
ENDMDL
