MODEL 1
REMARK VINA RESULT:    -7.043      0.000      0.000
REMARK INTER + INTRA:          -9.082
REMARK INTER:                  -8.690
REMARK INTRA:                  -0.391
REMARK UNBOUND:                -0.391
REMARK  Name = 
REMARK  7 active torsions:
REMARK  status: ('A' for Active; 'I' for Inactive)
REMARK    1  A    between atoms: C_1  and  C_2
REMARK    2  A    between atoms: C_4  and  C_5
REMARK    3  A    between atoms: N_8  and  C_9
REMARK    4  A    between atoms: C_9  and  C_10
REMARK    5  A    between atoms: C_14  and  N_15
REMARK    6  A    between atoms: N_18  and  S_19
REMARK    7  A    between atoms: S_19  and  C_20
REMARK                            x       y       z     vdW  Elec       q    Type
REMARK                         _______ _______ _______ _____ _____    ______ ____
ROOT
ATOM      1  C   UNL     1      49.324   7.734  14.520  0.00  0.00    +0.000 A 
ATOM      2  C   UNL     1      50.055   8.358  13.520  0.00  0.00    +0.000 A 
ATOM      3  N   UNL     1      49.727   8.367  12.207  0.00  0.00    +0.000 NA
ATOM      4  C   UNL     1      48.599   7.696  11.871  0.00  0.00    +0.000 A 
ATOM      5  C   UNL     1      47.785   6.993  12.759  0.00  0.00    +0.000 A 
ATOM      6  C   UNL     1      48.185   7.028  14.090  0.00  0.00    +0.000 A 
ENDROOT
BRANCH   5   7
ATOM      7  N   UNL     1      46.682   6.248  12.398  0.00  0.00    +0.000 N 
ATOM      8  C   UNL     1      46.159   6.267  11.018  0.00  0.00    +0.000 C 
ATOM      9  C   UNL     1      44.621   6.258  11.036  0.00  0.00    +0.000 C 
ATOM     10  N   UNL     1      44.080   5.120  11.854  0.00  0.00    +0.000 NA
ATOM     11  C   UNL     1      44.620   5.199  13.253  0.00  0.00    +0.000 C 
ATOM     12  C   UNL     1      46.164   5.218  13.301  0.00  0.00    +0.000 C 
BRANCH  10  13
ATOM     13  S   UNL     1      44.139   3.599  11.102  0.00  0.00    +0.000 S 
ATOM     14  C   UNL     1      44.188   4.060   9.384  0.00  0.00    +0.000 C 
ATOM     15  O   UNL     1      45.412   2.992  11.424  0.00  0.00    +0.000 OA
ATOM     16  O   UNL     1      42.894   2.906  11.349  0.00  0.00    +0.000 OA
ENDBRANCH  10  13
ENDBRANCH   5   7
BRANCH   1  17
ATOM     17  C   UNL     1      49.649   7.828  15.996  0.00  0.00    +0.000 C 
ATOM     18  C   UNL     1      49.903   9.203  16.596  0.00  0.00    +0.000 C 
ATOM     19  C   UNL     1      48.600   8.524  16.850  0.00  0.00    +0.000 C 
BRANCH  17  27
ATOM     20  C   UNL     1      47.288   3.114  17.426  0.00  0.00    +0.000 C 
ATOM     21  C   UNL     1      48.681   3.663  17.365  0.00  0.00    +0.000 A 
ATOM     22  C   UNL     1      49.787   2.878  17.693  0.00  0.00    +0.000 A 
ATOM     23  C   UNL     1      51.052   3.435  17.601  0.00  0.00    +0.000 A 
ATOM     24  C   UNL     1      52.275   2.659  17.988  0.00  0.00    +0.000 C 
ATOM     25  N   UNL     1      51.259   4.706  17.181  0.00  0.00    +0.000 NA
ATOM     26  C   UNL     1      50.193   5.474  16.870  0.00  0.00    +0.000 A 
ATOM     27  N   UNL     1      50.518   6.776  16.504  0.00  0.00    +0.000 N 
ATOM     28  C   UNL     1      48.896   4.984  16.963  0.00  0.00    +0.000 A 
ATOM     29  H   UNL     1      51.525   6.838  16.397  0.00  0.00    +0.000 HD
ENDBRANCH  17  27
ENDBRANCH   1  17
TORSDOF 4
ENDMDL
MODEL 2
REMARK VINA RESULT:    -7.034      1.569      2.944
REMARK INTER + INTRA:          -9.071
REMARK INTER:                  -8.654
REMARK INTRA:                  -0.417
REMARK UNBOUND:                -0.391
REMARK  Name = 
REMARK  7 active torsions:
REMARK  status: ('A' for Active; 'I' for Inactive)
REMARK    1  A    between atoms: C_1  and  C_2
REMARK    2  A    between atoms: C_4  and  C_5
REMARK    3  A    between atoms: N_8  and  C_9
REMARK    4  A    between atoms: C_9  and  C_10
REMARK    5  A    between atoms: C_14  and  N_15
REMARK    6  A    between atoms: N_18  and  S_19
REMARK    7  A    between atoms: S_19  and  C_20
REMARK                            x       y       z     vdW  Elec       q    Type
REMARK                         _______ _______ _______ _____ _____    ______ ____
ROOT
ATOM      1  C   UNL     1      48.268   8.553  12.568  0.00  0.00    +0.000 A 
ATOM      2  C   UNL     1      47.657   9.789  12.410  0.00  0.00    +0.000 A 
ATOM      3  N   UNL     1      46.341   9.979  12.159  0.00  0.00    +0.000 NA
ATOM      4  C   UNL     1      45.588   8.858  12.045  0.00  0.00    +0.000 A 
ATOM      5  C   UNL     1      46.069   7.552  12.142  0.00  0.00    +0.000 A 
ATOM      6  C   UNL     1      47.430   7.436  12.400  0.00  0.00    +0.000 A 
ENDROOT
BRANCH   5   7
ATOM      7  N   UNL     1      45.312   6.416  11.948  0.00  0.00    +0.000 N 
ATOM      8  C   UNL     1      45.291   5.719  10.646  0.00  0.00    +0.000 C 
ATOM      9  C   UNL     1      43.867   5.228  10.334  0.00  0.00    +0.000 C 
ATOM     10  N   UNL     1      43.305   4.399  11.453  0.00  0.00    +0.000 NA
ATOM     11  C   UNL     1      43.318   5.193  12.728  0.00  0.00    +0.000 C 
ATOM     12  C   UNL     1      44.723   5.721  13.095  0.00  0.00    +0.000 C 
BRANCH  10  13
ATOM     13  S   UNL     1      43.897   2.811  11.542  0.00  0.00    +0.000 S 
ATOM     14  C   UNL     1      44.545   2.586   9.901  0.00  0.00    +0.000 C 
ATOM     15  O   UNL     1      45.019   2.804  12.456  0.00  0.00    +0.000 OA
ATOM     16  O   UNL     1      42.783   1.905  11.717  0.00  0.00    +0.000 OA
ENDBRANCH  10  13
ENDBRANCH   5   7
BRANCH   1  17
ATOM     17  C   UNL     1      49.720   8.366  12.955  0.00  0.00    +0.000 C 
ATOM     18  C   UNL     1      50.780   8.474  11.868  0.00  0.00    +0.000 C 
ATOM     19  C   UNL     1      50.593   9.605  12.822  0.00  0.00    +0.000 C 
BRANCH  17  27
ATOM     20  C   UNL     1      47.921   9.250  18.037  0.00  0.00    +0.000 C 
ATOM     21  C   UNL     1      48.611   8.143  17.300  0.00  0.00    +0.000 A 
ATOM     22  C   UNL     1      48.915   6.933  17.925  0.00  0.00    +0.000 A 
ATOM     23  C   UNL     1      49.539   5.940  17.188  0.00  0.00    +0.000 A 
ATOM     24  C   UNL     1      49.937   4.637  17.816  0.00  0.00    +0.000 C 
ATOM     25  N   UNL     1      49.844   6.089  15.877  0.00  0.00    +0.000 NA
ATOM     26  C   UNL     1      49.561   7.260  15.268  0.00  0.00    +0.000 A 
ATOM     27  N   UNL     1      49.966   7.322  13.940  0.00  0.00    +0.000 N 
ATOM     28  C   UNL     1      48.957   8.306  15.956  0.00  0.00    +0.000 A 
ATOM     29  H   UNL     1      50.263   6.396  13.650  0.00  0.00    +0.000 HD
ENDBRANCH  17  27
ENDBRANCH   1  17
TORSDOF 4
ENDMDL
MODEL 3
REMARK VINA RESULT:    -6.741      3.758      7.440
REMARK INTER + INTRA:          -8.709
REMARK INTER:                  -8.741
REMARK INTRA:                   0.033
REMARK UNBOUND:                -0.391
REMARK  Name = 
REMARK  7 active torsions:
REMARK  status: ('A' for Active; 'I' for Inactive)
REMARK    1  A    between atoms: C_1  and  C_2
REMARK    2  A    between atoms: C_4  and  C_5
REMARK    3  A    between atoms: N_8  and  C_9
REMARK    4  A    between atoms: C_9  and  C_10
REMARK    5  A    between atoms: C_14  and  N_15
REMARK    6  A    between atoms: N_18  and  S_19
REMARK    7  A    between atoms: S_19  and  C_20
REMARK                            x       y       z     vdW  Elec       q    Type
REMARK                         _______ _______ _______ _____ _____    ______ ____
ROOT
ATOM      1  C   UNL     1      47.220   9.802  12.274  0.00  0.00    +0.000 A 
ATOM      2  C   UNL     1      48.491   9.501  12.742  0.00  0.00    +0.000 A 
ATOM      3  N   UNL     1      48.968   8.252  12.949  0.00  0.00    +0.000 NA
ATOM      4  C   UNL     1      48.112   7.236  12.684  0.00  0.00    +0.000 A 
ATOM      5  C   UNL     1      46.797   7.385  12.245  0.00  0.00    +0.000 A 
ATOM      6  C   UNL     1      46.377   8.697  12.055  0.00  0.00    +0.000 A 
ENDROOT
BRANCH   5   7
ATOM      7  N   UNL     1      45.907   6.350  12.051  0.00  0.00    +0.000 N 
ATOM      8  C   UNL     1      45.739   5.716  10.729  0.00  0.00    +0.000 C 
ATOM      9  C   UNL     1      44.254   5.400  10.480  0.00  0.00    +0.000 C 
ATOM     10  N   UNL     1      43.661   4.592  11.597  0.00  0.00    +0.000 NA
ATOM     11  C   UNL     1      43.830   5.323  12.898  0.00  0.00    +0.000 C 
ATOM     12  C   UNL     1      45.303   5.676  13.203  0.00  0.00    +0.000 C 
BRANCH  10  13
ATOM     13  S   UNL     1      44.073   2.945  11.594  0.00  0.00    +0.000 S 
ATOM     14  C   UNL     1      44.659   2.734   9.927  0.00  0.00    +0.000 C 
ATOM     15  O   UNL     1      45.205   2.766  12.477  0.00  0.00    +0.000 OA
ATOM     16  O   UNL     1      42.869   2.160  11.753  0.00  0.00    +0.000 OA
ENDBRANCH  10  13
ENDBRANCH   5   7
BRANCH   1  17
ATOM     17  C   UNL     1      46.743  11.201  11.946  0.00  0.00    +0.000 C 
ATOM     18  C   UNL     1      47.635  12.376  12.321  0.00  0.00    +0.000 C 
ATOM     19  C   UNL     1      47.564  11.937  10.897  0.00  0.00    +0.000 C 
BRANCH  17  27
ATOM     20  C   UNL     1      43.514  10.871   7.553  0.00  0.00    +0.000 C 
ATOM     21  C   UNL     1      43.338  11.109   9.022  0.00  0.00    +0.000 A 
ATOM     22  C   UNL     1      42.072  11.274   9.585  0.00  0.00    +0.000 A 
ATOM     23  C   UNL     1      41.971  11.474  10.952  0.00  0.00    +0.000 A 
ATOM     24  C   UNL     1      40.644  11.708  11.609  0.00  0.00    +0.000 C 
ATOM     25  N   UNL     1      43.052  11.491  11.767  0.00  0.00    +0.000 NA
ATOM     26  C   UNL     1      44.281  11.342  11.228  0.00  0.00    +0.000 A 
ATOM     27  N   UNL     1      45.320  11.431  12.148  0.00  0.00    +0.000 N 
ATOM     28  C   UNL     1      44.455  11.160   9.861  0.00  0.00    +0.000 A 
ATOM     29  H   UNL     1      44.924  11.440  13.081  0.00  0.00    +0.000 HD
ENDBRANCH  17  27
ENDBRANCH   1  17
TORSDOF 4
ENDMDL
MODEL 4
REMARK VINA RESULT:    -6.603      1.333      1.494
REMARK INTER + INTRA:          -8.539
REMARK INTER:                  -8.002
REMARK INTRA:                  -0.537
REMARK UNBOUND:                -0.391
REMARK  Name = 
REMARK  7 active torsions:
REMARK  status: ('A' for Active; 'I' for Inactive)
REMARK    1  A    between atoms: C_1  and  C_2
REMARK    2  A    between atoms: C_4  and  C_5
REMARK    3  A    between atoms: N_8  and  C_9
REMARK    4  A    between atoms: C_9  and  C_10
REMARK    5  A    between atoms: C_14  and  N_15
REMARK    6  A    between atoms: N_18  and  S_19
REMARK    7  A    between atoms: S_19  and  C_20
REMARK                            x       y       z     vdW  Elec       q    Type
REMARK                         _______ _______ _______ _____ _____    ______ ____
ROOT
ATOM      1  C   UNL     1      49.339   8.084  15.035  0.00  0.00    +0.000 A 
ATOM      2  C   UNL     1      50.194   8.707  14.137  0.00  0.00    +0.000 A 
ATOM      3  N   UNL     1      49.940   8.893  12.821  0.00  0.00    +0.000 NA
ATOM      4  C   UNL     1      48.756   8.411  12.370  0.00  0.00    +0.000 A 
ATOM      5  C   UNL     1      47.815   7.733  13.144  0.00  0.00    +0.000 A 
ATOM      6  C   UNL     1      48.146   7.580  14.486  0.00  0.00    +0.000 A 
ENDROOT
BRANCH   5   7
ATOM      7  N   UNL     1      46.649   7.178  12.662  0.00  0.00    +0.000 N 
ATOM      8  C   UNL     1      46.558   5.741  12.335  0.00  0.00    +0.000 C 
ATOM      9  C   UNL     1      45.728   5.543  11.055  0.00  0.00    +0.000 C 
ATOM     10  N   UNL     1      44.385   6.209  11.152  0.00  0.00    +0.000 NA
ATOM     11  C   UNL     1      44.565   7.672  11.439  0.00  0.00    +0.000 C 
ATOM     12  C   UNL     1      45.398   7.938  12.713  0.00  0.00    +0.000 C 
BRANCH  10  13
ATOM     13  S   UNL     1      43.238   5.385  12.095  0.00  0.00    +0.000 S 
ATOM     14  C   UNL     1      43.429   3.719  11.502  0.00  0.00    +0.000 C 
ATOM     15  O   UNL     1      43.690   5.410  13.470  0.00  0.00    +0.000 OA
ATOM     16  O   UNL     1      41.917   5.847  11.733  0.00  0.00    +0.000 OA
ENDBRANCH  10  13
ENDBRANCH   5   7
BRANCH   1  17
ATOM     17  C   UNL     1      49.595   7.983  16.524  0.00  0.00    +0.000 C 
ATOM     18  C   UNL     1      49.740   9.271  17.323  0.00  0.00    +0.000 C 
ATOM     19  C   UNL     1      48.470   8.493  17.412  0.00  0.00    +0.000 C 
BRANCH  17  27
ATOM     20  C   UNL     1      47.429   3.036  17.346  0.00  0.00    +0.000 C 
ATOM     21  C   UNL     1      48.796   3.649  17.377  0.00  0.00    +0.000 A 
ATOM     22  C   UNL     1      49.931   2.879  17.634  0.00  0.00    +0.000 A 
ATOM     23  C   UNL     1      51.171   3.497  17.633  0.00  0.00    +0.000 A 
ATOM     24  C   UNL     1      52.422   2.735  17.951  0.00  0.00    +0.000 C 
ATOM     25  N   UNL     1      51.326   4.816  17.368  0.00  0.00    +0.000 NA
ATOM     26  C   UNL     1      50.232   5.569  17.127  0.00  0.00    +0.000 A 
ATOM     27  N   UNL     1      50.503   6.917  16.923  0.00  0.00    +0.000 N 
ATOM     28  C   UNL     1      48.957   5.016  17.137  0.00  0.00    +0.000 A 
ATOM     29  H   UNL     1      51.507   7.035  16.844  0.00  0.00    +0.000 HD
ENDBRANCH  17  27
ENDBRANCH   1  17
TORSDOF 4
ENDMDL
MODEL 5
REMARK VINA RESULT:    -6.494      1.305      2.038
REMARK INTER + INTRA:          -8.403
REMARK INTER:                  -7.988
REMARK INTRA:                  -0.415
REMARK UNBOUND:                -0.391
REMARK  Name = 
REMARK  7 active torsions:
REMARK  status: ('A' for Active; 'I' for Inactive)
REMARK    1  A    between atoms: C_1  and  C_2
REMARK    2  A    between atoms: C_4  and  C_5
REMARK    3  A    between atoms: N_8  and  C_9
REMARK    4  A    between atoms: C_9  and  C_10
REMARK    5  A    between atoms: C_14  and  N_15
REMARK    6  A    between atoms: N_18  and  S_19
REMARK    7  A    between atoms: S_19  and  C_20
REMARK                            x       y       z     vdW  Elec       q    Type
REMARK                         _______ _______ _______ _____ _____    ______ ____
ROOT
ATOM      1  C   UNL     1      49.091   6.540  15.799  0.00  0.00    +0.000 A 
ATOM      2  C   UNL     1      50.009   7.280  15.068  0.00  0.00    +0.000 A 
ATOM      3  N   UNL     1      49.887   7.597  13.759  0.00  0.00    +0.000 NA
ATOM      4  C   UNL     1      48.778   7.131  13.134  0.00  0.00    +0.000 A 
ATOM      5  C   UNL     1      47.790   6.346  13.728  0.00  0.00    +0.000 A 
ATOM      6  C   UNL     1      47.984   6.061  15.074  0.00  0.00    +0.000 A 
ENDROOT
BRANCH   5   7
ATOM      7  N   UNL     1      46.705   5.811  13.066  0.00  0.00    +0.000 N 
ATOM      8  C   UNL     1      46.521   5.997  11.613  0.00  0.00    +0.000 C 
ATOM      9  C   UNL     1      45.034   6.233  11.296  0.00  0.00    +0.000 C 
ATOM     10  N   UNL     1      44.163   5.150  11.864  0.00  0.00    +0.000 NA
ATOM     11  C   UNL     1      44.374   5.056  13.348  0.00  0.00    +0.000 C 
ATOM     12  C   UNL     1      45.852   4.824  13.733  0.00  0.00    +0.000 C 
BRANCH  10  13
ATOM     13  S   UNL     1      44.176   3.687  11.002  0.00  0.00    +0.000 S 
ATOM     14  C   UNL     1      44.206   4.272   9.322  0.00  0.00    +0.000 C 
ATOM     15  O   UNL     1      45.441   3.032  11.255  0.00  0.00    +0.000 OA
ATOM     16  O   UNL     1      42.921   3.004  11.222  0.00  0.00    +0.000 OA
ENDBRANCH  10  13
ENDBRANCH   5   7
BRANCH   1  17
ATOM     17  C   UNL     1      49.193   6.288  17.288  0.00  0.00    +0.000 C 
ATOM     18  C   UNL     1      48.233   7.021  18.214  0.00  0.00    +0.000 C 
ATOM     19  C   UNL     1      47.999   5.580  17.911  0.00  0.00    +0.000 C 
BRANCH  17  27
ATOM     20  C   UNL     1      51.372   1.280  17.362  0.00  0.00    +0.000 C 
ATOM     21  C   UNL     1      51.816   2.669  17.706  0.00  0.00    +0.000 A 
ATOM     22  C   UNL     1      53.115   2.929  18.143  0.00  0.00    +0.000 A 
ATOM     23  C   UNL     1      53.473   4.235  18.431  0.00  0.00    +0.000 A 
ATOM     24  C   UNL     1      54.838   4.573  18.953  0.00  0.00    +0.000 C 
ATOM     25  N   UNL     1      52.617   5.274  18.281  0.00  0.00    +0.000 NA
ATOM     26  C   UNL     1      51.356   5.030  17.867  0.00  0.00    +0.000 A 
ATOM     27  N   UNL     1      50.550   6.160  17.801  0.00  0.00    +0.000 N 
ATOM     28  C   UNL     1      50.925   3.739  17.584  0.00  0.00    +0.000 A 
ATOM     29  H   UNL     1      51.132   6.979  17.936  0.00  0.00    +0.000 HD
ENDBRANCH  17  27
ENDBRANCH   1  17
TORSDOF 4
ENDMDL
MODEL 6
REMARK VINA RESULT:    -6.389      4.417      8.336
REMARK INTER + INTRA:          -8.274
REMARK INTER:                  -7.958
REMARK INTRA:                  -0.316
REMARK UNBOUND:                -0.391
REMARK  Name = 
REMARK  7 active torsions:
REMARK  status: ('A' for Active; 'I' for Inactive)
REMARK    1  A    between atoms: C_1  and  C_2
REMARK    2  A    between atoms: C_4  and  C_5
REMARK    3  A    between atoms: N_8  and  C_9
REMARK    4  A    between atoms: C_9  and  C_10
REMARK    5  A    between atoms: C_14  and  N_15
REMARK    6  A    between atoms: N_18  and  S_19
REMARK    7  A    between atoms: S_19  and  C_20
REMARK                            x       y       z     vdW  Elec       q    Type
REMARK                         _______ _______ _______ _____ _____    ______ ____
ROOT
ATOM      1  C   UNL     1      45.614   4.290  12.001  0.00  0.00    +0.000 A 
ATOM      2  C   UNL     1      45.758   3.550  13.166  0.00  0.00    +0.000 A 
ATOM      3  N   UNL     1      46.480   3.933  14.245  0.00  0.00    +0.000 NA
ATOM      4  C   UNL     1      47.109   5.128  14.147  0.00  0.00    +0.000 A 
ATOM      5  C   UNL     1      47.086   5.961  13.029  0.00  0.00    +0.000 A 
ATOM      6  C   UNL     1      46.325   5.503  11.959  0.00  0.00    +0.000 A 
ENDROOT
BRANCH   5   7
ATOM      7  N   UNL     1      47.793   7.139  12.908  0.00  0.00    +0.000 N 
ATOM      8  C   UNL     1      47.515   8.296  13.782  0.00  0.00    +0.000 C 
ATOM      9  C   UNL     1      47.601   9.602  12.973  0.00  0.00    +0.000 C 
ATOM     10  N   UNL     1      48.907   9.719  12.240  0.00  0.00    +0.000 NA
ATOM     11  C   UNL     1      49.091   8.531  11.340  0.00  0.00    +0.000 C 
ATOM     12  C   UNL     1      49.010   7.185  12.094  0.00  0.00    +0.000 C 
BRANCH  10  13
ATOM     13  S   UNL     1      50.236  10.157  13.201  0.00  0.00    +0.000 S 
ATOM     14  C   UNL     1      51.364  10.779  11.974  0.00  0.00    +0.000 C 
ATOM     15  O   UNL     1      49.838  11.275  14.029  0.00  0.00    +0.000 OA
ATOM     16  O   UNL     1      50.809   8.963  13.780  0.00  0.00    +0.000 OA
ENDBRANCH  10  13
ENDBRANCH   5   7
BRANCH   1  17
ATOM     17  C   UNL     1      44.715   3.894  10.848  0.00  0.00    +0.000 C 
ATOM     18  C   UNL     1      43.226   4.194  10.954  0.00  0.00    +0.000 C 
ATOM     19  C   UNL     1      44.085   5.053  10.088  0.00  0.00    +0.000 C 
BRANCH  17  27
ATOM     20  C   UNL     1      46.976   4.023   5.877  0.00  0.00    +0.000 C 
ATOM     21  C   UNL     1      46.596   2.974   6.877  0.00  0.00    +0.000 A 
ATOM     22  C   UNL     1      46.854   1.622   6.645  0.00  0.00    +0.000 A 
ATOM     23  C   UNL     1      46.496   0.700   7.614  0.00  0.00    +0.000 A 
ATOM     24  C   UNL     1      46.701  -0.771   7.403  0.00  0.00    +0.000 C 
ATOM     25  N   UNL     1      45.927   1.061   8.789  0.00  0.00    +0.000 NA
ATOM     26  C   UNL     1      45.666   2.365   9.017  0.00  0.00    +0.000 A 
ATOM     27  N   UNL     1      45.032   2.616  10.228  0.00  0.00    +0.000 N 
ATOM     28  C   UNL     1      45.979   3.340   8.076  0.00  0.00    +0.000 A 
ATOM     29  H   UNL     1      45.032   1.761  10.774  0.00  0.00    +0.000 HD
ENDBRANCH  17  27
ENDBRANCH   1  17
TORSDOF 4
ENDMDL
MODEL 7
REMARK VINA RESULT:    -6.282      4.030      8.271
REMARK INTER + INTRA:          -8.142
REMARK INTER:                  -8.167
REMARK INTRA:                   0.025
REMARK UNBOUND:                -0.391
REMARK  Name = 
REMARK  7 active torsions:
REMARK  status: ('A' for Active; 'I' for Inactive)
REMARK    1  A    between atoms: C_1  and  C_2
REMARK    2  A    between atoms: C_4  and  C_5
REMARK    3  A    between atoms: N_8  and  C_9
REMARK    4  A    between atoms: C_9  and  C_10
REMARK    5  A    between atoms: C_14  and  N_15
REMARK    6  A    between atoms: N_18  and  S_19
REMARK    7  A    between atoms: S_19  and  C_20
REMARK                            x       y       z     vdW  Elec       q    Type
REMARK                         _______ _______ _______ _____ _____    ______ ____
ROOT
ATOM      1  C   UNL     1      45.971   5.660  12.445  0.00  0.00    +0.000 A 
ATOM      2  C   UNL     1      45.631   4.422  12.970  0.00  0.00    +0.000 A 
ATOM      3  N   UNL     1      46.146   3.889  14.102  0.00  0.00    +0.000 NA
ATOM      4  C   UNL     1      47.074   4.638  14.744  0.00  0.00    +0.000 A 
ATOM      5  C   UNL     1      47.541   5.881  14.317  0.00  0.00    +0.000 A 
ATOM      6  C   UNL     1      46.966   6.364  13.147  0.00  0.00    +0.000 A 
ENDROOT
BRANCH   5   7
ATOM      7  N   UNL     1      48.541   6.602  14.934  0.00  0.00    +0.000 N 
ATOM      8  C   UNL     1      49.136   7.794  14.297  0.00  0.00    +0.000 C 
ATOM      9  C   UNL     1      50.653   7.826  14.550  0.00  0.00    +0.000 C 
ATOM     10  N   UNL     1      50.978   7.718  16.012  0.00  0.00    +0.000 NA
ATOM     11  C   UNL     1      50.379   6.460  16.573  0.00  0.00    +0.000 C 
ATOM     12  C   UNL     1      48.854   6.365  16.346  0.00  0.00    +0.000 C 
BRANCH  10  13
ATOM     13  S   UNL     1      50.739   9.138  16.911  0.00  0.00    +0.000 S 
ATOM     14  C   UNL     1      52.085   9.050  18.070  0.00  0.00    +0.000 C 
ATOM     15  O   UNL     1      50.992  10.265  16.039  0.00  0.00    +0.000 OA
ATOM     16  O   UNL     1      49.498   9.024  17.646  0.00  0.00    +0.000 OA
ENDBRANCH  10  13
ENDBRANCH   5   7
BRANCH   1  17
ATOM     17  C   UNL     1      45.304   6.285  11.238  0.00  0.00    +0.000 C 
ATOM     18  C   UNL     1      43.789   6.432  11.242  0.00  0.00    +0.000 C 
ATOM     19  C   UNL     1      44.641   7.632  11.487  0.00  0.00    +0.000 C 
BRANCH  17  27
ATOM     20  C   UNL     1      44.094   1.303   9.355  0.00  0.00    +0.000 C 
ATOM     21  C   UNL     1      44.867   2.493   8.875  0.00  0.00    +0.000 A 
ATOM     22  C   UNL     1      45.471   2.509   7.617  0.00  0.00    +0.000 A 
ATOM     23  C   UNL     1      46.159   3.644   7.222  0.00  0.00    +0.000 A 
ATOM     24  C   UNL     1      46.872   3.704   5.903  0.00  0.00    +0.000 C 
ATOM     25  N   UNL     1      46.247   4.750   7.998  0.00  0.00    +0.000 NA
ATOM     26  C   UNL     1      45.673   4.739   9.220  0.00  0.00    +0.000 A 
ATOM     27  N   UNL     1      45.872   5.904   9.952  0.00  0.00    +0.000 N 
ATOM     28  C   UNL     1      44.988   3.623   9.688  0.00  0.00    +0.000 A 
ATOM     29  H   UNL     1      46.290   6.599   9.344  0.00  0.00    +0.000 HD
ENDBRANCH  17  27
ENDBRANCH   1  17
TORSDOF 4
ENDMDL
MODEL 8
REMARK VINA RESULT:    -5.790      3.505      7.385
REMARK INTER + INTRA:          -7.536
REMARK INTER:                  -7.419
REMARK INTRA:                  -0.117
REMARK UNBOUND:                -0.391
REMARK  Name = 
REMARK  7 active torsions:
REMARK  status: ('A' for Active; 'I' for Inactive)
REMARK    1  A    between atoms: C_1  and  C_2
REMARK    2  A    between atoms: C_4  and  C_5
REMARK    3  A    between atoms: N_8  and  C_9
REMARK    4  A    between atoms: C_9  and  C_10
REMARK    5  A    between atoms: C_14  and  N_15
REMARK    6  A    between atoms: N_18  and  S_19
REMARK    7  A    between atoms: S_19  and  C_20
REMARK                            x       y       z     vdW  Elec       q    Type
REMARK                         _______ _______ _______ _____ _____    ______ ____
ROOT
ATOM      1  C   UNL     1      47.235   7.831  12.684  0.00  0.00    +0.000 A 
ATOM      2  C   UNL     1      48.265   8.156  11.814  0.00  0.00    +0.000 A 
ATOM      3  N   UNL     1      49.583   7.983  12.070  0.00  0.00    +0.000 NA
ATOM      4  C   UNL     1      49.891   7.461  13.282  0.00  0.00    +0.000 A 
ATOM      5  C   UNL     1      48.967   7.121  14.270  0.00  0.00    +0.000 A 
ATOM      6  C   UNL     1      47.634   7.327  13.936  0.00  0.00    +0.000 A 
ENDROOT
BRANCH   5   7
ATOM      7  N   UNL     1      49.292   6.664  15.530  0.00  0.00    +0.000 N 
ATOM      8  C   UNL     1      48.437   5.692  16.240  0.00  0.00    +0.000 C 
ATOM      9  C   UNL     1      48.363   6.047  17.735  0.00  0.00    +0.000 C 
ATOM     10  N   UNL     1      49.729   6.183  18.344  0.00  0.00    +0.000 NA
ATOM     11  C   UNL     1      50.517   7.221  17.597  0.00  0.00    +0.000 C 
ATOM     12  C   UNL     1      50.623   6.923  16.084  0.00  0.00    +0.000 C 
BRANCH  10  13
ATOM     13  S   UNL     1      50.522   4.718  18.671  0.00  0.00    +0.000 S 
ATOM     14  C   UNL     1      52.004   4.898  17.703  0.00  0.00    +0.000 C 
ATOM     15  O   UNL     1      50.911   4.723  20.064  0.00  0.00    +0.000 OA
ATOM     16  O   UNL     1      49.746   3.632  18.114  0.00  0.00    +0.000 OA
ENDBRANCH  10  13
ENDBRANCH   5   7
BRANCH   1  17
ATOM     17  C   UNL     1      45.765   7.931  12.337  0.00  0.00    +0.000 C 
ATOM     18  C   UNL     1      44.999   9.170  12.780  0.00  0.00    +0.000 C 
ATOM     19  C   UNL     1      45.404   9.033  11.351  0.00  0.00    +0.000 C 
BRANCH  17  27
ATOM     20  C   UNL     1      46.011   4.493   8.100  0.00  0.00    +0.000 C 
ATOM     21  C   UNL     1      45.381   4.507   9.459  0.00  0.00    +0.000 A 
ATOM     22  C   UNL     1      44.661   3.412   9.938  0.00  0.00    +0.000 A 
ATOM     23  C   UNL     1      44.115   3.476  11.209  0.00  0.00    +0.000 A 
ATOM     24  C   UNL     1      43.289   2.353  11.761  0.00  0.00    +0.000 C 
ATOM     25  N   UNL     1      44.275   4.552  12.016  0.00  0.00    +0.000 NA
ATOM     26  C   UNL     1      44.963   5.619  11.557  0.00  0.00    +0.000 A 
ATOM     27  N   UNL     1      45.017   6.686  12.446  0.00  0.00    +0.000 N 
ATOM     28  C   UNL     1      45.516   5.629  10.281  0.00  0.00    +0.000 A 
ATOM     29  H   UNL     1      44.649   6.380  13.340  0.00  0.00    +0.000 HD
ENDBRANCH  17  27
ENDBRANCH   1  17
TORSDOF 4
ENDMDL
MODEL 9
REMARK VINA RESULT:    -5.783      2.531      4.360
REMARK INTER + INTRA:          -7.527
REMARK INTER:                  -7.205
REMARK INTRA:                  -0.322
REMARK UNBOUND:                -0.391
REMARK  Name = 
REMARK  7 active torsions:
REMARK  status: ('A' for Active; 'I' for Inactive)
REMARK    1  A    between atoms: C_1  and  C_2
REMARK    2  A    between atoms: C_4  and  C_5
REMARK    3  A    between atoms: N_8  and  C_9
REMARK    4  A    between atoms: C_9  and  C_10
REMARK    5  A    between atoms: C_14  and  N_15
REMARK    6  A    between atoms: N_18  and  S_19
REMARK    7  A    between atoms: S_19  and  C_20
REMARK                            x       y       z     vdW  Elec       q    Type
REMARK                         _______ _______ _______ _____ _____    ______ ____
ROOT
ATOM      1  C   UNL     1      49.065   5.980  16.393  0.00  0.00    +0.000 A 
ATOM      2  C   UNL     1      49.879   6.933  15.798  0.00  0.00    +0.000 A 
ATOM      3  N   UNL     1      49.697   7.448  14.559  0.00  0.00    +0.000 NA
ATOM      4  C   UNL     1      48.637   6.967  13.865  0.00  0.00    +0.000 A 
ATOM      5  C   UNL     1      47.756   5.986  14.318  0.00  0.00    +0.000 A 
ATOM      6  C   UNL     1      48.007   5.504  15.598  0.00  0.00    +0.000 A 
ENDROOT
BRANCH   5   7
ATOM      7  N   UNL     1      46.727   5.446  13.576  0.00  0.00    +0.000 N 
ATOM      8  C   UNL     1      46.445   3.997  13.590  0.00  0.00    +0.000 C 
ATOM      9  C   UNL     1      46.066   3.520  12.177  0.00  0.00    +0.000 C 
ATOM     10  N   UNL     1      44.942   4.331  11.598  0.00  0.00    +0.000 NA
ATOM     11  C   UNL     1      45.324   5.783  11.575  0.00  0.00    +0.000 C 
ATOM     12  C   UNL     1      45.723   6.322  12.967  0.00  0.00    +0.000 C 
BRANCH  10  13
ATOM     13  S   UNL     1      43.399   3.960  12.202  0.00  0.00    +0.000 S 
ATOM     14  C   UNL     1      42.488   5.421  11.754  0.00  0.00    +0.000 C 
ATOM     15  O   UNL     1      42.868   2.862  11.424  0.00  0.00    +0.000 OA
ATOM     16  O   UNL     1      43.466   3.892  13.645  0.00  0.00    +0.000 OA
ENDBRANCH  10  13
ENDBRANCH   5   7
BRANCH   1  17
ATOM     17  C   UNL     1      49.223   5.498  17.819  0.00  0.00    +0.000 C 
ATOM     18  C   UNL     1      49.361   4.002  18.067  0.00  0.00    +0.000 C 
ATOM     19  C   UNL     1      50.571   4.872  18.148  0.00  0.00    +0.000 C 
BRANCH  17  27
ATOM     20  C   UNL     1      51.258  10.132  19.873  0.00  0.00    +0.000 C 
ATOM     21  C   UNL     1      49.995   9.339  20.011  0.00  0.00    +0.000 A 
ATOM     22  C   UNL     1      48.943   9.783  20.813  0.00  0.00    +0.000 A 
ATOM     23  C   UNL     1      47.792   9.015  20.889  0.00  0.00    +0.000 A 
ATOM     24  C   UNL     1      46.647   9.412  21.772  0.00  0.00    +0.000 C 
ATOM     25  N   UNL     1      47.640   7.862  20.195  0.00  0.00    +0.000 NA
ATOM     26  C   UNL     1      48.657   7.421  19.424  0.00  0.00    +0.000 A 
ATOM     27  N   UNL     1      48.413   6.202  18.803  0.00  0.00    +0.000 N 
ATOM     28  C   UNL     1      49.848   8.132  19.323  0.00  0.00    +0.000 A 
ATOM     29  H   UNL     1      47.437   5.961  18.939  0.00  0.00    +0.000 HD
ENDBRANCH  17  27
ENDBRANCH   1  17
TORSDOF 4
ENDMDL
