MODEL 1
REMARK VINA RESULT:    -7.578      0.000      0.000
REMARK INTER + INTRA:          -9.449
REMARK INTER:                  -8.907
REMARK INTRA:                  -0.542
REMARK UNBOUND:                -0.542
REMARK  Name = 
REMARK  3 active torsions:
REMARK  status: ('A' for Active; 'I' for Inactive)
REMARK    1  A    between atoms: C_4  and  N_5
REMARK    2  A    between atoms: N_5  and  C_6
REMARK    3  A    between atoms: C_6  and  C_7
REMARK                            x       y       z     vdW  Elec       q    Type
REMARK                         _______ _______ _______ _____ _____    ______ ____
ROOT
ATOM      1  C   UNL     1      44.773   4.645  11.307  0.00  0.00    +0.000 A 
ATOM      2  C   UNL     1      45.273   3.666  12.159  0.00  0.00    +0.000 A 
ATOM      3  C   UNL     1      46.108   4.072  13.186  0.00  0.00    +0.000 A 
ATOM      4  N   UNL     1      46.459   5.359  13.421  0.00  0.00    +0.000 NA
ATOM      5  C   UNL     1      45.948   6.325  12.625  0.00  0.00    +0.000 A 
ATOM      6  N   UNL     1      46.375   7.627  12.788  0.00  0.00    +0.000 N 
ATOM      7  C   UNL     1      45.509   8.776  12.507  0.00  0.00    +0.000 C 
ATOM      8  C   UNL     1      46.381   9.899  11.924  0.00  0.00    +0.000 C 
ATOM      9  O   UNL     1      47.457  10.249  12.812  0.00  0.00    +0.000 OA
ATOM     10  C   UNL     1      48.281   9.097  13.091  0.00  0.00    +0.000 C 
ATOM     11  C   UNL     1      47.468   7.945  13.713  0.00  0.00    +0.000 C 
ATOM     12  C   UNL     1      45.100   5.982  11.576  0.00  0.00    +0.000 A 
ENDROOT
BRANCH   1  13
ATOM     13  C   UNL     1      43.973   4.314  10.072  0.00  0.00    +0.000 C 
BRANCH  13  14
ATOM     14  N   UNL     1      44.746   4.543   8.863  0.00  0.00    +0.000 N 
ATOM     15  H   UNL     1      44.237   5.049   8.143  0.00  0.00    +0.000 HD
BRANCH  14  19
ATOM     16  C   UNL     1      47.178   1.505   7.214  0.00  0.00    +0.000 A 
ATOM     17  C   UNL     1      46.208   1.165   8.152  0.00  0.00    +0.000 A 
ATOM     18  C   UNL     1      45.391   2.159   8.707  0.00  0.00    +0.000 A 
ATOM     19  C   UNL     1      45.503   3.498   8.315  0.00  0.00    +0.000 A 
ATOM     20  C   UNL     1      46.505   3.820   7.386  0.00  0.00    +0.000 A 
ATOM     21  C   UNL     1      47.335   2.834   6.836  0.00  0.00    +0.000 A 
ENDBRANCH  14  19
ENDBRANCH  13  14
ENDBRANCH   1  13
TORSDOF 3
ENDMDL
MODEL 2
REMARK VINA RESULT:    -7.449      1.094      1.193
REMARK INTER + INTRA:          -9.297
REMARK INTER:                  -8.740
REMARK INTRA:                  -0.557
REMARK UNBOUND:                -0.542
REMARK  Name = 
REMARK  3 active torsions:
REMARK  status: ('A' for Active; 'I' for Inactive)
REMARK    1  A    between atoms: C_4  and  N_5
REMARK    2  A    between atoms: N_5  and  C_6
REMARK    3  A    between atoms: C_6  and  C_7
REMARK                            x       y       z     vdW  Elec       q    Type
REMARK                         _______ _______ _______ _____ _____    ______ ____
ROOT
ATOM      1  C   UNL     1      44.975   4.538  10.957  0.00  0.00    +0.000 A 
ATOM      2  C   UNL     1      44.998   3.463  11.838  0.00  0.00    +0.000 A 
ATOM      3  C   UNL     1      45.788   3.574  12.970  0.00  0.00    +0.000 A 
ATOM      4  N   UNL     1      46.530   4.664  13.278  0.00  0.00    +0.000 NA
ATOM      5  C   UNL     1      46.485   5.732  12.451  0.00  0.00    +0.000 A 
ATOM      6  N   UNL     1      47.311   6.810  12.698  0.00  0.00    +0.000 N 
ATOM      7  C   UNL     1      46.937   8.182  12.342  0.00  0.00    +0.000 C 
ATOM      8  C   UNL     1      48.207   8.924  11.898  0.00  0.00    +0.000 C 
ATOM      9  O   UNL     1      49.220   8.897  12.920  0.00  0.00    +0.000 OA
ATOM     10  C   UNL     1      49.555   7.537  13.268  0.00  0.00    +0.000 C 
ATOM     11  C   UNL     1      48.325   6.748  13.756  0.00  0.00    +0.000 C 
ATOM     12  C   UNL     1      45.708   5.684  11.298  0.00  0.00    +0.000 A 
ENDROOT
BRANCH   1  13
ATOM     13  C   UNL     1      44.269   4.481   9.626  0.00  0.00    +0.000 C 
BRANCH  13  14
ATOM     14  N   UNL     1      44.259   3.131   9.089  0.00  0.00    +0.000 N 
ATOM     15  H   UNL     1      43.999   2.423   9.770  0.00  0.00    +0.000 HD
BRANCH  14  19
ATOM     16  C   UNL     1      47.538   1.991   6.678  0.00  0.00    +0.000 A 
ATOM     17  C   UNL     1      46.962   1.054   7.529  0.00  0.00    +0.000 A 
ATOM     18  C   UNL     1      45.873   1.413   8.334  0.00  0.00    +0.000 A 
ATOM     19  C   UNL     1      45.320   2.698   8.281  0.00  0.00    +0.000 A 
ATOM     20  C   UNL     1      45.933   3.633   7.433  0.00  0.00    +0.000 A 
ATOM     21  C   UNL     1      47.031   3.286   6.635  0.00  0.00    +0.000 A 
ENDBRANCH  14  19
ENDBRANCH  13  14
ENDBRANCH   1  13
TORSDOF 3
ENDMDL
MODEL 3
REMARK VINA RESULT:    -7.060      2.782      3.960
REMARK INTER + INTRA:          -8.840
REMARK INTER:                  -8.384
REMARK INTRA:                  -0.456
REMARK UNBOUND:                -0.542
REMARK  Name = 
REMARK  3 active torsions:
REMARK  status: ('A' for Active; 'I' for Inactive)
REMARK    1  A    between atoms: C_4  and  N_5
REMARK    2  A    between atoms: N_5  and  C_6
REMARK    3  A    between atoms: C_6  and  C_7
REMARK                            x       y       z     vdW  Elec       q    Type
REMARK                         _______ _______ _______ _____ _____    ______ ____
ROOT
ATOM      1  C   UNL     1      45.748   5.368  12.330  0.00  0.00    +0.000 A 
ATOM      2  C   UNL     1      46.457   6.405  11.734  0.00  0.00    +0.000 A 
ATOM      3  C   UNL     1      47.549   6.913  12.417  0.00  0.00    +0.000 A 
ATOM      4  N   UNL     1      47.976   6.459  13.619  0.00  0.00    +0.000 NA
ATOM      5  C   UNL     1      47.320   5.425  14.191  0.00  0.00    +0.000 A 
ATOM      6  N   UNL     1      47.680   5.018  15.460  0.00  0.00    +0.000 N 
ATOM      7  C   UNL     1      47.552   3.626  15.902  0.00  0.00    +0.000 C 
ATOM      8  C   UNL     1      47.156   3.632  17.387  0.00  0.00    +0.000 C 
ATOM      9  O   UNL     1      48.108   4.358  18.185  0.00  0.00    +0.000 OA
ATOM     10  C   UNL     1      48.232   5.717  17.717  0.00  0.00    +0.000 C 
ATOM     11  C   UNL     1      48.663   5.779  16.238  0.00  0.00    +0.000 C 
ATOM     12  C   UNL     1      46.215   4.868  13.554  0.00  0.00    +0.000 A 
ENDROOT
BRANCH   1  13
ATOM     13  C   UNL     1      44.461   4.830  11.755  0.00  0.00    +0.000 C 
BRANCH  13  14
ATOM     14  N   UNL     1      44.391   5.046  10.320  0.00  0.00    +0.000 N 
ATOM     15  H   UNL     1      43.454   5.250   9.983  0.00  0.00    +0.000 HD
BRANCH  14  19
ATOM     16  C   UNL     1      46.280   2.309   7.710  0.00  0.00    +0.000 A 
ATOM     17  C   UNL     1      46.468   3.674   7.516  0.00  0.00    +0.000 A 
ATOM     18  C   UNL     1      45.851   4.596   8.373  0.00  0.00    +0.000 A 
ATOM     19  C   UNL     1      45.067   4.175   9.454  0.00  0.00    +0.000 A 
ATOM     20  C   UNL     1      44.873   2.794   9.615  0.00  0.00    +0.000 A 
ATOM     21  C   UNL     1      45.475   1.866   8.754  0.00  0.00    +0.000 A 
ENDBRANCH  14  19
ENDBRANCH  13  14
ENDBRANCH   1  13
TORSDOF 3
ENDMDL
MODEL 4
REMARK VINA RESULT:    -6.071      3.688      7.089
REMARK INTER + INTRA:          -7.678
REMARK INTER:                  -7.193
REMARK INTRA:                  -0.485
REMARK UNBOUND:                -0.542
REMARK  Name = 
REMARK  3 active torsions:
REMARK  status: ('A' for Active; 'I' for Inactive)
REMARK    1  A    between atoms: C_4  and  N_5
REMARK    2  A    between atoms: N_5  and  C_6
REMARK    3  A    between atoms: C_6  and  C_7
REMARK                            x       y       z     vdW  Elec       q    Type
REMARK                         _______ _______ _______ _____ _____    ______ ____
ROOT
ATOM      1  C   UNL     1      47.761   6.622  13.758  0.00  0.00    +0.000 A 
ATOM      2  C   UNL     1      48.315   7.387  12.738  0.00  0.00    +0.000 A 
ATOM      3  C   UNL     1      47.740   7.298  11.482  0.00  0.00    +0.000 A 
ATOM      4  N   UNL     1      46.669   6.524  11.186  0.00  0.00    +0.000 NA
ATOM      5  C   UNL     1      46.095   5.807  12.178  0.00  0.00    +0.000 A 
ATOM      6  N   UNL     1      45.067   4.937  11.872  0.00  0.00    +0.000 N 
ATOM      7  C   UNL     1      43.992   4.632  12.821  0.00  0.00    +0.000 C 
ATOM      8  C   UNL     1      43.601   3.157  12.639  0.00  0.00    +0.000 C 
ATOM      9  O   UNL     1      43.210   2.876  11.283  0.00  0.00    +0.000 OA
ATOM     10  C   UNL     1      44.276   3.206  10.368  0.00  0.00    +0.000 C 
ATOM     11  C   UNL     1      44.691   4.686  10.478  0.00  0.00    +0.000 C 
ATOM     12  C   UNL     1      46.625   5.855  13.464  0.00  0.00    +0.000 A 
ENDROOT
BRANCH   1  13
ATOM     13  C   UNL     1      48.384   6.525  15.129  0.00  0.00    +0.000 C 
BRANCH  13  14
ATOM     14  N   UNL     1      47.717   5.524  15.944  0.00  0.00    +0.000 N 
ATOM     15  H   UNL     1      47.073   5.916  16.626  0.00  0.00    +0.000 HD
BRANCH  14  19
ATOM     16  C   UNL     1      49.937   2.248  17.431  0.00  0.00    +0.000 A 
ATOM     17  C   UNL     1      50.320   3.541  17.774  0.00  0.00    +0.000 A 
ATOM     18  C   UNL     1      49.594   4.639  17.292  0.00  0.00    +0.000 A 
ATOM     19  C   UNL     1      48.460   4.468  16.491  0.00  0.00    +0.000 A 
ATOM     20  C   UNL     1      48.108   3.155  16.137  0.00  0.00    +0.000 A 
ATOM     21  C   UNL     1      48.836   2.053  16.603  0.00  0.00    +0.000 A 
ENDBRANCH  14  19
ENDBRANCH  13  14
ENDBRANCH   1  13
TORSDOF 3
ENDMDL
MODEL 5
REMARK VINA RESULT:    -5.772      4.138      7.875
REMARK INTER + INTRA:          -7.327
REMARK INTER:                  -7.007
REMARK INTRA:                  -0.320
REMARK UNBOUND:                -0.542
REMARK  Name = 
REMARK  3 active torsions:
REMARK  status: ('A' for Active; 'I' for Inactive)
REMARK    1  A    between atoms: C_4  and  N_5
REMARK    2  A    between atoms: N_5  and  C_6
REMARK    3  A    between atoms: C_6  and  C_7
REMARK                            x       y       z     vdW  Elec       q    Type
REMARK                         _______ _______ _______ _____ _____    ______ ____
ROOT
ATOM      1  C   UNL     1      47.787   6.308  13.901  0.00  0.00    +0.000 A 
ATOM      2  C   UNL     1      48.297   7.205  12.968  0.00  0.00    +0.000 A 
ATOM      3  C   UNL     1      47.676   7.272  11.732  0.00  0.00    +0.000 A 
ATOM      4  N   UNL     1      46.600   6.529  11.379  0.00  0.00    +0.000 NA
ATOM      5  C   UNL     1      46.070   5.682  12.289  0.00  0.00    +0.000 A 
ATOM      6  N   UNL     1      45.038   4.847  11.912  0.00  0.00    +0.000 N 
ATOM      7  C   UNL     1      44.001   4.408  12.851  0.00  0.00    +0.000 C 
ATOM      8  C   UNL     1      43.616   2.964  12.495  0.00  0.00    +0.000 C 
ATOM      9  O   UNL     1      43.176   2.855  11.129  0.00  0.00    +0.000 OA
ATOM     10  C   UNL     1      44.204   3.313  10.226  0.00  0.00    +0.000 C 
ATOM     11  C   UNL     1      44.612   4.772  10.511  0.00  0.00    +0.000 C 
ATOM     12  C   UNL     1      46.647   5.571  13.551  0.00  0.00    +0.000 A 
ENDROOT
BRANCH   1  13
ATOM     13  C   UNL     1      48.462   6.043  15.223  0.00  0.00    +0.000 C 
BRANCH  13  14
ATOM     14  N   UNL     1      47.601   5.285  16.115  0.00  0.00    +0.000 N 
ATOM     15  H   UNL     1      46.619   5.537  16.046  0.00  0.00    +0.000 HD
BRANCH  14  19
ATOM     16  C   UNL     1      48.938   4.705  20.082  0.00  0.00    +0.000 A 
ATOM     17  C   UNL     1      47.794   5.462  19.855  0.00  0.00    +0.000 A 
ATOM     18  C   UNL     1      47.335   5.663  18.546  0.00  0.00    +0.000 A 
ATOM     19  C   UNL     1      47.986   5.088  17.449  0.00  0.00    +0.000 A 
ATOM     20  C   UNL     1      49.152   4.348  17.701  0.00  0.00    +0.000 A 
ATOM     21  C   UNL     1      49.626   4.154  19.006  0.00  0.00    +0.000 A 
ENDBRANCH  14  19
ENDBRANCH  13  14
ENDBRANCH   1  13
TORSDOF 3
ENDMDL
MODEL 6
REMARK VINA RESULT:    -5.417      4.764      9.099
REMARK INTER + INTRA:          -6.909
REMARK INTER:                  -6.557
REMARK INTRA:                  -0.351
REMARK UNBOUND:                -0.542
REMARK  Name = 
REMARK  3 active torsions:
REMARK  status: ('A' for Active; 'I' for Inactive)
REMARK    1  A    between atoms: C_4  and  N_5
REMARK    2  A    between atoms: N_5  and  C_6
REMARK    3  A    between atoms: C_6  and  C_7
REMARK                            x       y       z     vdW  Elec       q    Type
REMARK                         _______ _______ _______ _____ _____    ______ ____
ROOT
ATOM      1  C   UNL     1      48.530   4.936  17.037  0.00  0.00    +0.000 A 
ATOM      2  C   UNL     1      48.722   3.570  17.220  0.00  0.00    +0.000 A 
ATOM      3  C   UNL     1      48.212   2.715  16.258  0.00  0.00    +0.000 A 
ATOM      4  N   UNL     1      47.550   3.121  15.149  0.00  0.00    +0.000 NA
ATOM      5  C   UNL     1      47.392   4.447  14.939  0.00  0.00    +0.000 A 
ATOM      6  N   UNL     1      46.633   4.873  13.868  0.00  0.00    +0.000 N 
ATOM      7  C   UNL     1      46.901   6.134  13.170  0.00  0.00    +0.000 C 
ATOM      8  C   UNL     1      45.555   6.737  12.740  0.00  0.00    +0.000 C 
ATOM      9  O   UNL     1      44.805   5.824  11.918  0.00  0.00    +0.000 OA
ATOM     10  C   UNL     1      44.573   4.583  12.618  0.00  0.00    +0.000 C 
ATOM     11  C   UNL     1      45.892   3.910  13.047  0.00  0.00    +0.000 C 
ATOM     12  C   UNL     1      47.883   5.359  15.868  0.00  0.00    +0.000 A 
ENDROOT
BRANCH   1  13
ATOM     13  C   UNL     1      48.911   5.955  18.082  0.00  0.00    +0.000 C 
BRANCH  13  14
ATOM     14  N   UNL     1      48.008   7.093  18.066  0.00  0.00    +0.000 N 
ATOM     15  H   UNL     1      48.203   7.758  17.323  0.00  0.00    +0.000 HD
BRANCH  14  19
ATOM     16  C   UNL     1      46.921   9.146  21.598  0.00  0.00    +0.000 A 
ATOM     17  C   UNL     1      47.351   7.826  21.684  0.00  0.00    +0.000 A 
ATOM     18  C   UNL     1      47.717   7.130  20.523  0.00  0.00    +0.000 A 
ATOM     19  C   UNL     1      47.694   7.746  19.267  0.00  0.00    +0.000 A 
ATOM     20  C   UNL     1      47.234   9.070  19.202  0.00  0.00    +0.000 A 
ATOM     21  C   UNL     1      46.852   9.768  20.356  0.00  0.00    +0.000 A 
ENDBRANCH  14  19
ENDBRANCH  13  14
ENDBRANCH   1  13
TORSDOF 3
ENDMDL
MODEL 7
REMARK VINA RESULT:    -5.252      3.496      5.718
REMARK INTER + INTRA:          -6.716
REMARK INTER:                  -6.255
REMARK INTRA:                  -0.461
REMARK UNBOUND:                -0.542
REMARK  Name = 
REMARK  3 active torsions:
REMARK  status: ('A' for Active; 'I' for Inactive)
REMARK    1  A    between atoms: C_4  and  N_5
REMARK    2  A    between atoms: N_5  and  C_6
REMARK    3  A    between atoms: C_6  and  C_7
REMARK                            x       y       z     vdW  Elec       q    Type
REMARK                         _______ _______ _______ _____ _____    ______ ____
ROOT
ATOM      1  C   UNL     1      48.300   7.368  13.223  0.00  0.00    +0.000 A 
ATOM      2  C   UNL     1      49.495   8.064  13.068  0.00  0.00    +0.000 A 
ATOM      3  C   UNL     1      50.414   8.002  14.101  0.00  0.00    +0.000 A 
ATOM      4  N   UNL     1      50.230   7.302  15.245  0.00  0.00    +0.000 NA
ATOM      5  C   UNL     1      49.091   6.589  15.392  0.00  0.00    +0.000 A 
ATOM      6  N   UNL     1      48.845   5.952  16.591  0.00  0.00    +0.000 N 
ATOM      7  C   UNL     1      48.075   4.707  16.674  0.00  0.00    +0.000 C 
ATOM      8  C   UNL     1      47.254   4.739  17.972  0.00  0.00    +0.000 C 
ATOM      9  O   UNL     1      48.094   4.922  19.125  0.00  0.00    +0.000 OA
ATOM     10  C   UNL     1      48.857   6.142  19.010  0.00  0.00    +0.000 C 
ATOM     11  C   UNL     1      49.731   6.156  17.741  0.00  0.00    +0.000 C 
ATOM     12  C   UNL     1      48.128   6.607  14.387  0.00  0.00    +0.000 A 
ENDROOT
BRANCH   1  13
ATOM     13  C   UNL     1      47.166   7.474  12.234  0.00  0.00    +0.000 C 
BRANCH  13  14
ATOM     14  N   UNL     1      46.779   6.168  11.729  0.00  0.00    +0.000 N 
ATOM     15  H   UNL     1      47.203   5.933  10.836  0.00  0.00    +0.000 HD
BRANCH  14  19
ATOM     16  C   UNL     1      42.763   4.850  11.753  0.00  0.00    +0.000 A 
ATOM     17  C   UNL     1      43.323   5.344  12.926  0.00  0.00    +0.000 A 
ATOM     18  C   UNL     1      44.653   5.788  12.936  0.00  0.00    +0.000 A 
ATOM     19  C   UNL     1      45.433   5.778  11.775  0.00  0.00    +0.000 A 
ATOM     20  C   UNL     1      44.854   5.252  10.609  0.00  0.00    +0.000 A 
ATOM     21  C   UNL     1      43.530   4.794  10.594  0.00  0.00    +0.000 A 
ENDBRANCH  14  19
ENDBRANCH  13  14
ENDBRANCH   1  13
TORSDOF 3
ENDMDL
MODEL 8
REMARK VINA RESULT:    -5.088      3.527      6.369
REMARK INTER + INTRA:          -6.522
REMARK INTER:                  -6.104
REMARK INTRA:                  -0.418
REMARK UNBOUND:                -0.542
REMARK  Name = 
REMARK  3 active torsions:
REMARK  status: ('A' for Active; 'I' for Inactive)
REMARK    1  A    between atoms: C_4  and  N_5
REMARK    2  A    between atoms: N_5  and  C_6
REMARK    3  A    between atoms: C_6  and  C_7
REMARK                            x       y       z     vdW  Elec       q    Type
REMARK                         _______ _______ _______ _____ _____    ______ ____
ROOT
ATOM      1  C   UNL     1      48.162   7.758  12.449  0.00  0.00    +0.000 A 
ATOM      2  C   UNL     1      48.739   7.339  13.643  0.00  0.00    +0.000 A 
ATOM      3  C   UNL     1      48.145   6.280  14.308  0.00  0.00    +0.000 A 
ATOM      4  N   UNL     1      47.048   5.620  13.867  0.00  0.00    +0.000 NA
ATOM      5  C   UNL     1      46.501   5.990  12.687  0.00  0.00    +0.000 A 
ATOM      6  N   UNL     1      45.327   5.396  12.273  0.00  0.00    +0.000 N 
ATOM      7  C   UNL     1      45.003   5.202  10.857  0.00  0.00    +0.000 C 
ATOM      8  C   UNL     1      43.488   5.391  10.684  0.00  0.00    +0.000 C 
ATOM      9  O   UNL     1      42.743   4.493  11.527  0.00  0.00    +0.000 OA
ATOM     10  C   UNL     1      43.095   4.688  12.912  0.00  0.00    +0.000 C 
ATOM     11  C   UNL     1      44.602   4.477  13.158  0.00  0.00    +0.000 C 
ATOM     12  C   UNL     1      47.053   7.047  11.969  0.00  0.00    +0.000 A 
ENDROOT
BRANCH   1  13
ATOM     13  C   UNL     1      48.630   8.986  11.709  0.00  0.00    +0.000 C 
BRANCH  13  14
ATOM     14  N   UNL     1      50.018   9.289  12.010  0.00  0.00    +0.000 N 
ATOM     15  H   UNL     1      50.164  10.234  12.355  0.00  0.00    +0.000 HD
BRANCH  14  19
ATOM     16  C   UNL     1      53.150   8.296   9.350  0.00  0.00    +0.000 A 
ATOM     17  C   UNL     1      52.402   7.277   9.930  0.00  0.00    +0.000 A 
ATOM     18  C   UNL     1      51.358   7.588  10.812  0.00  0.00    +0.000 A 
ATOM     19  C   UNL     1      51.022   8.914  11.105  0.00  0.00    +0.000 A 
ATOM     20  C   UNL     1      51.807   9.925  10.528  0.00  0.00    +0.000 A 
ATOM     21  C   UNL     1      52.861   9.622   9.655  0.00  0.00    +0.000 A 
ENDBRANCH  14  19
ENDBRANCH  13  14
ENDBRANCH   1  13
TORSDOF 3
ENDMDL
MODEL 9
REMARK VINA RESULT:    -4.998      4.275      5.961
REMARK INTER + INTRA:          -6.416
REMARK INTER:                  -6.106
REMARK INTRA:                  -0.310
REMARK UNBOUND:                -0.542
REMARK  Name = 
REMARK  3 active torsions:
REMARK  status: ('A' for Active; 'I' for Inactive)
REMARK    1  A    between atoms: C_4  and  N_5
REMARK    2  A    between atoms: N_5  and  C_6
REMARK    3  A    between atoms: C_6  and  C_7
REMARK                            x       y       z     vdW  Elec       q    Type
REMARK                         _______ _______ _______ _____ _____    ______ ____
ROOT
ATOM      1  C   UNL     1      47.717   4.013  16.333  0.00  0.00    +0.000 A 
ATOM      2  C   UNL     1      47.855   2.944  17.212  0.00  0.00    +0.000 A 
ATOM      3  C   UNL     1      48.377   3.207  18.467  0.00  0.00    +0.000 A 
ATOM      4  N   UNL     1      48.751   4.435  18.896  0.00  0.00    +0.000 NA
ATOM      5  C   UNL     1      48.585   5.489  18.066  0.00  0.00    +0.000 A 
ATOM      6  N   UNL     1      49.054   6.729  18.451  0.00  0.00    +0.000 N 
ATOM      7  C   UNL     1      48.413   7.976  18.022  0.00  0.00    +0.000 C 
ATOM      8  C   UNL     1      49.512   9.029  17.810  0.00  0.00    +0.000 C 
ATOM      9  O   UNL     1      50.300   9.217  18.999  0.00  0.00    +0.000 OA
ATOM     10  C   UNL     1      50.901   7.973  19.413  0.00  0.00    +0.000 C 
ATOM     11  C   UNL     1      49.844   6.883  19.676  0.00  0.00    +0.000 C 
ATOM     12  C   UNL     1      48.063   5.292  16.792  0.00  0.00    +0.000 A 
ENDROOT
BRANCH   1  13
ATOM     13  C   UNL     1      47.297   3.831  14.896  0.00  0.00    +0.000 C 
BRANCH  13  14
ATOM     14  N   UNL     1      46.534   4.972  14.418  0.00  0.00    +0.000 N 
ATOM     15  H   UNL     1      45.776   5.243  15.038  0.00  0.00    +0.000 HD
BRANCH  14  19
ATOM     16  C   UNL     1      45.185   5.073  10.414  0.00  0.00    +0.000 A 
ATOM     17  C   UNL     1      45.957   6.124  10.898  0.00  0.00    +0.000 A 
ATOM     18  C   UNL     1      46.415   6.106  12.222  0.00  0.00    +0.000 A 
ATOM     19  C   UNL     1      46.141   5.030  13.074  0.00  0.00    +0.000 A 
ATOM     20  C   UNL     1      45.340   3.993  12.570  0.00  0.00    +0.000 A 
ATOM     21  C   UNL     1      44.867   4.009  11.252  0.00  0.00    +0.000 A 
ENDBRANCH  14  19
ENDBRANCH  13  14
ENDBRANCH   1  13
TORSDOF 3
ENDMDL
