MODEL 1
REMARK VINA RESULT:    -8.469      0.000      0.000
REMARK INTER + INTRA:         -12.589
REMARK INTER:                 -11.440
REMARK INTRA:                  -1.149
REMARK UNBOUND:                -1.149
REMARK  Name = 
REMARK  8 active torsions:
REMARK  status: ('A' for Active; 'I' for Inactive)
REMARK    1  A    between atoms: C_1  and  C_2
REMARK    2  A    between atoms: C_2  and  N_3
REMARK    3  A    between atoms: C_2  and  C_16
REMARK    4  A    between atoms: C_4  and  C_6
REMARK    5  A    between atoms: C_19  and  N_20
REMARK    6  A    between atoms: N_20  and  C_21
REMARK    7  A    between atoms: N_20  and  C_22
REMARK    8  A    between atoms: C_22  and  C_23
REMARK                            x       y       z     vdW  Elec       q    Type
REMARK                         _______ _______ _______ _____ _____    ______ ____
ROOT
ATOM      1  C   UNL     1      48.295   8.284  12.928  0.00  0.00    +0.000 C 
ATOM      2  C   UNL     1      48.288   6.871  13.522  0.00  0.00    +0.000 C 
ENDROOT
BRANCH   2   3
ATOM      3  C   UNL     1      47.166   6.049  12.901  0.00  0.00    +0.000 A 
ATOM      4  C   UNL     1      46.487   6.473  11.758  0.00  0.00    +0.000 A 
ATOM      5  C   UNL     1      45.521   5.647  11.153  0.00  0.00    +0.000 A 
ATOM      6  C   UNL     1      45.218   4.368  11.640  0.00  0.00    +0.000 A 
ATOM      7  C   UNL     1      45.869   3.989  12.824  0.00  0.00    +0.000 A 
ATOM      8  C   UNL     1      46.819   4.805  13.443  0.00  0.00    +0.000 A 
BRANCH   6   9
ATOM      9  N   UNL     1      44.368   3.506  10.952  0.00  0.00    +0.000 N 
ATOM     10  C   UNL     1      43.338   2.752  11.656  0.00  0.00    +0.000 C 
BRANCH   9  11
ATOM     11  C   UNL     1      44.168   3.701   9.502  0.00  0.00    +0.000 C 
BRANCH  11  12
ATOM     12  C   UNL     1      45.226   3.063   8.615  0.00  0.00    +0.000 A 
ATOM     13  C   UNL     1      46.010   3.814   7.742  0.00  0.00    +0.000 A 
ATOM     14  C   UNL     1      46.995   3.179   6.991  0.00  0.00    +0.000 A 
ATOM     15  C   UNL     1      47.184   1.811   7.133  0.00  0.00    +0.000 A 
ATOM     16  C   UNL     1      46.379   1.133   8.029  0.00  0.00    +0.000 A 
ATOM     17  N   UNL     1      45.415   1.724   8.772  0.00  0.00    +0.000 NA
ENDBRANCH  11  12
ENDBRANCH   9  11
ENDBRANCH   6   9
ENDBRANCH   2   3
BRANCH   2  18
ATOM     18  N   UNL     1      48.112   6.867  14.969  0.00  0.00    +0.000 N 
ATOM     19  C   UNL     1      49.127   6.686  15.870  0.00  0.00    +0.000 C 
ATOM     20  O   UNL     1      50.298   6.539  15.535  0.00  0.00    +0.000 OA
ATOM     21  H   UNL     1      47.164   6.680  15.286  0.00  0.00    +0.000 HD
BRANCH  19  22
ATOM     22  C   UNL     1      48.751   6.748  17.290  0.00  0.00    +0.000 A 
ATOM     23  C   UNL     1      48.416   7.971  17.858  0.00  0.00    +0.000 A 
ATOM     24  S   UNL     1      47.999   7.868  19.508  0.00  0.00    +0.000 S 
ATOM     25  C   UNL     1      48.286   6.190  19.531  0.00  0.00    +0.000 A 
ATOM     26  N   UNL     1      48.149   5.474  20.680  0.00  0.00    +0.000 NA
ATOM     27  C   UNL     1      48.424   4.218  20.559  0.00  0.00    +0.000 A 
ATOM     28  N   UNL     1      48.810   3.612  19.391  0.00  0.00    +0.000 N 
ATOM     29  C   UNL     1      48.925   4.288  18.201  0.00  0.00    +0.000 A 
ATOM     30  O   UNL     1      49.213   3.710  17.161  0.00  0.00    +0.000 OA
ATOM     31  C   UNL     1      48.660   5.711  18.290  0.00  0.00    +0.000 A 
ATOM     32  H   UNL     1      48.989   2.620  19.357  0.00  0.00    +0.000 HD
ENDBRANCH  19  22
ENDBRANCH   2  18
TORSDOF 6
ENDMDL
MODEL 2
REMARK VINA RESULT:    -8.411      1.621      2.012
REMARK INTER + INTRA:         -12.510
REMARK INTER:                 -11.366
REMARK INTRA:                  -1.144
REMARK UNBOUND:                -1.149
REMARK  Name = 
REMARK  8 active torsions:
REMARK  status: ('A' for Active; 'I' for Inactive)
REMARK    1  A    between atoms: C_1  and  C_2
REMARK    2  A    between atoms: C_2  and  N_3
REMARK    3  A    between atoms: C_2  and  C_16
REMARK    4  A    between atoms: C_4  and  C_6
REMARK    5  A    between atoms: C_19  and  N_20
REMARK    6  A    between atoms: N_20  and  C_21
REMARK    7  A    between atoms: N_20  and  C_22
REMARK    8  A    between atoms: C_22  and  C_23
REMARK                            x       y       z     vdW  Elec       q    Type
REMARK                         _______ _______ _______ _____ _____    ______ ____
ROOT
ATOM      1  C   UNL     1      45.924   9.286  13.244  0.00  0.00    +0.000 C 
ATOM      2  C   UNL     1      46.862   8.091  13.038  0.00  0.00    +0.000 C 
ENDROOT
BRANCH   2   3
ATOM      3  C   UNL     1      46.156   7.005  12.237  0.00  0.00    +0.000 A 
ATOM      4  C   UNL     1      46.508   6.716  10.917  0.00  0.00    +0.000 A 
ATOM      5  C   UNL     1      45.903   5.643  10.236  0.00  0.00    +0.000 A 
ATOM      6  C   UNL     1      44.958   4.806  10.844  0.00  0.00    +0.000 A 
ATOM      7  C   UNL     1      44.576   5.153  12.150  0.00  0.00    +0.000 A 
ATOM      8  C   UNL     1      45.157   6.224  12.833  0.00  0.00    +0.000 A 
BRANCH   6   9
ATOM      9  N   UNL     1      44.475   3.665  10.209  0.00  0.00    +0.000 N 
ATOM     10  C   UNL     1      43.651   2.700  10.927  0.00  0.00    +0.000 C 
BRANCH   9  11
ATOM     11  C   UNL     1      44.371   3.653   8.736  0.00  0.00    +0.000 C 
BRANCH  11  12
ATOM     12  C   UNL     1      45.520   2.964   8.016  0.00  0.00    +0.000 A 
ATOM     13  C   UNL     1      45.946   1.683   8.361  0.00  0.00    +0.000 A 
ATOM     14  C   UNL     1      46.972   1.085   7.634  0.00  0.00    +0.000 A 
ATOM     15  C   UNL     1      47.545   1.773   6.573  0.00  0.00    +0.000 A 
ATOM     16  C   UNL     1      47.061   3.035   6.279  0.00  0.00    +0.000 A 
ATOM     17  N   UNL     1      46.066   3.639   6.968  0.00  0.00    +0.000 NA
ENDBRANCH  11  12
ENDBRANCH   9  11
ENDBRANCH   6   9
ENDBRANCH   2   3
BRANCH   2  18
ATOM     18  N   UNL     1      47.319   7.510  14.295  0.00  0.00    +0.000 N 
ATOM     19  C   UNL     1      48.459   6.764  14.431  0.00  0.00    +0.000 C 
ATOM     20  O   UNL     1      49.226   6.542  13.499  0.00  0.00    +0.000 OA
ATOM     21  H   UNL     1      46.599   7.401  15.005  0.00  0.00    +0.000 HD
BRANCH  19  22
ATOM     22  C   UNL     1      48.766   6.294  15.789  0.00  0.00    +0.000 A 
ATOM     23  C   UNL     1      49.666   7.003  16.575  0.00  0.00    +0.000 A 
ATOM     24  S   UNL     1      49.904   6.328  18.123  0.00  0.00    +0.000 S 
ATOM     25  C   UNL     1      48.840   5.044  17.785  0.00  0.00    +0.000 A 
ATOM     26  N   UNL     1      48.620   4.061  18.699  0.00  0.00    +0.000 NA
ATOM     27  C   UNL     1      47.812   3.135  18.301  0.00  0.00    +0.000 A 
ATOM     28  N   UNL     1      47.195   3.111  17.077  0.00  0.00    +0.000 N 
ATOM     29  C   UNL     1      47.359   4.101  16.138  0.00  0.00    +0.000 A 
ATOM     30  O   UNL     1      46.748   4.084  15.077  0.00  0.00    +0.000 OA
ATOM     31  C   UNL     1      48.286   5.148  16.523  0.00  0.00    +0.000 A 
ATOM     32  H   UNL     1      46.555   2.370  16.834  0.00  0.00    +0.000 HD
ENDBRANCH  19  22
ENDBRANCH   2  18
TORSDOF 6
ENDMDL
MODEL 3
REMARK VINA RESULT:    -8.234      1.461      2.250
REMARK INTER + INTRA:         -12.272
REMARK INTER:                 -11.016
REMARK INTRA:                  -1.256
REMARK UNBOUND:                -1.149
REMARK  Name = 
REMARK  8 active torsions:
REMARK  status: ('A' for Active; 'I' for Inactive)
REMARK    1  A    between atoms: C_1  and  C_2
REMARK    2  A    between atoms: C_2  and  N_3
REMARK    3  A    between atoms: C_2  and  C_16
REMARK    4  A    between atoms: C_4  and  C_6
REMARK    5  A    between atoms: C_19  and  N_20
REMARK    6  A    between atoms: N_20  and  C_21
REMARK    7  A    between atoms: N_20  and  C_22
REMARK    8  A    between atoms: C_22  and  C_23
REMARK                            x       y       z     vdW  Elec       q    Type
REMARK                         _______ _______ _______ _____ _____    ______ ____
ROOT
ATOM      1  C   UNL     1      48.109   8.706  13.426  0.00  0.00    +0.000 C 
ATOM      2  C   UNL     1      48.218   7.203  13.711  0.00  0.00    +0.000 C 
ENDROOT
BRANCH   2   3
ATOM      3  C   UNL     1      47.118   6.450  12.972  0.00  0.00    +0.000 A 
ATOM      4  C   UNL     1      46.729   6.799  11.677  0.00  0.00    +0.000 A 
ATOM      5  C   UNL     1      45.778   6.025  10.985  0.00  0.00    +0.000 A 
ATOM      6  C   UNL     1      45.208   4.869  11.536  0.00  0.00    +0.000 A 
ATOM      7  C   UNL     1      45.569   4.574  12.860  0.00  0.00    +0.000 A 
ATOM      8  C   UNL     1      46.500   5.342  13.564  0.00  0.00    +0.000 A 
BRANCH   6   9
ATOM      9  N   UNL     1      44.380   4.035  10.790  0.00  0.00    +0.000 N 
ATOM     10  C   UNL     1      43.252   3.351  11.410  0.00  0.00    +0.000 C 
BRANCH   9  11
ATOM     11  C   UNL     1      44.322   4.206   9.324  0.00  0.00    +0.000 C 
BRANCH  11  12
ATOM     12  C   UNL     1      45.354   3.406   8.544  0.00  0.00    +0.000 A 
ATOM     13  C   UNL     1      45.534   2.038   8.744  0.00  0.00    +0.000 A 
ATOM     14  C   UNL     1      46.462   1.351   7.965  0.00  0.00    +0.000 A 
ATOM     15  C   UNL     1      47.182   2.039   6.997  0.00  0.00    +0.000 A 
ATOM     16  C   UNL     1      46.939   3.392   6.846  0.00  0.00    +0.000 A 
ATOM     17  N   UNL     1      46.045   4.084   7.587  0.00  0.00    +0.000 NA
ENDBRANCH  11  12
ENDBRANCH   9  11
ENDBRANCH   6   9
ENDBRANCH   2   3
BRANCH   2  18
ATOM     18  N   UNL     1      48.113   6.889  15.130  0.00  0.00    +0.000 N 
ATOM     19  C   UNL     1      49.175   6.555  15.928  0.00  0.00    +0.000 C 
ATOM     20  O   UNL     1      50.331   6.522  15.519  0.00  0.00    +0.000 OA
ATOM     21  H   UNL     1      47.186   6.607  15.441  0.00  0.00    +0.000 HD
BRANCH  19  22
ATOM     22  C   UNL     1      48.867   6.305  17.343  0.00  0.00    +0.000 A 
ATOM     23  C   UNL     1      49.063   5.037  17.875  0.00  0.00    +0.000 A 
ATOM     24  S   UNL     1      48.665   4.919  19.529  0.00  0.00    +0.000 S 
ATOM     25  C   UNL     1      48.182   6.550  19.584  0.00  0.00    +0.000 A 
ATOM     26  N   UNL     1      47.684   7.092  20.729  0.00  0.00    +0.000 NA
ATOM     27  C   UNL     1      47.332   8.330  20.621  0.00  0.00    +0.000 A 
ATOM     28  N   UNL     1      47.445   9.077  19.477  0.00  0.00    +0.000 N 
ATOM     29  C   UNL     1      47.975   8.582  18.311  0.00  0.00    +0.000 A 
ATOM     30  O   UNL     1      48.119   9.289  17.321  0.00  0.00    +0.000 OA
ATOM     31  C   UNL     1      48.355   7.183  18.368  0.00  0.00    +0.000 A 
ATOM     32  H   UNL     1      47.172  10.048  19.463  0.00  0.00    +0.000 HD
ENDBRANCH  19  22
ENDBRANCH   2  18
TORSDOF 6
ENDMDL
MODEL 4
REMARK VINA RESULT:    -7.633      1.709      2.283
REMARK INTER + INTRA:         -11.459
REMARK INTER:                 -10.226
REMARK INTRA:                  -1.233
REMARK UNBOUND:                -1.149
REMARK  Name = 
REMARK  8 active torsions:
REMARK  status: ('A' for Active; 'I' for Inactive)
REMARK    1  A    between atoms: C_1  and  C_2
REMARK    2  A    between atoms: C_2  and  N_3
REMARK    3  A    between atoms: C_2  and  C_16
REMARK    4  A    between atoms: C_4  and  C_6
REMARK    5  A    between atoms: C_19  and  N_20
REMARK    6  A    between atoms: N_20  and  C_21
REMARK    7  A    between atoms: N_20  and  C_22
REMARK    8  A    between atoms: C_22  and  C_23
REMARK                            x       y       z     vdW  Elec       q    Type
REMARK                         _______ _______ _______ _____ _____    ______ ____
ROOT
ATOM      1  C   UNL     1      45.196   9.822  12.533  0.00  0.00    +0.000 C 
ATOM      2  C   UNL     1      46.359   8.833  12.673  0.00  0.00    +0.000 C 
ENDROOT
BRANCH   2   3
ATOM      3  C   UNL     1      45.930   7.451  12.197  0.00  0.00    +0.000 A 
ATOM      4  C   UNL     1      46.623   6.297  12.566  0.00  0.00    +0.000 A 
ATOM      5  C   UNL     1      46.147   5.027  12.188  0.00  0.00    +0.000 A 
ATOM      6  C   UNL     1      44.958   4.856  11.465  0.00  0.00    +0.000 A 
ATOM      7  C   UNL     1      44.313   6.033  11.054  0.00  0.00    +0.000 A 
ATOM      8  C   UNL     1      44.782   7.300  11.408  0.00  0.00    +0.000 A 
BRANCH   6   9
ATOM      9  N   UNL     1      44.424   3.594  11.223  0.00  0.00    +0.000 N 
ATOM     10  C   UNL     1      43.891   2.786  12.313  0.00  0.00    +0.000 C 
BRANCH   9  11
ATOM     11  C   UNL     1      43.950   3.263   9.864  0.00  0.00    +0.000 C 
BRANCH  11  12
ATOM     12  C   UNL     1      45.046   2.919   8.868  0.00  0.00    +0.000 A 
ATOM     13  C   UNL     1      45.634   3.885   8.053  0.00  0.00    +0.000 A 
ATOM     14  C   UNL     1      46.666   3.518   7.194  0.00  0.00    +0.000 A 
ATOM     15  C   UNL     1      47.097   2.198   7.173  0.00  0.00    +0.000 A 
ATOM     16  C   UNL     1      46.477   1.298   8.019  0.00  0.00    +0.000 A 
ATOM     17  N   UNL     1      45.473   1.627   8.864  0.00  0.00    +0.000 NA
ENDBRANCH  11  12
ENDBRANCH   9  11
ENDBRANCH   6   9
ENDBRANCH   2   3
BRANCH   2  18
ATOM     18  N   UNL     1      46.839   8.716  14.045  0.00  0.00    +0.000 N 
ATOM     19  C   UNL     1      48.076   9.124  14.468  0.00  0.00    +0.000 C 
ATOM     20  O   UNL     1      48.891   9.661  13.725  0.00  0.00    +0.000 OA
ATOM     21  H   UNL     1      46.353   8.028  14.613  0.00  0.00    +0.000 HD
BRANCH  19  22
ATOM     22  C   UNL     1      48.360   8.951  15.900  0.00  0.00    +0.000 A 
ATOM     23  C   UNL     1      48.308  10.049  16.748  0.00  0.00    +0.000 A 
ATOM     24  S   UNL     1      48.655   9.676  18.375  0.00  0.00    +0.000 S 
ATOM     25  C   UNL     1      48.923   8.038  17.997  0.00  0.00    +0.000 A 
ATOM     26  N   UNL     1      49.303   7.153  18.958  0.00  0.00    +0.000 NA
ATOM     27  C   UNL     1      49.498   5.951  18.528  0.00  0.00    +0.000 A 
ATOM     28  N   UNL     1      49.333   5.552  17.226  0.00  0.00    +0.000 N 
ATOM     29  C   UNL     1      48.915   6.402  16.231  0.00  0.00    +0.000 A 
ATOM     30  O   UNL     1      48.719   6.005  15.090  0.00  0.00    +0.000 OA
ATOM     31  C   UNL     1      48.716   7.774  16.656  0.00  0.00    +0.000 A 
ATOM     32  H   UNL     1      49.480   4.591  16.956  0.00  0.00    +0.000 HD
ENDBRANCH  19  22
ENDBRANCH   2  18
TORSDOF 6
ENDMDL
MODEL 5
REMARK VINA RESULT:    -7.337      4.013      6.099
REMARK INTER + INTRA:         -11.060
REMARK INTER:                  -9.770
REMARK INTRA:                  -1.291
REMARK UNBOUND:                -1.149
REMARK  Name = 
REMARK  8 active torsions:
REMARK  status: ('A' for Active; 'I' for Inactive)
REMARK    1  A    between atoms: C_1  and  C_2
REMARK    2  A    between atoms: C_2  and  N_3
REMARK    3  A    between atoms: C_2  and  C_16
REMARK    4  A    between atoms: C_4  and  C_6
REMARK    5  A    between atoms: C_19  and  N_20
REMARK    6  A    between atoms: N_20  and  C_21
REMARK    7  A    between atoms: N_20  and  C_22
REMARK    8  A    between atoms: C_22  and  C_23
REMARK                            x       y       z     vdW  Elec       q    Type
REMARK                         _______ _______ _______ _____ _____    ______ ____
ROOT
ATOM      1  C   UNL     1      48.759   6.815  14.423  0.00  0.00    +0.000 C 
ATOM      2  C   UNL     1      47.758   7.626  13.593  0.00  0.00    +0.000 C 
ENDROOT
BRANCH   2   3
ATOM      3  C   UNL     1      46.781   6.691  12.890  0.00  0.00    +0.000 A 
ATOM      4  C   UNL     1      46.317   6.946  11.599  0.00  0.00    +0.000 A 
ATOM      5  C   UNL     1      45.492   6.014  10.941  0.00  0.00    +0.000 A 
ATOM      6  C   UNL     1      45.126   4.793  11.524  0.00  0.00    +0.000 A 
ATOM      7  C   UNL     1      45.553   4.588  12.845  0.00  0.00    +0.000 A 
ATOM      8  C   UNL     1      46.361   5.510  13.515  0.00  0.00    +0.000 A 
BRANCH   6   9
ATOM      9  N   UNL     1      44.430   3.822  10.810  0.00  0.00    +0.000 N 
ATOM     10  C   UNL     1      43.462   2.956  11.473  0.00  0.00    +0.000 C 
BRANCH   9  11
ATOM     11  C   UNL     1      44.290   3.968   9.347  0.00  0.00    +0.000 C 
BRANCH  11  12
ATOM     12  C   UNL     1      45.367   3.273   8.527  0.00  0.00    +0.000 A 
ATOM     13  C   UNL     1      45.625   1.910   8.651  0.00  0.00    +0.000 A 
ATOM     14  C   UNL     1      46.591   1.321   7.838  0.00  0.00    +0.000 A 
ATOM     15  C   UNL     1      47.270   2.103   6.913  0.00  0.00    +0.000 A 
ATOM     16  C   UNL     1      46.950   3.445   6.836  0.00  0.00    +0.000 A 
ATOM     17  N   UNL     1      46.017   4.042   7.612  0.00  0.00    +0.000 NA
ENDBRANCH  11  12
ENDBRANCH   9  11
ENDBRANCH   6   9
ENDBRANCH   2   3
BRANCH   2  18
ATOM     18  N   UNL     1      48.403   8.457  12.583  0.00  0.00    +0.000 N 
ATOM     19  C   UNL     1      48.696   9.784  12.747  0.00  0.00    +0.000 C 
ATOM     20  O   UNL     1      48.467  10.394  13.786  0.00  0.00    +0.000 OA
ATOM     21  H   UNL     1      48.337   8.105  11.631  0.00  0.00    +0.000 HD
BRANCH  19  22
ATOM     22  C   UNL     1      49.379  10.439  11.622  0.00  0.00    +0.000 A 
ATOM     23  C   UNL     1      48.764  11.499  10.968  0.00  0.00    +0.000 A 
ATOM     24  S   UNL     1      49.692  12.149   9.693  0.00  0.00    +0.000 S 
ATOM     25  C   UNL     1      50.934  11.013   9.947  0.00  0.00    +0.000 A 
ATOM     26  N   UNL     1      52.035  10.992   9.148  0.00  0.00    +0.000 NA
ATOM     27  C   UNL     1      52.883  10.062   9.436  0.00  0.00    +0.000 A 
ATOM     28  N   UNL     1      52.736   9.161  10.459  0.00  0.00    +0.000 N 
ATOM     29  C   UNL     1      51.661   9.169  11.313  0.00  0.00    +0.000 A 
ATOM     30  O   UNL     1      51.585   8.390  12.255  0.00  0.00    +0.000 OA
ATOM     31  C   UNL     1      50.659  10.174  11.011  0.00  0.00    +0.000 A 
ATOM     32  H   UNL     1      53.448   8.470  10.647  0.00  0.00    +0.000 HD
ENDBRANCH  19  22
ENDBRANCH   2  18
TORSDOF 6
ENDMDL
MODEL 6
REMARK VINA RESULT:    -7.231      3.086      8.538
REMARK INTER + INTRA:         -10.917
REMARK INTER:                  -9.417
REMARK INTRA:                  -1.500
REMARK UNBOUND:                -1.149
REMARK  Name = 
REMARK  8 active torsions:
REMARK  status: ('A' for Active; 'I' for Inactive)
REMARK    1  A    between atoms: C_1  and  C_2
REMARK    2  A    between atoms: C_2  and  N_3
REMARK    3  A    between atoms: C_2  and  C_16
REMARK    4  A    between atoms: C_4  and  C_6
REMARK    5  A    between atoms: C_19  and  N_20
REMARK    6  A    between atoms: N_20  and  C_21
REMARK    7  A    between atoms: N_20  and  C_22
REMARK    8  A    between atoms: C_22  and  C_23
REMARK                            x       y       z     vdW  Elec       q    Type
REMARK                         _______ _______ _______ _____ _____    ______ ____
ROOT
ATOM      1  C   UNL     1      49.215   7.783  11.129  0.00  0.00    +0.000 C 
ATOM      2  C   UNL     1      48.000   7.844  12.061  0.00  0.00    +0.000 C 
ENDROOT
BRANCH   2   3
ATOM      3  C   UNL     1      48.457   7.939  13.511  0.00  0.00    +0.000 A 
ATOM      4  C   UNL     1      47.774   8.714  14.450  0.00  0.00    +0.000 A 
ATOM      5  C   UNL     1      48.165   8.706  15.803  0.00  0.00    +0.000 A 
ATOM      6  C   UNL     1      49.219   7.911  16.274  0.00  0.00    +0.000 A 
ATOM      7  C   UNL     1      49.929   7.190  15.301  0.00  0.00    +0.000 A 
ATOM      8  C   UNL     1      49.562   7.200  13.954  0.00  0.00    +0.000 A 
BRANCH   6   9
ATOM      9  N   UNL     1      49.502   7.803  17.632  0.00  0.00    +0.000 N 
ATOM     10  C   UNL     1      50.339   8.790  18.303  0.00  0.00    +0.000 C 
BRANCH   9  11
ATOM     11  C   UNL     1      48.603   7.008  18.492  0.00  0.00    +0.000 C 
BRANCH  11  12
ATOM     12  C   UNL     1      48.518   5.531  18.141  0.00  0.00    +0.000 A 
ATOM     13  C   UNL     1      47.308   4.914  17.826  0.00  0.00    +0.000 A 
ATOM     14  C   UNL     1      47.301   3.569  17.466  0.00  0.00    +0.000 A 
ATOM     15  C   UNL     1      48.500   2.871  17.418  0.00  0.00    +0.000 A 
ATOM     16  C   UNL     1      49.662   3.552  17.729  0.00  0.00    +0.000 A 
ATOM     17  N   UNL     1      49.699   4.857  18.081  0.00  0.00    +0.000 NA
ENDBRANCH  11  12
ENDBRANCH   9  11
ENDBRANCH   6   9
ENDBRANCH   2   3
BRANCH   2  18
ATOM     18  N   UNL     1      47.129   6.682  11.931  0.00  0.00    +0.000 N 
ATOM     19  C   UNL     1      45.761   6.741  11.900  0.00  0.00    +0.000 C 
ATOM     20  O   UNL     1      45.139   7.797  11.949  0.00  0.00    +0.000 OA
ATOM     21  H   UNL     1      47.555   5.795  12.189  0.00  0.00    +0.000 HD
BRANCH  19  22
ATOM     22  C   UNL     1      45.063   5.459  11.730  0.00  0.00    +0.000 A 
ATOM     23  C   UNL     1      44.339   4.925  12.788  0.00  0.00    +0.000 A 
ATOM     24  S   UNL     1      43.585   3.440  12.423  0.00  0.00    +0.000 S 
ATOM     25  C   UNL     1      44.229   3.440  10.848  0.00  0.00    +0.000 A 
ATOM     26  N   UNL     1      43.995   2.404   9.997  0.00  0.00    +0.000 NA
ATOM     27  C   UNL     1      44.566   2.521   8.845  0.00  0.00    +0.000 A 
ATOM     28  N   UNL     1      45.338   3.588   8.462  0.00  0.00    +0.000 N 
ATOM     29  C   UNL     1      45.570   4.671   9.273  0.00  0.00    +0.000 A 
ATOM     30  O   UNL     1      46.214   5.637   8.883  0.00  0.00    +0.000 OA
ATOM     31  C   UNL     1      44.979   4.573  10.594  0.00  0.00    +0.000 A 
ATOM     32  H   UNL     1      45.739   3.631   7.538  0.00  0.00    +0.000 HD
ENDBRANCH  19  22
ENDBRANCH   2  18
TORSDOF 6
ENDMDL
MODEL 7
REMARK VINA RESULT:    -7.173      3.645      6.322
REMARK INTER + INTRA:         -10.839
REMARK INTER:                  -9.706
REMARK INTRA:                  -1.133
REMARK UNBOUND:                -1.149
REMARK  Name = 
REMARK  8 active torsions:
REMARK  status: ('A' for Active; 'I' for Inactive)
REMARK    1  A    between atoms: C_1  and  C_2
REMARK    2  A    between atoms: C_2  and  N_3
REMARK    3  A    between atoms: C_2  and  C_16
REMARK    4  A    between atoms: C_4  and  C_6
REMARK    5  A    between atoms: C_19  and  N_20
REMARK    6  A    between atoms: N_20  and  C_21
REMARK    7  A    between atoms: N_20  and  C_22
REMARK    8  A    between atoms: C_22  and  C_23
REMARK                            x       y       z     vdW  Elec       q    Type
REMARK                         _______ _______ _______ _____ _____    ______ ____
ROOT
ATOM      1  C   UNL     1      48.297   6.518  14.984  0.00  0.00    +0.000 C 
ATOM      2  C   UNL     1      47.627   7.180  13.775  0.00  0.00    +0.000 C 
ENDROOT
BRANCH   2   3
ATOM      3  C   UNL     1      46.874   6.136  12.958  0.00  0.00    +0.000 A 
ATOM      4  C   UNL     1      46.635   4.850  13.448  0.00  0.00    +0.000 A 
ATOM      5  C   UNL     1      45.855   3.940  12.710  0.00  0.00    +0.000 A 
ATOM      6  C   UNL     1      45.263   4.280  11.485  0.00  0.00    +0.000 A 
ATOM      7  C   UNL     1      45.569   5.556  10.986  0.00  0.00    +0.000 A 
ATOM      8  C   UNL     1      46.354   6.464  11.700  0.00  0.00    +0.000 A 
BRANCH   6   9
ATOM      9  N   UNL     1      44.379   3.422  10.838  0.00  0.00    +0.000 N 
ATOM     10  C   UNL     1      43.309   2.756  11.571  0.00  0.00    +0.000 C 
BRANCH   9  11
ATOM     11  C   UNL     1      44.198   3.546   9.377  0.00  0.00    +0.000 C 
BRANCH  11  12
ATOM     12  C   UNL     1      45.289   2.900   8.538  0.00  0.00    +0.000 A 
ATOM     13  C   UNL     1      46.125   3.648   7.710  0.00  0.00    +0.000 A 
ATOM     14  C   UNL     1      47.137   3.005   7.002  0.00  0.00    +0.000 A 
ATOM     15  C   UNL     1      47.301   1.634   7.142  0.00  0.00    +0.000 A 
ATOM     16  C   UNL     1      46.444   0.960   7.992  0.00  0.00    +0.000 A 
ATOM     17  N   UNL     1      45.453   1.558   8.692  0.00  0.00    +0.000 NA
ENDBRANCH  11  12
ENDBRANCH   9  11
ENDBRANCH   6   9
ENDBRANCH   2   3
BRANCH   2  18
ATOM     18  N   UNL     1      48.579   7.848  12.897  0.00  0.00    +0.000 N 
ATOM     19  C   UNL     1      48.948   9.161  13.014  0.00  0.00    +0.000 C 
ATOM     20  O   UNL     1      48.527   9.895  13.902  0.00  0.00    +0.000 OA
ATOM     21  H   UNL     1      48.719   7.401  11.994  0.00  0.00    +0.000 HD
BRANCH  19  22
ATOM     22  C   UNL     1      49.949   9.641  12.050  0.00  0.00    +0.000 A 
ATOM     23  C   UNL     1      51.260   9.193  12.141  0.00  0.00    +0.000 A 
ATOM     24  S   UNL     1      52.290   9.839  10.946  0.00  0.00    +0.000 S 
ATOM     25  C   UNL     1      51.027  10.770  10.286  0.00  0.00    +0.000 A 
ATOM     26  N   UNL     1      51.251  11.604   9.234  0.00  0.00    +0.000 NA
ATOM     27  C   UNL     1      50.212  12.269   8.853  0.00  0.00    +0.000 A 
ATOM     28  N   UNL     1      48.967  12.164   9.419  0.00  0.00    +0.000 N 
ATOM     29  C   UNL     1      48.688  11.309  10.456  0.00  0.00    +0.000 A 
ATOM     30  O   UNL     1      47.553  11.192  10.903  0.00  0.00    +0.000 OA
ATOM     31  C   UNL     1      49.831  10.563  10.946  0.00  0.00    +0.000 A 
ATOM     32  H   UNL     1      48.189  12.696   9.060  0.00  0.00    +0.000 HD
ENDBRANCH  19  22
ENDBRANCH   2  18
TORSDOF 6
ENDMDL
MODEL 8
REMARK VINA RESULT:    -6.994      3.358      9.865
REMARK INTER + INTRA:         -10.596
REMARK INTER:                  -9.356
REMARK INTRA:                  -1.240
REMARK UNBOUND:                -1.149
REMARK  Name = 
REMARK  8 active torsions:
REMARK  status: ('A' for Active; 'I' for Inactive)
REMARK    1  A    between atoms: C_1  and  C_2
REMARK    2  A    between atoms: C_2  and  N_3
REMARK    3  A    between atoms: C_2  and  C_16
REMARK    4  A    between atoms: C_4  and  C_6
REMARK    5  A    between atoms: C_19  and  N_20
REMARK    6  A    between atoms: N_20  and  C_21
REMARK    7  A    between atoms: N_20  and  C_22
REMARK    8  A    between atoms: C_22  and  C_23
REMARK                            x       y       z     vdW  Elec       q    Type
REMARK                         _______ _______ _______ _____ _____    ______ ____
ROOT
ATOM      1  C   UNL     1      47.868   3.111  16.790  0.00  0.00    +0.000 C 
ATOM      2  C   UNL     1      48.075   4.538  16.268  0.00  0.00    +0.000 C 
ENDROOT
BRANCH   2   3
ATOM      3  C   UNL     1      47.938   5.537  17.410  0.00  0.00    +0.000 A 
ATOM      4  C   UNL     1      47.139   5.276  18.525  0.00  0.00    +0.000 A 
ATOM      5  C   UNL     1      47.108   6.176  19.607  0.00  0.00    +0.000 A 
ATOM      6  C   UNL     1      47.887   7.341  19.635  0.00  0.00    +0.000 A 
ATOM      7  C   UNL     1      48.635   7.612  18.478  0.00  0.00    +0.000 A 
ATOM      8  C   UNL     1      48.663   6.735  17.391  0.00  0.00    +0.000 A 
BRANCH   6   9
ATOM      9  N   UNL     1      47.957   8.147  20.769  0.00  0.00    +0.000 N 
ATOM     10  C   UNL     1      48.187   7.566  22.086  0.00  0.00    +0.000 C 
BRANCH   9  11
ATOM     11  C   UNL     1      48.283   9.579  20.613  0.00  0.00    +0.000 C 
BRANCH  11  12
ATOM     12  C   UNL     1      47.080  10.501  20.488  0.00  0.00    +0.000 A 
ATOM     13  C   UNL     1      45.913  10.297  21.221  0.00  0.00    +0.000 A 
ATOM     14  C   UNL     1      44.862  11.203  21.099  0.00  0.00    +0.000 A 
ATOM     15  C   UNL     1      45.002  12.298  20.257  0.00  0.00    +0.000 A 
ATOM     16  C   UNL     1      46.194  12.444  19.572  0.00  0.00    +0.000 A 
ATOM     17  N   UNL     1      47.230  11.580  19.672  0.00  0.00    +0.000 NA
ENDBRANCH  11  12
ENDBRANCH   9  11
ENDBRANCH   6   9
ENDBRANCH   2   3
BRANCH   2  18
ATOM     18  N   UNL     1      47.123   4.901  15.225  0.00  0.00    +0.000 N 
ATOM     19  C   UNL     1      47.436   5.644  14.119  0.00  0.00    +0.000 C 
ATOM     20  O   UNL     1      48.571   6.050  13.887  0.00  0.00    +0.000 OA
ATOM     21  H   UNL     1      46.146   4.863  15.503  0.00  0.00    +0.000 HD
BRANCH  19  22
ATOM     22  C   UNL     1      46.342   5.876  13.165  0.00  0.00    +0.000 A 
ATOM     23  C   UNL     1      46.011   7.175  12.802  0.00  0.00    +0.000 A 
ATOM     24  S   UNL     1      44.727   7.269  11.684  0.00  0.00    +0.000 S 
ATOM     25  C   UNL     1      44.544   5.577  11.673  0.00  0.00    +0.000 A 
ATOM     26  N   UNL     1      43.568   4.985  10.932  0.00  0.00    +0.000 NA
ATOM     27  C   UNL     1      43.526   3.699  11.037  0.00  0.00    +0.000 A 
ATOM     28  N   UNL     1      44.381   2.951  11.805  0.00  0.00    +0.000 N 
ATOM     29  C   UNL     1      45.403   3.502  12.539  0.00  0.00    +0.000 A 
ATOM     30  O   UNL     1      46.188   2.804  13.168  0.00  0.00    +0.000 OA
ATOM     31  C   UNL     1      45.472   4.949  12.483  0.00  0.00    +0.000 A 
ATOM     32  H   UNL     1      44.311   1.944  11.828  0.00  0.00    +0.000 HD
ENDBRANCH  19  22
ENDBRANCH   2  18
TORSDOF 6
ENDMDL
MODEL 9
REMARK VINA RESULT:    -6.801      3.269      7.982
REMARK INTER + INTRA:         -10.336
REMARK INTER:                  -8.980
REMARK INTRA:                  -1.356
REMARK UNBOUND:                -1.149
REMARK  Name = 
REMARK  8 active torsions:
REMARK  status: ('A' for Active; 'I' for Inactive)
REMARK    1  A    between atoms: C_1  and  C_2
REMARK    2  A    between atoms: C_2  and  N_3
REMARK    3  A    between atoms: C_2  and  C_16
REMARK    4  A    between atoms: C_4  and  C_6
REMARK    5  A    between atoms: C_19  and  N_20
REMARK    6  A    between atoms: N_20  and  C_21
REMARK    7  A    between atoms: N_20  and  C_22
REMARK    8  A    between atoms: C_22  and  C_23
REMARK                            x       y       z     vdW  Elec       q    Type
REMARK                         _______ _______ _______ _____ _____    ______ ____
ROOT
ATOM      1  C   UNL     1      49.912   8.395  11.417  0.00  0.00    +0.000 C 
ATOM      2  C   UNL     1      48.539   8.279  12.087  0.00  0.00    +0.000 C 
ENDROOT
BRANCH   2   3
ATOM      3  C   UNL     1      48.705   8.107  13.592  0.00  0.00    +0.000 A 
ATOM      4  C   UNL     1      48.043   8.930  14.505  0.00  0.00    +0.000 A 
ATOM      5  C   UNL     1      48.141   8.686  15.888  0.00  0.00    +0.000 A 
ATOM      6  C   UNL     1      48.868   7.606  16.409  0.00  0.00    +0.000 A 
ATOM      7  C   UNL     1      49.574   6.831  15.475  0.00  0.00    +0.000 A 
ATOM      8  C   UNL     1      49.498   7.071  14.102  0.00  0.00    +0.000 A 
BRANCH   6   9
ATOM      9  N   UNL     1      48.840   7.292  17.765  0.00  0.00    +0.000 N 
ATOM     10  C   UNL     1      49.224   8.276  18.769  0.00  0.00    +0.000 C 
BRANCH   9  11
ATOM     11  C   UNL     1      47.988   6.177  18.226  0.00  0.00    +0.000 C 
BRANCH  11  12
ATOM     12  C   UNL     1      48.448   4.794  17.791  0.00  0.00    +0.000 A 
ATOM     13  C   UNL     1      47.651   3.963  17.006  0.00  0.00    +0.000 A 
ATOM     14  C   UNL     1      48.147   2.727  16.599  0.00  0.00    +0.000 A 
ATOM     15  C   UNL     1      49.429   2.351  16.976  0.00  0.00    +0.000 A 
ATOM     16  C   UNL     1      50.167   3.233  17.743  0.00  0.00    +0.000 A 
ATOM     17  N   UNL     1      49.712   4.439  18.151  0.00  0.00    +0.000 NA
ENDBRANCH  11  12
ENDBRANCH   9  11
ENDBRANCH   6   9
ENDBRANCH   2   3
BRANCH   2  18
ATOM     18  N   UNL     1      47.755   7.159  11.582  0.00  0.00    +0.000 N 
ATOM     19  C   UNL     1      46.389   7.150  11.489  0.00  0.00    +0.000 C 
ATOM     20  O   UNL     1      45.694   8.112  11.799  0.00  0.00    +0.000 OA
ATOM     21  H   UNL     1      48.230   6.259  11.603  0.00  0.00    +0.000 HD
BRANCH  19  22
ATOM     22  C   UNL     1      45.787   5.935  10.921  0.00  0.00    +0.000 A 
ATOM     23  C   UNL     1      45.873   5.700   9.555  0.00  0.00    +0.000 A 
ATOM     24  S   UNL     1      45.130   4.247   9.062  0.00  0.00    +0.000 S 
ATOM     25  C   UNL     1      44.635   3.898  10.652  0.00  0.00    +0.000 A 
ATOM     26  N   UNL     1      43.901   2.786  10.927  0.00  0.00    +0.000 NA
ATOM     27  C   UNL     1      43.570   2.660  12.169  0.00  0.00    +0.000 A 
ATOM     28  N   UNL     1      43.921   3.537  13.162  0.00  0.00    +0.000 N 
ATOM     29  C   UNL     1      44.693   4.651  12.938  0.00  0.00    +0.000 A 
ATOM     30  O   UNL     1      45.041   5.385  13.854  0.00  0.00    +0.000 OA
ATOM     31  C   UNL     1      45.061   4.859  11.550  0.00  0.00    +0.000 A 
ATOM     32  H   UNL     1      43.651   3.370  14.120  0.00  0.00    +0.000 HD
ENDBRANCH  19  22
ENDBRANCH   2  18
TORSDOF 6
ENDMDL
