MODEL 1
REMARK VINA RESULT:    -8.332      0.000      0.000
REMARK INTER + INTRA:         -12.198
REMARK INTER:                 -11.255
REMARK INTRA:                  -0.943
REMARK UNBOUND:                -0.943
REMARK  Name = 
REMARK  7 active torsions:
REMARK  status: ('A' for Active; 'I' for Inactive)
REMARK    1  A    between atoms: C_1  and  N_2
REMARK    2  A    between atoms: N_2  and  C_3
REMARK    3  A    between atoms: C_3  and  C_4
REMARK    4  A    between atoms: C_7  and  C_8
REMARK    5  A    between atoms: C_8  and  N_9
REMARK    6  A    between atoms: C_10  and  C_12
REMARK    7  A    between atoms: C_24  and  C_26
REMARK                            x       y       z     vdW  Elec       q    Type
REMARK                         _______ _______ _______ _____ _____    ______ ____
ROOT
ATOM      1  C   UNL     1      46.442   4.436  13.446  0.00  0.00    +0.000 A 
ATOM      2  C   UNL     1      46.682   3.970  14.749  0.00  0.00    +0.000 A 
ATOM      3  C   UNL     1      47.511   4.681  15.617  0.00  0.00    +0.000 A 
ATOM      4  C   UNL     1      48.107   5.877  15.200  0.00  0.00    +0.000 A 
ATOM      5  C   UNL     1      47.897   6.322  13.887  0.00  0.00    +0.000 A 
ATOM      6  C   UNL     1      47.064   5.614  13.019  0.00  0.00    +0.000 A 
ENDROOT
BRANCH   1   7
ATOM      7  C   UNL     1      45.536   3.663  12.524  0.00  0.00    +0.000 C 
BRANCH   7   9
ATOM      8  C   UNL     1      43.406   5.003  12.902  0.00  0.00    +0.000 C 
ATOM      9  N   UNL     1      44.334   4.324  12.001  0.00  0.00    +0.000 N 
ATOM     10  C   UNL     1      44.009   4.410  10.635  0.00  0.00    +0.000 C 
ATOM     11  O   UNL     1      43.034   5.054  10.243  0.00  0.00    +0.000 OA
BRANCH  10  12
ATOM     12  C   UNL     1      44.845   3.773   9.584  0.00  0.00    +0.000 A 
ATOM     13  C   UNL     1      44.974   2.399   9.381  0.00  0.00    +0.000 A 
ATOM     14  C   UNL     1      45.829   1.917   8.391  0.00  0.00    +0.000 A 
ATOM     15  C   UNL     1      46.482   2.831   7.582  0.00  0.00    +0.000 A 
ATOM     16  N   UNL     1      46.328   4.166   7.697  0.00  0.00    +0.000 NA
ATOM     17  C   UNL     1      45.508   4.607   8.688  0.00  0.00    +0.000 A 
ENDBRANCH  10  12
ENDBRANCH   7   9
ENDBRANCH   1   7
BRANCH   4  18
ATOM     18  C   UNL     1      48.992   6.658  16.133  0.00  0.00    +0.000 C 
BRANCH  18  19
ATOM     19  N   UNL     1      50.082   5.850  16.607  0.00  0.00    +0.000 N 
ATOM     20  C   UNL     1      50.065   5.314  17.867  0.00  0.00    +0.000 C 
ATOM     21  O   UNL     1      49.102   5.447  18.618  0.00  0.00    +0.000 OA
ATOM     22  H   UNL     1      50.959   5.915  16.100  0.00  0.00    +0.000 HD
BRANCH  20  23
ATOM     23  C   UNL     1      51.236   4.520  18.256  0.00  0.00    +0.000 A 
ATOM     24  C   UNL     1      52.245   5.110  19.005  0.00  0.00    +0.000 A 
ATOM     25  S   UNL     1      53.508   4.041  19.412  0.00  0.00    +0.000 S 
ATOM     26  C   UNL     1      52.776   2.765  18.557  0.00  0.00    +0.000 A 
ATOM     27  N   UNL     1      53.370   1.543  18.486  0.00  0.00    +0.000 NA
ATOM     28  C   UNL     1      52.724   0.675  17.783  0.00  0.00    +0.000 A 
ATOM     29  N   UNL     1      51.532   0.916  17.149  0.00  0.00    +0.000 N 
ATOM     30  C   UNL     1      50.882   2.125  17.216  0.00  0.00    +0.000 A 
ATOM     31  O   UNL     1      49.794   2.295  16.671  0.00  0.00    +0.000 OA
ATOM     32  C   UNL     1      51.575   3.141  17.985  0.00  0.00    +0.000 A 
ATOM     33  H   UNL     1      51.074   0.191  16.618  0.00  0.00    +0.000 HD
ENDBRANCH  20  23
ENDBRANCH  18  19
ENDBRANCH   4  18
TORSDOF 6
ENDMDL
MODEL 2
REMARK VINA RESULT:    -7.791      2.624      3.179
REMARK INTER + INTRA:         -11.467
REMARK INTER:                 -10.777
REMARK INTRA:                  -0.690
REMARK UNBOUND:                -0.943
REMARK  Name = 
REMARK  7 active torsions:
REMARK  status: ('A' for Active; 'I' for Inactive)
REMARK    1  A    between atoms: C_1  and  N_2
REMARK    2  A    between atoms: N_2  and  C_3
REMARK    3  A    between atoms: C_3  and  C_4
REMARK    4  A    between atoms: C_7  and  C_8
REMARK    5  A    between atoms: C_8  and  N_9
REMARK    6  A    between atoms: C_10  and  C_12
REMARK    7  A    between atoms: C_24  and  C_26
REMARK                            x       y       z     vdW  Elec       q    Type
REMARK                         _______ _______ _______ _____ _____    ______ ____
ROOT
ATOM      1  C   UNL     1      45.366   6.803  11.616  0.00  0.00    +0.000 A 
ATOM      2  C   UNL     1      46.561   6.177  12.006  0.00  0.00    +0.000 A 
ATOM      3  C   UNL     1      47.455   6.822  12.862  0.00  0.00    +0.000 A 
ATOM      4  C   UNL     1      47.163   8.100  13.351  0.00  0.00    +0.000 A 
ATOM      5  C   UNL     1      45.988   8.740  12.931  0.00  0.00    +0.000 A 
ATOM      6  C   UNL     1      45.091   8.094  12.079  0.00  0.00    +0.000 A 
ENDROOT
BRANCH   1   7
ATOM      7  C   UNL     1      44.406   6.089  10.700  0.00  0.00    +0.000 C 
BRANCH   7   9
ATOM      8  C   UNL     1      42.774   4.968  12.298  0.00  0.00    +0.000 C 
ATOM      9  N   UNL     1      43.726   4.885  11.193  0.00  0.00    +0.000 N 
ATOM     10  C   UNL     1      43.878   3.605  10.632  0.00  0.00    +0.000 C 
ATOM     11  O   UNL     1      43.215   2.644  11.027  0.00  0.00    +0.000 OA
BRANCH  10  12
ATOM     12  C   UNL     1      44.808   3.344   9.502  0.00  0.00    +0.000 A 
ATOM     13  C   UNL     1      45.380   4.322   8.688  0.00  0.00    +0.000 A 
ATOM     14  C   UNL     1      46.201   3.952   7.624  0.00  0.00    +0.000 A 
ATOM     15  C   UNL     1      46.485   2.610   7.446  0.00  0.00    +0.000 A 
ATOM     16  N   UNL     1      46.013   1.639   8.255  0.00  0.00    +0.000 NA
ATOM     17  C   UNL     1      45.194   2.027   9.268  0.00  0.00    +0.000 A 
ENDBRANCH  10  12
ENDBRANCH   7   9
ENDBRANCH   1   7
BRANCH   4  18
ATOM     18  C   UNL     1      48.114   8.798  14.285  0.00  0.00    +0.000 C 
BRANCH  18  19
ATOM     19  N   UNL     1      48.325   8.027  15.478  0.00  0.00    +0.000 N 
ATOM     20  C   UNL     1      49.538   7.446  15.736  0.00  0.00    +0.000 C 
ATOM     21  O   UNL     1      50.507   7.608  14.999  0.00  0.00    +0.000 OA
ATOM     22  H   UNL     1      47.498   7.703  15.972  0.00  0.00    +0.000 HD
BRANCH  20  23
ATOM     23  C   UNL     1      49.640   6.666  16.975  0.00  0.00    +0.000 A 
ATOM     24  C   UNL     1      50.442   7.127  18.010  0.00  0.00    +0.000 A 
ATOM     25  S   UNL     1      50.414   6.132  19.392  0.00  0.00    +0.000 S 
ATOM     26  C   UNL     1      49.368   5.022  18.639  0.00  0.00    +0.000 A 
ATOM     27  N   UNL     1      48.960   3.897  19.286  0.00  0.00    +0.000 NA
ATOM     28  C   UNL     1      48.192   3.128  18.591  0.00  0.00    +0.000 A 
ATOM     29  N   UNL     1      47.789   3.385  17.305  0.00  0.00    +0.000 N 
ATOM     30  C   UNL     1      48.152   4.520  16.621  0.00  0.00    +0.000 A 
ATOM     31  O   UNL     1      47.738   4.740  15.486  0.00  0.00    +0.000 OA
ATOM     32  C   UNL     1      49.027   5.414  17.356  0.00  0.00    +0.000 A 
ATOM     33  H   UNL     1      47.182   2.744  16.817  0.00  0.00    +0.000 HD
ENDBRANCH  20  23
ENDBRANCH  18  19
ENDBRANCH   4  18
TORSDOF 6
ENDMDL
MODEL 3
REMARK VINA RESULT:    -7.555      3.408     10.319
REMARK INTER + INTRA:         -11.148
REMARK INTER:                  -9.772
REMARK INTRA:                  -1.376
REMARK UNBOUND:                -0.943
REMARK  Name = 
REMARK  7 active torsions:
REMARK  status: ('A' for Active; 'I' for Inactive)
REMARK    1  A    between atoms: C_1  and  N_2
REMARK    2  A    between atoms: N_2  and  C_3
REMARK    3  A    between atoms: C_3  and  C_4
REMARK    4  A    between atoms: C_7  and  C_8
REMARK    5  A    between atoms: C_8  and  N_9
REMARK    6  A    between atoms: C_10  and  C_12
REMARK    7  A    between atoms: C_24  and  C_26
REMARK                            x       y       z     vdW  Elec       q    Type
REMARK                         _______ _______ _______ _____ _____    ______ ____
ROOT
ATOM      1  C   UNL     1      51.541   3.723  17.669  0.00  0.00    +0.000 A 
ATOM      2  C   UNL     1      50.742   4.877  17.642  0.00  0.00    +0.000 A 
ATOM      3  C   UNL     1      49.373   4.788  17.382  0.00  0.00    +0.000 A 
ATOM      4  C   UNL     1      48.779   3.541  17.158  0.00  0.00    +0.000 A 
ATOM      5  C   UNL     1      49.585   2.393  17.148  0.00  0.00    +0.000 A 
ATOM      6  C   UNL     1      50.953   2.481  17.411  0.00  0.00    +0.000 A 
ENDROOT
BRANCH   1   7
ATOM      7  C   UNL     1      53.015   3.834  17.961  0.00  0.00    +0.000 C 
BRANCH   7   9
ATOM      8  C   UNL     1      54.282   1.804  18.825  0.00  0.00    +0.000 C 
ATOM      9  N   UNL     1      53.573   3.056  19.074  0.00  0.00    +0.000 N 
ATOM     10  C   UNL     1      53.528   3.459  20.421  0.00  0.00    +0.000 C 
ATOM     11  O   UNL     1      54.091   2.812  21.307  0.00  0.00    +0.000 OA
BRANCH  10  12
ATOM     12  C   UNL     1      52.844   4.707  20.849  0.00  0.00    +0.000 A 
ATOM     13  C   UNL     1      51.515   4.796  21.262  0.00  0.00    +0.000 A 
ATOM     14  C   UNL     1      50.968   6.035  21.594  0.00  0.00    +0.000 A 
ATOM     15  C   UNL     1      51.792   7.146  21.569  0.00  0.00    +0.000 A 
ATOM     16  N   UNL     1      53.100   7.093  21.248  0.00  0.00    +0.000 NA
ATOM     17  C   UNL     1      53.599   5.876  20.904  0.00  0.00    +0.000 A 
ENDBRANCH  10  12
ENDBRANCH   7   9
ENDBRANCH   1   7
BRANCH   4  18
ATOM     18  C   UNL     1      47.303   3.433  16.891  0.00  0.00    +0.000 C 
BRANCH  18  19
ATOM     19  N   UNL     1      46.878   4.416  15.933  0.00  0.00    +0.000 N 
ATOM     20  C   UNL     1      46.943   4.164  14.588  0.00  0.00    +0.000 C 
ATOM     21  O   UNL     1      47.305   3.076  14.147  0.00  0.00    +0.000 OA
ATOM     22  H   UNL     1      46.792   5.374  16.260  0.00  0.00    +0.000 HD
BRANCH  20  23
ATOM     23  C   UNL     1      46.500   5.243  13.698  0.00  0.00    +0.000 A 
ATOM     24  C   UNL     1      47.317   6.349  13.505  0.00  0.00    +0.000 A 
ATOM     25  S   UNL     1      46.679   7.487  12.409  0.00  0.00    +0.000 S 
ATOM     26  C   UNL     1      45.265   6.565  12.191  0.00  0.00    +0.000 A 
ATOM     27  N   UNL     1      44.269   6.998  11.372  0.00  0.00    +0.000 NA
ATOM     28  C   UNL     1      43.242   6.219  11.321  0.00  0.00    +0.000 A 
ATOM     29  N   UNL     1      43.122   5.040  12.011  0.00  0.00    +0.000 N 
ATOM     30  C   UNL     1      44.112   4.548  12.827  0.00  0.00    +0.000 A 
ATOM     31  O   UNL     1      43.991   3.467  13.397  0.00  0.00    +0.000 OA
ATOM     32  C   UNL     1      45.286   5.395  12.929  0.00  0.00    +0.000 A 
ATOM     33  H   UNL     1      42.293   4.472  11.922  0.00  0.00    +0.000 HD
ENDBRANCH  20  23
ENDBRANCH  18  19
ENDBRANCH   4  18
TORSDOF 6
ENDMDL
MODEL 4
REMARK VINA RESULT:    -7.546      3.741      8.578
REMARK INTER + INTRA:         -11.136
REMARK INTER:                  -9.561
REMARK INTRA:                  -1.574
REMARK UNBOUND:                -0.943
REMARK  Name = 
REMARK  7 active torsions:
REMARK  status: ('A' for Active; 'I' for Inactive)
REMARK    1  A    between atoms: C_1  and  N_2
REMARK    2  A    between atoms: N_2  and  C_3
REMARK    3  A    between atoms: C_3  and  C_4
REMARK    4  A    between atoms: C_7  and  C_8
REMARK    5  A    between atoms: C_8  and  N_9
REMARK    6  A    between atoms: C_10  and  C_12
REMARK    7  A    between atoms: C_24  and  C_26
REMARK                            x       y       z     vdW  Elec       q    Type
REMARK                         _______ _______ _______ _____ _____    ______ ____
ROOT
ATOM      1  C   UNL     1      49.035   7.694  16.180  0.00  0.00    +0.000 A 
ATOM      2  C   UNL     1      49.513   6.797  15.211  0.00  0.00    +0.000 A 
ATOM      3  C   UNL     1      49.227   6.991  13.859  0.00  0.00    +0.000 A 
ATOM      4  C   UNL     1      48.466   8.093  13.452  0.00  0.00    +0.000 A 
ATOM      5  C   UNL     1      47.956   8.966  14.423  0.00  0.00    +0.000 A 
ATOM      6  C   UNL     1      48.246   8.776  15.775  0.00  0.00    +0.000 A 
ENDROOT
BRANCH   1   7
ATOM      7  C   UNL     1      49.361   7.476  17.634  0.00  0.00    +0.000 C 
BRANCH   7   9
ATOM      8  C   UNL     1      47.709   8.371  19.351  0.00  0.00    +0.000 C 
ATOM      9  N   UNL     1      48.257   7.259  18.578  0.00  0.00    +0.000 N 
ATOM     10  C   UNL     1      47.615   6.023  18.774  0.00  0.00    +0.000 C 
ATOM     11  O   UNL     1      46.634   5.915  19.512  0.00  0.00    +0.000 OA
BRANCH  10  12
ATOM     12  C   UNL     1      48.048   4.789  18.067  0.00  0.00    +0.000 A 
ATOM     13  C   UNL     1      49.175   4.032  18.387  0.00  0.00    +0.000 A 
ATOM     14  C   UNL     1      49.508   2.917  17.618  0.00  0.00    +0.000 A 
ATOM     15  C   UNL     1      48.660   2.549  16.589  0.00  0.00    +0.000 A 
ATOM     16  N   UNL     1      47.521   3.209  16.295  0.00  0.00    +0.000 NA
ATOM     17  C   UNL     1      47.236   4.307  17.044  0.00  0.00    +0.000 A 
ENDBRANCH  10  12
ENDBRANCH   7   9
ENDBRANCH   1   7
BRANCH   4  18
ATOM     18  C   UNL     1      48.163   8.319  11.996  0.00  0.00    +0.000 C 
BRANCH  18  19
ATOM     19  N   UNL     1      47.515   7.173  11.420  0.00  0.00    +0.000 N 
ATOM     20  C   UNL     1      46.149   7.080  11.384  0.00  0.00    +0.000 C 
ATOM     21  O   UNL     1      45.424   7.989  11.782  0.00  0.00    +0.000 OA
ATOM     22  H   UNL     1      48.079   6.337  11.295  0.00  0.00    +0.000 HD
BRANCH  20  23
ATOM     23  C   UNL     1      45.592   5.860  10.788  0.00  0.00    +0.000 A 
ATOM     24  C   UNL     1      45.799   5.601   9.440  0.00  0.00    +0.000 A 
ATOM     25  S   UNL     1      45.128   4.125   8.917  0.00  0.00    +0.000 S 
ATOM     26  C   UNL     1      44.495   3.802  10.463  0.00  0.00    +0.000 A 
ATOM     27  N   UNL     1      43.770   2.675  10.699  0.00  0.00    +0.000 NA
ATOM     28  C   UNL     1      43.325   2.569  11.905  0.00  0.00    +0.000 A 
ATOM     29  N   UNL     1      43.543   3.486  12.902  0.00  0.00    +0.000 N 
ATOM     30  C   UNL     1      44.292   4.624  12.718  0.00  0.00    +0.000 A 
ATOM     31  O   UNL     1      44.504   5.403  13.643  0.00  0.00    +0.000 OA
ATOM     32  C   UNL     1      44.806   4.797  11.373  0.00  0.00    +0.000 A 
ATOM     33  H   UNL     1      43.171   3.340  13.828  0.00  0.00    +0.000 HD
ENDBRANCH  20  23
ENDBRANCH  18  19
ENDBRANCH   4  18
TORSDOF 6
ENDMDL
MODEL 5
REMARK VINA RESULT:    -7.512      3.540      4.187
REMARK INTER + INTRA:         -11.090
REMARK INTER:                 -10.034
REMARK INTRA:                  -1.056
REMARK UNBOUND:                -0.943
REMARK  Name = 
REMARK  7 active torsions:
REMARK  status: ('A' for Active; 'I' for Inactive)
REMARK    1  A    between atoms: C_1  and  N_2
REMARK    2  A    between atoms: N_2  and  C_3
REMARK    3  A    between atoms: C_3  and  C_4
REMARK    4  A    between atoms: C_7  and  C_8
REMARK    5  A    between atoms: C_8  and  N_9
REMARK    6  A    between atoms: C_10  and  C_12
REMARK    7  A    between atoms: C_24  and  C_26
REMARK                            x       y       z     vdW  Elec       q    Type
REMARK                         _______ _______ _______ _____ _____    ______ ____
ROOT
ATOM      1  C   UNL     1      46.492   4.792  13.330  0.00  0.00    +0.000 A 
ATOM      2  C   UNL     1      46.936   5.948  12.667  0.00  0.00    +0.000 A 
ATOM      3  C   UNL     1      47.860   6.802  13.270  0.00  0.00    +0.000 A 
ATOM      4  C   UNL     1      48.365   6.508  14.542  0.00  0.00    +0.000 A 
ATOM      5  C   UNL     1      47.892   5.375  15.219  0.00  0.00    +0.000 A 
ATOM      6  C   UNL     1      46.971   4.517  14.615  0.00  0.00    +0.000 A 
ENDROOT
BRANCH   1   7
ATOM      7  C   UNL     1      45.501   3.875  12.662  0.00  0.00    +0.000 C 
BRANCH   7   9
ATOM      8  C   UNL     1      43.291   5.052  13.115  0.00  0.00    +0.000 C 
ATOM      9  N   UNL     1      44.233   4.438  12.183  0.00  0.00    +0.000 N 
ATOM     10  C   UNL     1      43.850   4.488  10.830  0.00  0.00    +0.000 C 
ATOM     11  O   UNL     1      42.814   5.052  10.472  0.00  0.00    +0.000 OA
BRANCH  10  12
ATOM     12  C   UNL     1      44.692   3.908   9.750  0.00  0.00    +0.000 A 
ATOM     13  C   UNL     1      44.767   2.552   9.428  0.00  0.00    +0.000 A 
ATOM     14  C   UNL     1      45.632   2.121   8.424  0.00  0.00    +0.000 A 
ATOM     15  C   UNL     1      46.350   3.070   7.720  0.00  0.00    +0.000 A 
ATOM     16  N   UNL     1      46.251   4.396   7.949  0.00  0.00    +0.000 NA
ATOM     17  C   UNL     1      45.419   4.785   8.951  0.00  0.00    +0.000 A 
ENDBRANCH  10  12
ENDBRANCH   7   9
ENDBRANCH   1   7
BRANCH   4  18
ATOM     18  C   UNL     1      49.372   7.415  15.195  0.00  0.00    +0.000 C 
BRANCH  18  19
ATOM     19  N   UNL     1      49.118   7.539  16.604  0.00  0.00    +0.000 N 
ATOM     20  C   UNL     1      48.363   8.570  17.095  0.00  0.00    +0.000 C 
ATOM     21  O   UNL     1      47.824   9.392  16.357  0.00  0.00    +0.000 OA
ATOM     22  H   UNL     1      49.723   7.017  17.230  0.00  0.00    +0.000 HD
BRANCH  20  23
ATOM     23  C   UNL     1      48.180   8.611  18.551  0.00  0.00    +0.000 A 
ATOM     24  C   UNL     1      48.364   9.808  19.230  0.00  0.00    +0.000 A 
ATOM     25  S   UNL     1      48.069   9.696  20.904  0.00  0.00    +0.000 S 
ATOM     26  C   UNL     1      47.732   8.032  20.788  0.00  0.00    +0.000 A 
ATOM     27  N   UNL     1      47.420   7.305  21.895  0.00  0.00    +0.000 NA
ATOM     28  C   UNL     1      47.217   6.051  21.671  0.00  0.00    +0.000 A 
ATOM     29  N   UNL     1      47.291   5.457  20.437  0.00  0.00    +0.000 N 
ATOM     30  C   UNL     1      47.574   6.155  19.288  0.00  0.00    +0.000 A 
ATOM     31  O   UNL     1      47.591   5.600  18.192  0.00  0.00    +0.000 OA
ATOM     32  C   UNL     1      47.824   7.570  19.488  0.00  0.00    +0.000 A 
ATOM     33  H   UNL     1      47.115   4.469  20.328  0.00  0.00    +0.000 HD
ENDBRANCH  20  23
ENDBRANCH  18  19
ENDBRANCH   4  18
TORSDOF 6
ENDMDL
MODEL 6
REMARK VINA RESULT:    -7.488      3.522      8.852
REMARK INTER + INTRA:         -11.058
REMARK INTER:                  -9.450
REMARK INTRA:                  -1.609
REMARK UNBOUND:                -0.943
REMARK  Name = 
REMARK  7 active torsions:
REMARK  status: ('A' for Active; 'I' for Inactive)
REMARK    1  A    between atoms: C_1  and  N_2
REMARK    2  A    between atoms: N_2  and  C_3
REMARK    3  A    between atoms: C_3  and  C_4
REMARK    4  A    between atoms: C_7  and  C_8
REMARK    5  A    between atoms: C_8  and  N_9
REMARK    6  A    between atoms: C_10  and  C_12
REMARK    7  A    between atoms: C_24  and  C_26
REMARK                            x       y       z     vdW  Elec       q    Type
REMARK                         _______ _______ _______ _____ _____    ______ ____
ROOT
ATOM      1  C   UNL     1      49.249   7.773  16.151  0.00  0.00    +0.000 A 
ATOM      2  C   UNL     1      48.263   8.710  15.800  0.00  0.00    +0.000 A 
ATOM      3  C   UNL     1      47.737   8.737  14.508  0.00  0.00    +0.000 A 
ATOM      4  C   UNL     1      48.181   7.821  13.547  0.00  0.00    +0.000 A 
ATOM      5  C   UNL     1      49.193   6.912  13.888  0.00  0.00    +0.000 A 
ATOM      6  C   UNL     1      49.716   6.880  15.182  0.00  0.00    +0.000 A 
ENDROOT
BRANCH   1   7
ATOM      7  C   UNL     1      49.799   7.749  17.554  0.00  0.00    +0.000 C 
BRANCH   7   9
ATOM      8  C   UNL     1      48.564   8.779  19.526  0.00  0.00    +0.000 C 
ATOM      9  N   UNL     1      48.860   7.629  18.676  0.00  0.00    +0.000 N 
ATOM     10  C   UNL     1      48.144   6.458  18.987  0.00  0.00    +0.000 C 
ATOM     11  O   UNL     1      47.301   6.436  19.885  0.00  0.00    +0.000 OA
BRANCH  10  12
ATOM     12  C   UNL     1      48.327   5.196  18.223  0.00  0.00    +0.000 A 
ATOM     13  C   UNL     1      49.456   4.378  18.277  0.00  0.00    +0.000 A 
ATOM     14  C   UNL     1      49.534   3.241  17.475  0.00  0.00    +0.000 A 
ATOM     15  C   UNL     1      48.443   2.914  16.688  0.00  0.00    +0.000 A 
ATOM     16  N   UNL     1      47.304   3.636  16.662  0.00  0.00    +0.000 NA
ATOM     17  C   UNL     1      47.268   4.754  17.435  0.00  0.00    +0.000 A 
ENDBRANCH  10  12
ENDBRANCH   7   9
ENDBRANCH   1   7
BRANCH   4  18
ATOM     18  C   UNL     1      47.612   7.834  12.155  0.00  0.00    +0.000 C 
BRANCH  18  19
ATOM     19  N   UNL     1      46.916   6.609  11.871  0.00  0.00    +0.000 N 
ATOM     20  C   UNL     1      45.556   6.524  12.008  0.00  0.00    +0.000 C 
ATOM     21  O   UNL     1      44.871   7.496  12.317  0.00  0.00    +0.000 OA
ATOM     22  H   UNL     1      47.471   5.760  11.835  0.00  0.00    +0.000 HD
BRANCH  20  23
ATOM     23  C   UNL     1      44.949   5.222  11.709  0.00  0.00    +0.000 A 
ATOM     24  C   UNL     1      44.243   4.552  12.699  0.00  0.00    +0.000 A 
ATOM     25  S   UNL     1      43.563   3.080  12.176  0.00  0.00    +0.000 S 
ATOM     26  C   UNL     1      44.231   3.260  10.622  0.00  0.00    +0.000 A 
ATOM     27  N   UNL     1      44.043   2.310   9.667  0.00  0.00    +0.000 NA
ATOM     28  C   UNL     1      44.627   2.557   8.544  0.00  0.00    +0.000 A 
ATOM     29  N   UNL     1      45.380   3.674   8.285  0.00  0.00    +0.000 N 
ATOM     30  C   UNL     1      45.574   4.673   9.208  0.00  0.00    +0.000 A 
ATOM     31  O   UNL     1      46.219   5.682   8.930  0.00  0.00    +0.000 OA
ATOM     32  C   UNL     1      44.947   4.437  10.495  0.00  0.00    +0.000 A 
ATOM     33  H   UNL     1      45.807   3.811   7.381  0.00  0.00    +0.000 HD
ENDBRANCH  20  23
ENDBRANCH  18  19
ENDBRANCH   4  18
TORSDOF 6
ENDMDL
MODEL 7
REMARK VINA RESULT:    -7.376      3.332      4.987
REMARK INTER + INTRA:         -10.906
REMARK INTER:                  -9.809
REMARK INTRA:                  -1.097
REMARK UNBOUND:                -0.943
REMARK  Name = 
REMARK  7 active torsions:
REMARK  status: ('A' for Active; 'I' for Inactive)
REMARK    1  A    between atoms: C_1  and  N_2
REMARK    2  A    between atoms: N_2  and  C_3
REMARK    3  A    between atoms: C_3  and  C_4
REMARK    4  A    between atoms: C_7  and  C_8
REMARK    5  A    between atoms: C_8  and  N_9
REMARK    6  A    between atoms: C_10  and  C_12
REMARK    7  A    between atoms: C_24  and  C_26
REMARK                            x       y       z     vdW  Elec       q    Type
REMARK                         _______ _______ _______ _____ _____    ______ ____
ROOT
ATOM      1  C   UNL     1      46.486   4.575  13.365  0.00  0.00    +0.000 A 
ATOM      2  C   UNL     1      46.963   5.792  12.852  0.00  0.00    +0.000 A 
ATOM      3  C   UNL     1      47.796   6.608  13.618  0.00  0.00    +0.000 A 
ATOM      4  C   UNL     1      48.177   6.215  14.906  0.00  0.00    +0.000 A 
ATOM      5  C   UNL     1      47.669   5.017  15.432  0.00  0.00    +0.000 A 
ATOM      6  C   UNL     1      46.839   4.198  14.665  0.00  0.00    +0.000 A 
ENDROOT
BRANCH   1   7
ATOM      7  C   UNL     1      45.595   3.700  12.522  0.00  0.00    +0.000 C 
BRANCH   7   9
ATOM      8  C   UNL     1      43.362   4.844  12.946  0.00  0.00    +0.000 C 
ATOM      9  N   UNL     1      44.330   4.255  12.025  0.00  0.00    +0.000 N 
ATOM     10  C   UNL     1      43.976   4.321  10.665  0.00  0.00    +0.000 C 
ATOM     11  O   UNL     1      42.941   4.879  10.294  0.00  0.00    +0.000 OA
BRANCH  10  12
ATOM     12  C   UNL     1      44.846   3.767   9.595  0.00  0.00    +0.000 A 
ATOM     13  C   UNL     1      45.013   2.410   9.315  0.00  0.00    +0.000 A 
ATOM     14  C   UNL     1      45.898   2.008   8.316  0.00  0.00    +0.000 A 
ATOM     15  C   UNL     1      46.542   2.982   7.574  0.00  0.00    +0.000 A 
ATOM     16  N   UNL     1      46.352   4.304   7.763  0.00  0.00    +0.000 NA
ATOM     17  C   UNL     1      45.504   4.666   8.761  0.00  0.00    +0.000 A 
ENDBRANCH  10  12
ENDBRANCH   7   9
ENDBRANCH   1   7
BRANCH   4  18
ATOM     18  C   UNL     1      49.086   7.080  15.735  0.00  0.00    +0.000 C 
BRANCH  18  19
ATOM     19  N   UNL     1      48.509   7.351  17.023  0.00  0.00    +0.000 N 
ATOM     20  C   UNL     1      49.217   7.126  18.173  0.00  0.00    +0.000 C 
ATOM     21  O   UNL     1      50.385   6.746  18.155  0.00  0.00    +0.000 OA
ATOM     22  H   UNL     1      47.499   7.447  17.065  0.00  0.00    +0.000 HD
BRANCH  20  23
ATOM     23  C   UNL     1      48.526   7.420  19.434  0.00  0.00    +0.000 A 
ATOM     24  C   UNL     1      48.554   6.488  20.462  0.00  0.00    +0.000 A 
ATOM     25  S   UNL     1      47.745   7.001  21.872  0.00  0.00    +0.000 S 
ATOM     26  C   UNL     1      47.287   8.468  21.140  0.00  0.00    +0.000 A 
ATOM     27  N   UNL     1      46.536   9.379  21.815  0.00  0.00    +0.000 NA
ATOM     28  C   UNL     1      46.235  10.433  21.135  0.00  0.00    +0.000 A 
ATOM     29  N   UNL     1      46.622  10.662  19.839  0.00  0.00    +0.000 N 
ATOM     30  C   UNL     1      47.403   9.784  19.127  0.00  0.00    +0.000 A 
ATOM     31  O   UNL     1      47.768  10.040  17.982  0.00  0.00    +0.000 OA
ATOM     32  C   UNL     1      47.760   8.575  19.845  0.00  0.00    +0.000 A 
ATOM     33  H   UNL     1      46.357  11.512  19.364  0.00  0.00    +0.000 HD
ENDBRANCH  20  23
ENDBRANCH  18  19
ENDBRANCH   4  18
TORSDOF 6
ENDMDL
MODEL 8
REMARK VINA RESULT:    -7.171      2.845      4.105
REMARK INTER + INTRA:         -10.630
REMARK INTER:                 -10.288
REMARK INTRA:                  -0.342
REMARK UNBOUND:                -0.943
REMARK  Name = 
REMARK  7 active torsions:
REMARK  status: ('A' for Active; 'I' for Inactive)
REMARK    1  A    between atoms: C_1  and  N_2
REMARK    2  A    between atoms: N_2  and  C_3
REMARK    3  A    between atoms: C_3  and  C_4
REMARK    4  A    between atoms: C_7  and  C_8
REMARK    5  A    between atoms: C_8  and  N_9
REMARK    6  A    between atoms: C_10  and  C_12
REMARK    7  A    between atoms: C_24  and  C_26
REMARK                            x       y       z     vdW  Elec       q    Type
REMARK                         _______ _______ _______ _____ _____    ______ ____
ROOT
ATOM      1  C   UNL     1      45.914   6.256  12.114  0.00  0.00    +0.000 A 
ATOM      2  C   UNL     1      46.738   7.370  11.885  0.00  0.00    +0.000 A 
ATOM      3  C   UNL     1      47.846   7.613  12.697  0.00  0.00    +0.000 A 
ATOM      4  C   UNL     1      48.156   6.739  13.745  0.00  0.00    +0.000 A 
ATOM      5  C   UNL     1      47.311   5.648  13.997  0.00  0.00    +0.000 A 
ATOM      6  C   UNL     1      46.205   5.402  13.182  0.00  0.00    +0.000 A 
ENDROOT
BRANCH   1   7
ATOM      7  C   UNL     1      44.727   6.002  11.222  0.00  0.00    +0.000 C 
BRANCH   7   9
ATOM      8  C   UNL     1      42.873   5.007  12.654  0.00  0.00    +0.000 C 
ATOM      9  N   UNL     1      43.824   4.892  11.551  0.00  0.00    +0.000 N 
ATOM     10  C   UNL     1      43.755   3.687  10.828  0.00  0.00    +0.000 C 
ATOM     11  O   UNL     1      42.917   2.823  11.092  0.00  0.00    +0.000 OA
BRANCH  10  12
ATOM     12  C   UNL     1      44.652   3.406   9.677  0.00  0.00    +0.000 A 
ATOM     13  C   UNL     1      45.153   2.149   9.335  0.00  0.00    +0.000 A 
ATOM     14  C   UNL     1      46.029   2.017   8.258  0.00  0.00    +0.000 A 
ATOM     15  C   UNL     1      46.327   3.141   7.509  0.00  0.00    +0.000 A 
ATOM     16  N   UNL     1      45.806   4.360   7.760  0.00  0.00    +0.000 NA
ATOM     17  C   UNL     1      44.975   4.463   8.831  0.00  0.00    +0.000 A 
ENDBRANCH  10  12
ENDBRANCH   7   9
ENDBRANCH   1   7
BRANCH   4  18
ATOM     18  C   UNL     1      49.356   6.984  14.618  0.00  0.00    +0.000 C 
BRANCH  18  19
ATOM     19  N   UNL     1      49.022   6.840  16.008  0.00  0.00    +0.000 N 
ATOM     20  C   UNL     1      49.855   6.174  16.868  0.00  0.00    +0.000 C 
ATOM     21  O   UNL     1      50.942   5.729  16.507  0.00  0.00    +0.000 OA
ATOM     22  H   UNL     1      48.053   6.998  16.269  0.00  0.00    +0.000 HD
BRANCH  20  23
ATOM     23  C   UNL     1      49.408   6.070  18.262  0.00  0.00    +0.000 A 
ATOM     24  C   UNL     1      49.294   4.819  18.852  0.00  0.00    +0.000 A 
ATOM     25  S   UNL     1      48.810   4.875  20.484  0.00  0.00    +0.000 S 
ATOM     26  C   UNL     1      48.689   6.572  20.447  0.00  0.00    +0.000 A 
ATOM     27  N   UNL     1      48.288   7.268  21.545  0.00  0.00    +0.000 NA
ATOM     28  C   UNL     1      48.211   8.543  21.372  0.00  0.00    +0.000 A 
ATOM     29  N   UNL     1      48.504   9.190  20.198  0.00  0.00    +0.000 N 
ATOM     30  C   UNL     1      48.939   8.534  19.072  0.00  0.00    +0.000 A 
ATOM     31  O   UNL     1      49.234   9.147  18.050  0.00  0.00    +0.000 OA
ATOM     32  C   UNL     1      49.031   7.092  19.211  0.00  0.00    +0.000 A 
ATOM     33  H   UNL     1      48.429  10.194  20.129  0.00  0.00    +0.000 HD
ENDBRANCH  20  23
ENDBRANCH  18  19
ENDBRANCH   4  18
TORSDOF 6
ENDMDL
MODEL 9
REMARK VINA RESULT:    -6.923      2.178      2.947
REMARK INTER + INTRA:         -10.294
REMARK INTER:                  -9.085
REMARK INTRA:                  -1.210
REMARK UNBOUND:                -0.943
REMARK  Name = 
REMARK  7 active torsions:
REMARK  status: ('A' for Active; 'I' for Inactive)
REMARK    1  A    between atoms: C_1  and  N_2
REMARK    2  A    between atoms: N_2  and  C_3
REMARK    3  A    between atoms: C_3  and  C_4
REMARK    4  A    between atoms: C_7  and  C_8
REMARK    5  A    between atoms: C_8  and  N_9
REMARK    6  A    between atoms: C_10  and  C_12
REMARK    7  A    between atoms: C_24  and  C_26
REMARK                            x       y       z     vdW  Elec       q    Type
REMARK                         _______ _______ _______ _____ _____    ______ ____
ROOT
ATOM      1  C   UNL     1      46.529   5.128  12.987  0.00  0.00    +0.000 A 
ATOM      2  C   UNL     1      46.938   6.115  12.076  0.00  0.00    +0.000 A 
ATOM      3  C   UNL     1      47.918   7.045  12.428  0.00  0.00    +0.000 A 
ATOM      4  C   UNL     1      48.513   6.996  13.693  0.00  0.00    +0.000 A 
ATOM      5  C   UNL     1      48.077   6.034  14.616  0.00  0.00    +0.000 A 
ATOM      6  C   UNL     1      47.101   5.101  14.263  0.00  0.00    +0.000 A 
ENDROOT
BRANCH   1   7
ATOM      7  C   UNL     1      45.478   4.125  12.589  0.00  0.00    +0.000 C 
BRANCH   7   9
ATOM      8  C   UNL     1      43.252   5.303  12.949  0.00  0.00    +0.000 C 
ATOM      9  N   UNL     1      44.196   4.617  12.071  0.00  0.00    +0.000 N 
ATOM     10  C   UNL     1      43.801   4.529  10.724  0.00  0.00    +0.000 C 
ATOM     11  O   UNL     1      42.752   5.038  10.324  0.00  0.00    +0.000 OA
BRANCH  10  12
ATOM     12  C   UNL     1      44.643   3.861   9.697  0.00  0.00    +0.000 A 
ATOM     13  C   UNL     1      45.456   4.516   8.772  0.00  0.00    +0.000 A 
ATOM     14  C   UNL     1      46.164   3.781   7.822  0.00  0.00    +0.000 A 
ATOM     15  C   UNL     1      46.093   2.400   7.869  0.00  0.00    +0.000 A 
ATOM     16  N   UNL     1      45.378   1.726   8.793  0.00  0.00    +0.000 NA
ATOM     17  C   UNL     1      44.677   2.469   9.690  0.00  0.00    +0.000 A 
ENDBRANCH  10  12
ENDBRANCH   7   9
ENDBRANCH   1   7
BRANCH   4  18
ATOM     18  C   UNL     1      49.579   7.985  14.077  0.00  0.00    +0.000 C 
BRANCH  18  19
ATOM     19  N   UNL     1      49.931   7.853  15.464  0.00  0.00    +0.000 N 
ATOM     20  C   UNL     1      51.232   7.661  15.846  0.00  0.00    +0.000 C 
ATOM     21  O   UNL     1      52.154   7.655  15.035  0.00  0.00    +0.000 OA
ATOM     22  H   UNL     1      49.180   7.635  16.112  0.00  0.00    +0.000 HD
BRANCH  20  23
ATOM     23  C   UNL     1      51.477   7.521  17.286  0.00  0.00    +0.000 A 
ATOM     24  C   UNL     1      52.153   8.526  17.965  0.00  0.00    +0.000 A 
ATOM     25  S   UNL     1      52.314   8.232  19.636  0.00  0.00    +0.000 S 
ATOM     26  C   UNL     1      51.529   6.729  19.503  0.00  0.00    +0.000 A 
ATOM     27  N   UNL     1      51.355   5.934  20.593  0.00  0.00    +0.000 NA
ATOM     28  C   UNL     1      50.771   4.810  20.348  0.00  0.00    +0.000 A 
ATOM     29  N   UNL     1      50.340   4.409  19.109  0.00  0.00    +0.000 N 
ATOM     30  C   UNL     1      50.469   5.189  17.985  0.00  0.00    +0.000 A 
ATOM     31  O   UNL     1      50.033   4.818  16.898  0.00  0.00    +0.000 OA
ATOM     32  C   UNL     1      51.131   6.461  18.205  0.00  0.00    +0.000 A 
ATOM     33  H   UNL     1      49.885   3.517  18.984  0.00  0.00    +0.000 HD
ENDBRANCH  20  23
ENDBRANCH  18  19
ENDBRANCH   4  18
TORSDOF 6
ENDMDL
