MODEL 1
REMARK VINA RESULT:    -8.694      0.000      0.000
REMARK INTER + INTRA:         -13.680
REMARK INTER:                 -12.760
REMARK INTRA:                  -0.919
REMARK UNBOUND:                -0.919
REMARK  Name = 
REMARK  9 active torsions:
REMARK  status: ('A' for Active; 'I' for Inactive)
REMARK    1  A    between atoms: C_1  and  C_2
REMARK    2  A    between atoms: C_2  and  O_3
REMARK    3  A    between atoms: O_3  and  C_4
REMARK    4  A    between atoms: C_4  and  C_5
REMARK    5  A    between atoms: C_4  and  C_12
REMARK    6  A    between atoms: C_5  and  C_6
REMARK    7  A    between atoms: C_15  and  C_16
REMARK    8  A    between atoms: C_16  and  N_17
REMARK    9  A    between atoms: C_18  and  C_20
REMARK                            x       y       z     vdW  Elec       q    Type
REMARK                         _______ _______ _______ _____ _____    ______ ____
ROOT
ATOM      1  C   UNL     1      45.408   4.476  11.401  0.00  0.00    +0.000 A 
ATOM      2  C   UNL     1      45.808   5.698  10.832  0.00  0.00    +0.000 A 
ATOM      3  C   UNL     1      46.714   6.545  11.483  0.00  0.00    +0.000 A 
ATOM      4  C   UNL     1      47.246   6.197  12.727  0.00  0.00    +0.000 A 
ATOM      5  C   UNL     1      46.797   5.024  13.340  0.00  0.00    +0.000 A 
ATOM      6  C   UNL     1      45.888   4.181  12.689  0.00  0.00    +0.000 A 
ENDROOT
BRANCH   1   7
ATOM      7  C   UNL     1      44.472   3.534  10.631  0.00  0.00    +0.000 C 
BRANCH   7   8
ATOM      8  O   UNL     1      43.149   3.635  11.199  0.00  0.00    +0.000 OA
BRANCH   8  10
ATOM      9  C   UNL     1      42.641   5.314  12.814  0.00  0.00    +0.000 C 
ATOM     10  C   UNL     1      42.631   4.952  11.340  0.00  0.00    +0.000 C 
ENDBRANCH   8  10
ENDBRANCH   7   8
BRANCH   7  11
ATOM     11  C   UNL     1      44.475   3.739   9.086  0.00  0.00    +0.000 C 
BRANCH  11  12
ATOM     12  C   UNL     1      45.505   2.974   8.274  0.00  0.00    +0.000 A 
ATOM     13  C   UNL     1      46.190   3.639   7.246  0.00  0.00    +0.000 A 
ATOM     14  C   UNL     1      47.102   2.957   6.438  0.00  0.00    +0.000 A 
ATOM     15  C   UNL     1      47.356   1.605   6.657  0.00  0.00    +0.000 A 
ATOM     16  C   UNL     1      46.719   0.944   7.701  0.00  0.00    +0.000 A 
ATOM     17  C   UNL     1      45.811   1.627   8.509  0.00  0.00    +0.000 A 
ENDBRANCH  11  12
ENDBRANCH   7  11
ENDBRANCH   1   7
BRANCH   4  18
ATOM     18  C   UNL     1      48.264   7.074  13.407  0.00  0.00    +0.000 C 
BRANCH  18  19
ATOM     19  N   UNL     1      48.076   7.088  14.835  0.00  0.00    +0.000 N 
ATOM     20  C   UNL     1      49.125   6.862  15.687  0.00  0.00    +0.000 C 
ATOM     21  O   UNL     1      50.270   6.688  15.278  0.00  0.00    +0.000 OA
ATOM     22  H   UNL     1      47.123   7.013  15.174  0.00  0.00    +0.000 HD
BRANCH  20  23
ATOM     23  C   UNL     1      48.824   6.897  17.123  0.00  0.00    +0.000 A 
ATOM     24  C   UNL     1      48.451   8.095  17.717  0.00  0.00    +0.000 A 
ATOM     25  S   UNL     1      48.091   7.954  19.377  0.00  0.00    +0.000 S 
ATOM     26  C   UNL     1      48.474   6.296  19.374  0.00  0.00    +0.000 A 
ATOM     27  N   UNL     1      48.404   5.560  20.516  0.00  0.00    +0.000 NA
ATOM     28  C   UNL     1      48.751   4.323  20.375  0.00  0.00    +0.000 A 
ATOM     29  N   UNL     1      49.156   3.756  19.198  0.00  0.00    +0.000 N 
ATOM     30  C   UNL     1      49.215   4.452  18.014  0.00  0.00    +0.000 A 
ATOM     31  O   UNL     1      49.543   3.900  16.966  0.00  0.00    +0.000 OA
ATOM     32  C   UNL     1      48.851   5.851  18.119  0.00  0.00    +0.000 A 
ATOM     33  H   UNL     1      49.411   2.779  19.153  0.00  0.00    +0.000 HD
ENDBRANCH  20  23
ENDBRANCH  18  19
ENDBRANCH   4  18
TORSDOF 8
ENDMDL
MODEL 2
REMARK VINA RESULT:    -8.524      1.285      2.121
REMARK INTER + INTRA:         -13.429
REMARK INTER:                 -12.220
REMARK INTRA:                  -1.209
REMARK UNBOUND:                -0.919
REMARK  Name = 
REMARK  9 active torsions:
REMARK  status: ('A' for Active; 'I' for Inactive)
REMARK    1  A    between atoms: C_1  and  C_2
REMARK    2  A    between atoms: C_2  and  O_3
REMARK    3  A    between atoms: O_3  and  C_4
REMARK    4  A    between atoms: C_4  and  C_5
REMARK    5  A    between atoms: C_4  and  C_12
REMARK    6  A    between atoms: C_5  and  C_6
REMARK    7  A    between atoms: C_15  and  C_16
REMARK    8  A    between atoms: C_16  and  N_17
REMARK    9  A    between atoms: C_18  and  C_20
REMARK                            x       y       z     vdW  Elec       q    Type
REMARK                         _______ _______ _______ _____ _____    ______ ____
ROOT
ATOM      1  C   UNL     1      45.437   4.423  11.477  0.00  0.00    +0.000 A 
ATOM      2  C   UNL     1      45.933   4.026  12.731  0.00  0.00    +0.000 A 
ATOM      3  C   UNL     1      46.764   4.864  13.486  0.00  0.00    +0.000 A 
ATOM      4  C   UNL     1      47.128   6.125  13.007  0.00  0.00    +0.000 A 
ATOM      5  C   UNL     1      46.706   6.500  11.729  0.00  0.00    +0.000 A 
ATOM      6  C   UNL     1      45.879   5.659  10.974  0.00  0.00    +0.000 A 
ENDROOT
BRANCH   1   7
ATOM      7  C   UNL     1      44.468   3.514  10.706  0.00  0.00    +0.000 C 
BRANCH   7   8
ATOM      8  O   UNL     1      43.156   3.638  11.293  0.00  0.00    +0.000 OA
BRANCH   8  10
ATOM      9  C   UNL     1      42.666   5.361  12.867  0.00  0.00    +0.000 C 
ATOM     10  C   UNL     1      42.646   4.961  11.403  0.00  0.00    +0.000 C 
ENDBRANCH   8  10
ENDBRANCH   7   8
BRANCH   7  11
ATOM     11  C   UNL     1      44.457   3.742   9.163  0.00  0.00    +0.000 C 
BRANCH  11  12
ATOM     12  C   UNL     1      45.486   2.998   8.331  0.00  0.00    +0.000 A 
ATOM     13  C   UNL     1      46.161   3.686   7.312  0.00  0.00    +0.000 A 
ATOM     14  C   UNL     1      47.072   3.023   6.486  0.00  0.00    +0.000 A 
ATOM     15  C   UNL     1      47.335   1.669   6.680  0.00  0.00    +0.000 A 
ATOM     16  C   UNL     1      46.708   0.986   7.715  0.00  0.00    +0.000 A 
ATOM     17  C   UNL     1      45.800   1.649   8.541  0.00  0.00    +0.000 A 
ENDBRANCH  11  12
ENDBRANCH   7  11
ENDBRANCH   1   7
BRANCH   4  18
ATOM     18  C   UNL     1      47.972   7.055  13.837  0.00  0.00    +0.000 C 
BRANCH  18  19
ATOM     19  N   UNL     1      47.897   6.723  15.237  0.00  0.00    +0.000 N 
ATOM     20  C   UNL     1      49.027   6.426  15.953  0.00  0.00    +0.000 C 
ATOM     21  O   UNL     1      50.148   6.477  15.452  0.00  0.00    +0.000 OA
ATOM     22  H   UNL     1      46.985   6.468  15.602  0.00  0.00    +0.000 HD
BRANCH  20  23
ATOM     23  C   UNL     1      48.840   6.100  17.372  0.00  0.00    +0.000 A 
ATOM     24  C   UNL     1      49.132   4.821  17.827  0.00  0.00    +0.000 A 
ATOM     25  S   UNL     1      48.906   4.622  19.504  0.00  0.00    +0.000 S 
ATOM     26  C   UNL     1      48.357   6.224  19.674  0.00  0.00    +0.000 A 
ATOM     27  N   UNL     1      47.962   6.703  20.885  0.00  0.00    +0.000 NA
ATOM     28  C   UNL     1      47.541   7.924  20.864  0.00  0.00    +0.000 A 
ATOM     29  N   UNL     1      47.483   8.709  19.745  0.00  0.00    +0.000 N 
ATOM     30  C   UNL     1      47.898   8.279  18.507  0.00  0.00    +0.000 A 
ATOM     31  O   UNL     1      47.872   9.026  17.531  0.00  0.00    +0.000 OA
ATOM     32  C   UNL     1      48.366   6.908  18.471  0.00  0.00    +0.000 A 
ATOM     33  H   UNL     1      47.147   9.661  19.795  0.00  0.00    +0.000 HD
ENDBRANCH  20  23
ENDBRANCH  18  19
ENDBRANCH   4  18
TORSDOF 8
ENDMDL
MODEL 3
REMARK VINA RESULT:    -7.343      4.584      5.826
REMARK INTER + INTRA:         -11.696
REMARK INTER:                 -10.101
REMARK INTRA:                  -1.595
REMARK UNBOUND:                -0.919
REMARK  Name = 
REMARK  9 active torsions:
REMARK  status: ('A' for Active; 'I' for Inactive)
REMARK    1  A    between atoms: C_1  and  C_2
REMARK    2  A    between atoms: C_2  and  O_3
REMARK    3  A    between atoms: O_3  and  C_4
REMARK    4  A    between atoms: C_4  and  C_5
REMARK    5  A    between atoms: C_4  and  C_12
REMARK    6  A    between atoms: C_5  and  C_6
REMARK    7  A    between atoms: C_15  and  C_16
REMARK    8  A    between atoms: C_16  and  N_17
REMARK    9  A    between atoms: C_18  and  C_20
REMARK                            x       y       z     vdW  Elec       q    Type
REMARK                         _______ _______ _______ _____ _____    ______ ____
ROOT
ATOM      1  C   UNL     1      45.483   6.068  11.193  0.00  0.00    +0.000 A 
ATOM      2  C   UNL     1      44.772   7.280  11.246  0.00  0.00    +0.000 A 
ATOM      3  C   UNL     1      45.339   8.435  11.800  0.00  0.00    +0.000 A 
ATOM      4  C   UNL     1      46.634   8.411  12.324  0.00  0.00    +0.000 A 
ATOM      5  C   UNL     1      47.321   7.195  12.349  0.00  0.00    +0.000 A 
ATOM      6  C   UNL     1      46.751   6.041  11.798  0.00  0.00    +0.000 A 
ENDROOT
BRANCH   1   7
ATOM      7  C   UNL     1      44.864   4.838  10.512  0.00  0.00    +0.000 C 
BRANCH   7   8
ATOM      8  O   UNL     1      43.494   4.714  10.944  0.00  0.00    +0.000 OA
BRANCH   8  10
ATOM      9  C   UNL     1      44.301   2.979  12.367  0.00  0.00    +0.000 C 
ATOM     10  C   UNL     1      43.135   3.468  11.528  0.00  0.00    +0.000 C 
ENDBRANCH   8  10
ENDBRANCH   7   8
BRANCH   7  11
ATOM     11  C   UNL     1      45.006   4.819   8.959  0.00  0.00    +0.000 C 
BRANCH  11  12
ATOM     12  C   UNL     1      45.723   3.639   8.329  0.00  0.00    +0.000 A 
ATOM     13  C   UNL     1      45.405   2.342   8.759  0.00  0.00    +0.000 A 
ATOM     14  C   UNL     1      46.083   1.233   8.247  0.00  0.00    +0.000 A 
ATOM     15  C   UNL     1      47.075   1.404   7.285  0.00  0.00    +0.000 A 
ATOM     16  C   UNL     1      47.370   2.679   6.816  0.00  0.00    +0.000 A 
ATOM     17  C   UNL     1      46.690   3.785   7.326  0.00  0.00    +0.000 A 
ENDBRANCH  11  12
ENDBRANCH   7  11
ENDBRANCH   1   7
BRANCH   4  18
ATOM     18  C   UNL     1      47.272   9.662  12.869  0.00  0.00    +0.000 C 
BRANCH  18  19
ATOM     19  N   UNL     1      48.659   9.751  12.492  0.00  0.00    +0.000 N 
ATOM     20  C   UNL     1      49.040  10.408  11.352  0.00  0.00    +0.000 C 
ATOM     21  O   UNL     1      48.230  10.988  10.633  0.00  0.00    +0.000 OA
ATOM     22  H   UNL     1      49.301   9.107  12.944  0.00  0.00    +0.000 HD
BRANCH  20  23
ATOM     23  C   UNL     1      50.478  10.439  11.060  0.00  0.00    +0.000 A 
ATOM     24  C   UNL     1      51.113  11.657  10.860  0.00  0.00    +0.000 A 
ATOM     25  S   UNL     1      52.788  11.520  10.579  0.00  0.00    +0.000 S 
ATOM     26  C   UNL     1      52.717   9.822  10.661  0.00  0.00    +0.000 A 
ATOM     27  N   UNL     1      53.832   9.065  10.472  0.00  0.00    +0.000 NA
ATOM     28  C   UNL     1      53.628   7.791  10.532  0.00  0.00    +0.000 A 
ATOM     29  N   UNL     1      52.413   7.206  10.767  0.00  0.00    +0.000 N 
ATOM     30  C   UNL     1      51.266   7.929  10.992  0.00  0.00    +0.000 A 
ATOM     31  O   UNL     1      50.200   7.371  11.242  0.00  0.00    +0.000 OA
ATOM     32  C   UNL     1      51.436   9.366  10.920  0.00  0.00    +0.000 A 
ATOM     33  H   UNL     1      52.320   6.200  10.806  0.00  0.00    +0.000 HD
ENDBRANCH  20  23
ENDBRANCH  18  19
ENDBRANCH   4  18
TORSDOF 8
ENDMDL
MODEL 4
REMARK VINA RESULT:    -7.338      1.736      2.116
REMARK INTER + INTRA:         -11.689
REMARK INTER:                 -10.287
REMARK INTRA:                  -1.402
REMARK UNBOUND:                -0.919
REMARK  Name = 
REMARK  9 active torsions:
REMARK  status: ('A' for Active; 'I' for Inactive)
REMARK    1  A    between atoms: C_1  and  C_2
REMARK    2  A    between atoms: C_2  and  O_3
REMARK    3  A    between atoms: O_3  and  C_4
REMARK    4  A    between atoms: C_4  and  C_5
REMARK    5  A    between atoms: C_4  and  C_12
REMARK    6  A    between atoms: C_5  and  C_6
REMARK    7  A    between atoms: C_15  and  C_16
REMARK    8  A    between atoms: C_16  and  N_17
REMARK    9  A    between atoms: C_18  and  C_20
REMARK                            x       y       z     vdW  Elec       q    Type
REMARK                         _______ _______ _______ _____ _____    ______ ____
ROOT
ATOM      1  C   UNL     1      46.009   5.508  11.728  0.00  0.00    +0.000 A 
ATOM      2  C   UNL     1      46.684   6.671  11.314  0.00  0.00    +0.000 A 
ATOM      3  C   UNL     1      47.680   7.256  12.105  0.00  0.00    +0.000 A 
ATOM      4  C   UNL     1      48.030   6.699  13.339  0.00  0.00    +0.000 A 
ATOM      5  C   UNL     1      47.313   5.591  13.796  0.00  0.00    +0.000 A 
ATOM      6  C   UNL     1      46.314   5.009  13.005  0.00  0.00    +0.000 A 
ENDROOT
BRANCH   1   7
ATOM      7  C   UNL     1      44.974   4.846  10.806  0.00  0.00    +0.000 C 
BRANCH   7   8
ATOM      8  O   UNL     1      43.662   5.325  11.170  0.00  0.00    +0.000 OA
BRANCH   8  10
ATOM      9  C   UNL     1      43.287   3.075  11.865  0.00  0.00    +0.000 C 
ATOM     10  C   UNL     1      42.951   4.534  12.114  0.00  0.00    +0.000 C 
ENDBRANCH   8  10
ENDBRANCH   7   8
BRANCH   7  11
ATOM     11  C   UNL     1      45.267   5.007   9.283  0.00  0.00    +0.000 C 
BRANCH  11  12
ATOM     12  C   UNL     1      45.812   3.802   8.538  0.00  0.00    +0.000 A 
ATOM     13  C   UNL     1      45.456   2.516   8.973  0.00  0.00    +0.000 A 
ATOM     14  C   UNL     1      45.982   1.381   8.351  0.00  0.00    +0.000 A 
ATOM     15  C   UNL     1      46.855   1.515   7.275  0.00  0.00    +0.000 A 
ATOM     16  C   UNL     1      47.180   2.781   6.803  0.00  0.00    +0.000 A 
ATOM     17  C   UNL     1      46.653   3.914   7.423  0.00  0.00    +0.000 A 
ENDBRANCH  11  12
ENDBRANCH   7  11
ENDBRANCH   1   7
BRANCH   4  18
ATOM     18  C   UNL     1      49.140   7.288  14.168  0.00  0.00    +0.000 C 
BRANCH  18  19
ATOM     19  N   UNL     1      49.224   6.655  15.459  0.00  0.00    +0.000 N 
ATOM     20  C   UNL     1      49.034   7.372  16.610  0.00  0.00    +0.000 C 
ATOM     21  O   UNL     1      48.738   8.564  16.594  0.00  0.00    +0.000 OA
ATOM     22  H   UNL     1      49.673   5.745  15.497  0.00  0.00    +0.000 HD
BRANCH  20  23
ATOM     23  C   UNL     1      49.143   6.630  17.872  0.00  0.00    +0.000 A 
ATOM     24  C   UNL     1      47.991   6.239  18.540  0.00  0.00    +0.000 A 
ATOM     25  S   UNL     1      48.292   5.347  19.962  0.00  0.00    +0.000 S 
ATOM     26  C   UNL     1      49.975   5.499  19.764  0.00  0.00    +0.000 A 
ATOM     27  N   UNL     1      50.837   4.972  20.676  0.00  0.00    +0.000 NA
ATOM     28  C   UNL     1      52.084   5.187  20.417  0.00  0.00    +0.000 A 
ATOM     29  N   UNL     1      52.547   5.876  19.331  0.00  0.00    +0.000 N 
ATOM     30  C   UNL     1      51.717   6.401  18.368  0.00  0.00    +0.000 A 
ATOM     31  O   UNL     1      52.170   6.978  17.382  0.00  0.00    +0.000 OA
ATOM     32  C   UNL     1      50.304   6.202  18.618  0.00  0.00    +0.000 A 
ATOM     33  H   UNL     1      53.538   6.007  19.182  0.00  0.00    +0.000 HD
ENDBRANCH  20  23
ENDBRANCH  18  19
ENDBRANCH   4  18
TORSDOF 8
ENDMDL
MODEL 5
REMARK VINA RESULT:    -7.277      3.564      8.829
REMARK INTER + INTRA:         -11.600
REMARK INTER:                  -9.617
REMARK INTRA:                  -1.983
REMARK UNBOUND:                -0.919
REMARK  Name = 
REMARK  9 active torsions:
REMARK  status: ('A' for Active; 'I' for Inactive)
REMARK    1  A    between atoms: C_1  and  C_2
REMARK    2  A    between atoms: C_2  and  O_3
REMARK    3  A    between atoms: O_3  and  C_4
REMARK    4  A    between atoms: C_4  and  C_5
REMARK    5  A    between atoms: C_4  and  C_12
REMARK    6  A    between atoms: C_5  and  C_6
REMARK    7  A    between atoms: C_15  and  C_16
REMARK    8  A    between atoms: C_16  and  N_17
REMARK    9  A    between atoms: C_18  and  C_20
REMARK                            x       y       z     vdW  Elec       q    Type
REMARK                         _______ _______ _______ _____ _____    ______ ____
ROOT
ATOM      1  C   UNL     1      49.138   7.859  16.116  0.00  0.00    +0.000 A 
ATOM      2  C   UNL     1      48.157   8.768  15.683  0.00  0.00    +0.000 A 
ATOM      3  C   UNL     1      47.693   8.767  14.362  0.00  0.00    +0.000 A 
ATOM      4  C   UNL     1      48.200   7.858  13.429  0.00  0.00    +0.000 A 
ATOM      5  C   UNL     1      49.230   7.002  13.826  0.00  0.00    +0.000 A 
ATOM      6  C   UNL     1      49.696   7.008  15.147  0.00  0.00    +0.000 A 
ENDROOT
BRANCH   1   7
ATOM      7  C   UNL     1      49.573   7.834  17.589  0.00  0.00    +0.000 C 
BRANCH   7   8
ATOM      8  O   UNL     1      49.438   9.164  18.130  0.00  0.00    +0.000 OA
BRANCH   8  10
ATOM      9  C   UNL     1      47.520  10.184  19.114  0.00  0.00    +0.000 C 
ATOM     10  C   UNL     1      48.709   9.270  19.347  0.00  0.00    +0.000 C 
ENDBRANCH   8  10
ENDBRANCH   7   8
BRANCH   7  11
ATOM     11  C   UNL     1      48.853   6.758  18.457  0.00  0.00    +0.000 C 
BRANCH  11  12
ATOM     12  C   UNL     1      48.771   5.345  17.908  0.00  0.00    +0.000 A 
ATOM     13  C   UNL     1      47.536   4.867  17.445  0.00  0.00    +0.000 A 
ATOM     14  C   UNL     1      47.405   3.554  16.986  0.00  0.00    +0.000 A 
ATOM     15  C   UNL     1      48.510   2.707  16.966  0.00  0.00    +0.000 A 
ATOM     16  C   UNL     1      49.750   3.181  17.379  0.00  0.00    +0.000 A 
ATOM     17  C   UNL     1      49.881   4.493  17.834  0.00  0.00    +0.000 A 
ENDBRANCH  11  12
ENDBRANCH   7  11
ENDBRANCH   1   7
BRANCH   4  18
ATOM     18  C   UNL     1      47.665   7.812  12.023  0.00  0.00    +0.000 C 
BRANCH  18  19
ATOM     19  N   UNL     1      46.970   6.576  11.765  0.00  0.00    +0.000 N 
ATOM     20  C   UNL     1      45.607   6.498  11.876  0.00  0.00    +0.000 C 
ATOM     21  O   UNL     1      44.917   7.477  12.149  0.00  0.00    +0.000 OA
ATOM     22  H   UNL     1      47.527   5.728  11.756  0.00  0.00    +0.000 HD
BRANCH  20  23
ATOM     23  C   UNL     1      44.999   5.192  11.594  0.00  0.00    +0.000 A 
ATOM     24  C   UNL     1      44.303   4.528  12.596  0.00  0.00    +0.000 A 
ATOM     25  S   UNL     1      43.619   3.050  12.091  0.00  0.00    +0.000 S 
ATOM     26  C   UNL     1      44.275   3.219  10.530  0.00  0.00    +0.000 A 
ATOM     27  N   UNL     1      44.085   2.258   9.584  0.00  0.00    +0.000 NA
ATOM     28  C   UNL     1      44.663   2.501   8.455  0.00  0.00    +0.000 A 
ATOM     29  N   UNL     1      45.408   3.616   8.184  0.00  0.00    +0.000 N 
ATOM     30  C   UNL     1      45.602   4.626   9.096  0.00  0.00    +0.000 A 
ATOM     31  O   UNL     1      46.242   5.634   8.804  0.00  0.00    +0.000 OA
ATOM     32  C   UNL     1      44.987   4.397  10.389  0.00  0.00    +0.000 A 
ATOM     33  H   UNL     1      45.831   3.750   7.276  0.00  0.00    +0.000 HD
ENDBRANCH  20  23
ENDBRANCH  18  19
ENDBRANCH   4  18
TORSDOF 8
ENDMDL
MODEL 6
REMARK VINA RESULT:    -7.066      1.845      2.550
REMARK INTER + INTRA:         -11.290
REMARK INTER:                  -9.547
REMARK INTRA:                  -1.743
REMARK UNBOUND:                -0.919
REMARK  Name = 
REMARK  9 active torsions:
REMARK  status: ('A' for Active; 'I' for Inactive)
REMARK    1  A    between atoms: C_1  and  C_2
REMARK    2  A    between atoms: C_2  and  O_3
REMARK    3  A    between atoms: O_3  and  C_4
REMARK    4  A    between atoms: C_4  and  C_5
REMARK    5  A    between atoms: C_4  and  C_12
REMARK    6  A    between atoms: C_5  and  C_6
REMARK    7  A    between atoms: C_15  and  C_16
REMARK    8  A    between atoms: C_16  and  N_17
REMARK    9  A    between atoms: C_18  and  C_20
REMARK                            x       y       z     vdW  Elec       q    Type
REMARK                         _______ _______ _______ _____ _____    ______ ____
ROOT
ATOM      1  C   UNL     1      46.500   5.869  12.427  0.00  0.00    +0.000 A 
ATOM      2  C   UNL     1      46.883   5.411  13.699  0.00  0.00    +0.000 A 
ATOM      3  C   UNL     1      47.998   5.941  14.361  0.00  0.00    +0.000 A 
ATOM      4  C   UNL     1      48.769   6.944  13.766  0.00  0.00    +0.000 A 
ATOM      5  C   UNL     1      48.446   7.352  12.470  0.00  0.00    +0.000 A 
ATOM      6  C   UNL     1      47.332   6.819  11.809  0.00  0.00    +0.000 A 
ENDROOT
BRANCH   1   7
ATOM      7  C   UNL     1      45.229   5.323  11.758  0.00  0.00    +0.000 C 
BRANCH   7   8
ATOM      8  O   UNL     1      44.082   5.839  12.464  0.00  0.00    +0.000 OA
BRANCH   8  10
ATOM      9  C   UNL     1      43.441   3.601  12.982  0.00  0.00    +0.000 C 
ATOM     10  C   UNL     1      42.957   4.971  12.543  0.00  0.00    +0.000 C 
ENDBRANCH   8  10
ENDBRANCH   7   8
BRANCH   7  11
ATOM     11  C   UNL     1      45.148   5.573  10.222  0.00  0.00    +0.000 C 
BRANCH  11  12
ATOM     12  C   UNL     1      45.483   4.415   9.299  0.00  0.00    +0.000 A 
ATOM     13  C   UNL     1      45.064   3.123   9.652  0.00  0.00    +0.000 A 
ATOM     14  C   UNL     1      45.401   2.022   8.860  0.00  0.00    +0.000 A 
ATOM     15  C   UNL     1      46.144   2.200   7.696  0.00  0.00    +0.000 A 
ATOM     16  C   UNL     1      46.527   3.479   7.310  0.00  0.00    +0.000 A 
ATOM     17  C   UNL     1      46.187   4.578   8.099  0.00  0.00    +0.000 A 
ENDBRANCH  11  12
ENDBRANCH   7  11
ENDBRANCH   1   7
BRANCH   4  18
ATOM     18  C   UNL     1      49.934   7.560  14.494  0.00  0.00    +0.000 C 
BRANCH  18  19
ATOM     19  N   UNL     1      50.174   6.902  15.753  0.00  0.00    +0.000 N 
ATOM     20  C   UNL     1      50.776   7.562  16.791  0.00  0.00    +0.000 C 
ATOM     21  O   UNL     1      51.092   8.747  16.714  0.00  0.00    +0.000 OA
ATOM     22  H   UNL     1      50.122   5.888  15.760  0.00  0.00    +0.000 HD
BRANCH  20  23
ATOM     23  C   UNL     1      50.974   6.799  18.029  0.00  0.00    +0.000 A 
ATOM     24  C   UNL     1      52.253   6.662  18.554  0.00  0.00    +0.000 A 
ATOM     25  S   UNL     1      52.303   5.790  20.018  0.00  0.00    +0.000 S 
ATOM     26  C   UNL     1      50.624   5.518  19.975  0.00  0.00    +0.000 A 
ATOM     27  N   UNL     1      50.008   4.790  20.946  0.00  0.00    +0.000 NA
ATOM     28  C   UNL     1      48.737   4.637  20.773  0.00  0.00    +0.000 A 
ATOM     29  N   UNL     1      48.027   5.147  19.721  0.00  0.00    +0.000 N 
ATOM     30  C   UNL     1      48.599   5.912  18.732  0.00  0.00    +0.000 A 
ATOM     31  O   UNL     1      47.923   6.391  17.825  0.00  0.00    +0.000 OA
ATOM     32  C   UNL     1      50.029   6.102  18.870  0.00  0.00    +0.000 A 
ATOM     33  H   UNL     1      47.031   4.996  19.645  0.00  0.00    +0.000 HD
ENDBRANCH  20  23
ENDBRANCH  18  19
ENDBRANCH   4  18
TORSDOF 8
ENDMDL
MODEL 7
REMARK VINA RESULT:    -7.021      4.076      6.000
REMARK INTER + INTRA:         -11.224
REMARK INTER:                  -9.559
REMARK INTRA:                  -1.665
REMARK UNBOUND:                -0.919
REMARK  Name = 
REMARK  9 active torsions:
REMARK  status: ('A' for Active; 'I' for Inactive)
REMARK    1  A    between atoms: C_1  and  C_2
REMARK    2  A    between atoms: C_2  and  O_3
REMARK    3  A    between atoms: O_3  and  C_4
REMARK    4  A    between atoms: C_4  and  C_5
REMARK    5  A    between atoms: C_4  and  C_12
REMARK    6  A    between atoms: C_5  and  C_6
REMARK    7  A    between atoms: C_15  and  C_16
REMARK    8  A    between atoms: C_16  and  N_17
REMARK    9  A    between atoms: C_18  and  C_20
REMARK                            x       y       z     vdW  Elec       q    Type
REMARK                         _______ _______ _______ _____ _____    ______ ____
ROOT
ATOM      1  C   UNL     1      44.953   9.313  11.826  0.00  0.00    +0.000 A 
ATOM      2  C   UNL     1      44.367   8.196  11.205  0.00  0.00    +0.000 A 
ATOM      3  C   UNL     1      44.682   6.891  11.604  0.00  0.00    +0.000 A 
ATOM      4  C   UNL     1      45.598   6.663  12.635  0.00  0.00    +0.000 A 
ATOM      5  C   UNL     1      46.245   7.761  13.206  0.00  0.00    +0.000 A 
ATOM      6  C   UNL     1      45.932   9.065  12.803  0.00  0.00    +0.000 A 
ENDROOT
BRANCH   1   7
ATOM      7  C   UNL     1      44.533  10.733  11.418  0.00  0.00    +0.000 C 
BRANCH   7   8
ATOM      8  O   UNL     1      43.273  11.039  12.052  0.00  0.00    +0.000 OA
BRANCH   8  10
ATOM      9  C   UNL     1      41.438  10.415  10.663  0.00  0.00    +0.000 C 
ATOM     10  C   UNL     1      42.262  11.569  11.204  0.00  0.00    +0.000 C 
ENDBRANCH   8  10
ENDBRANCH   7   8
BRANCH   7  11
ATOM     11  C   UNL     1      45.613  11.827  11.677  0.00  0.00    +0.000 C 
BRANCH  11  12
ATOM     12  C   UNL     1      46.717  11.988  10.647  0.00  0.00    +0.000 A 
ATOM     13  C   UNL     1      46.389  12.464   9.369  0.00  0.00    +0.000 A 
ATOM     14  C   UNL     1      47.364  12.571   8.375  0.00  0.00    +0.000 A 
ATOM     15  C   UNL     1      48.684  12.221   8.650  0.00  0.00    +0.000 A 
ATOM     16  C   UNL     1      49.033  11.791   9.925  0.00  0.00    +0.000 A 
ATOM     17  C   UNL     1      48.058  11.687  10.917  0.00  0.00    +0.000 A 
ENDBRANCH  11  12
ENDBRANCH   7  11
ENDBRANCH   1   7
BRANCH   4  18
ATOM     18  C   UNL     1      45.898   5.265  13.109  0.00  0.00    +0.000 C 
BRANCH  18  19
ATOM     19  N   UNL     1      46.529   5.274  14.404  0.00  0.00    +0.000 N 
ATOM     20  C   UNL     1      47.179   4.166  14.880  0.00  0.00    +0.000 C 
ATOM     21  O   UNL     1      47.295   3.142  14.211  0.00  0.00    +0.000 OA
ATOM     22  H   UNL     1      46.260   6.016  15.042  0.00  0.00    +0.000 HD
BRANCH  20  23
ATOM     23  C   UNL     1      47.786   4.281  16.211  0.00  0.00    +0.000 A 
ATOM     24  C   UNL     1      47.425   3.386  17.210  0.00  0.00    +0.000 A 
ATOM     25  S   UNL     1      48.255   3.627  18.678  0.00  0.00    +0.000 S 
ATOM     26  C   UNL     1      49.088   4.970  18.049  0.00  0.00    +0.000 A 
ATOM     27  N   UNL     1      49.961   5.676  18.819  0.00  0.00    +0.000 NA
ATOM     28  C   UNL     1      50.499   6.688  18.224  0.00  0.00    +0.000 A 
ATOM     29  N   UNL     1      50.248   7.056  16.930  0.00  0.00    +0.000 N 
ATOM     30  C   UNL     1      49.398   6.358  16.105  0.00  0.00    +0.000 A 
ATOM     31  O   UNL     1      49.229   6.692  14.935  0.00  0.00    +0.000 OA
ATOM     32  C   UNL     1      48.754   5.219  16.729  0.00  0.00    +0.000 A 
ATOM     33  H   UNL     1      50.706   7.858  16.520  0.00  0.00    +0.000 HD
ENDBRANCH  20  23
ENDBRANCH  18  19
ENDBRANCH   4  18
TORSDOF 8
ENDMDL
MODEL 8
REMARK VINA RESULT:    -7.002      3.919      8.927
REMARK INTER + INTRA:         -11.195
REMARK INTER:                  -9.673
REMARK INTRA:                  -1.523
REMARK UNBOUND:                -0.919
REMARK  Name = 
REMARK  9 active torsions:
REMARK  status: ('A' for Active; 'I' for Inactive)
REMARK    1  A    between atoms: C_1  and  C_2
REMARK    2  A    between atoms: C_2  and  O_3
REMARK    3  A    between atoms: O_3  and  C_4
REMARK    4  A    between atoms: C_4  and  C_5
REMARK    5  A    between atoms: C_4  and  C_12
REMARK    6  A    between atoms: C_5  and  C_6
REMARK    7  A    between atoms: C_15  and  C_16
REMARK    8  A    between atoms: C_16  and  N_17
REMARK    9  A    between atoms: C_18  and  C_20
REMARK                            x       y       z     vdW  Elec       q    Type
REMARK                         _______ _______ _______ _____ _____    ______ ____
ROOT
ATOM      1  C   UNL     1      50.094   6.787  15.908  0.00  0.00    +0.000 A 
ATOM      2  C   UNL     1      48.775   6.449  15.558  0.00  0.00    +0.000 A 
ATOM      3  C   UNL     1      48.220   6.842  14.334  0.00  0.00    +0.000 A 
ATOM      4  C   UNL     1      48.968   7.591  13.421  0.00  0.00    +0.000 A 
ATOM      5  C   UNL     1      50.252   8.000  13.789  0.00  0.00    +0.000 A 
ATOM      6  C   UNL     1      50.803   7.609  15.016  0.00  0.00    +0.000 A 
ENDROOT
BRANCH   1   7
ATOM      7  C   UNL     1      50.700   6.279  17.225  0.00  0.00    +0.000 C 
BRANCH   7   8
ATOM      8  O   UNL     1      50.666   7.351  18.190  0.00  0.00    +0.000 OA
BRANCH   8  10
ATOM      9  C   UNL     1      53.015   7.722  18.025  0.00  0.00    +0.000 C 
ATOM     10  C   UNL     1      51.843   7.526  18.968  0.00  0.00    +0.000 C 
ENDBRANCH   8  10
ENDBRANCH   7   8
BRANCH   7  11
ATOM     11  C   UNL     1      50.058   4.966  17.767  0.00  0.00    +0.000 C 
BRANCH  11  12
ATOM     12  C   UNL     1      50.909   3.708  17.757  0.00  0.00    +0.000 A 
ATOM     13  C   UNL     1      52.249   3.791  18.164  0.00  0.00    +0.000 A 
ATOM     14  C   UNL     1      53.081   2.670  18.114  0.00  0.00    +0.000 A 
ATOM     15  C   UNL     1      52.580   1.447  17.675  0.00  0.00    +0.000 A 
ATOM     16  C   UNL     1      51.243   1.338  17.313  0.00  0.00    +0.000 A 
ATOM     17  C   UNL     1      50.412   2.458  17.366  0.00  0.00    +0.000 A 
ENDBRANCH  11  12
ENDBRANCH   7  11
ENDBRANCH   1   7
BRANCH   4  18
ATOM     18  C   UNL     1      48.400   7.967  12.079  0.00  0.00    +0.000 C 
BRANCH  18  19
ATOM     19  N   UNL     1      47.672   6.872  11.490  0.00  0.00    +0.000 N 
ATOM     20  C   UNL     1      46.304   6.883  11.435  0.00  0.00    +0.000 C 
ATOM     21  O   UNL     1      45.643   7.838  11.835  0.00  0.00    +0.000 OA
ATOM     22  H   UNL     1      48.177   6.001  11.359  0.00  0.00    +0.000 HD
BRANCH  20  23
ATOM     23  C   UNL     1      45.661   5.717  10.817  0.00  0.00    +0.000 A 
ATOM     24  C   UNL     1      45.787   5.508   9.450  0.00  0.00    +0.000 A 
ATOM     25  S   UNL     1      45.024   4.087   8.900  0.00  0.00    +0.000 S 
ATOM     26  C   UNL     1      44.452   3.726  10.462  0.00  0.00    +0.000 A 
ATOM     27  N   UNL     1      43.682   2.627  10.688  0.00  0.00    +0.000 NA
ATOM     28  C   UNL     1      43.294   2.492  11.913  0.00  0.00    +0.000 A 
ATOM     29  N   UNL     1      43.607   3.351  12.930  0.00  0.00    +0.000 N 
ATOM     30  C   UNL     1      44.404   4.458  12.755  0.00  0.00    +0.000 A 
ATOM     31  O   UNL     1      44.700   5.185  13.700  0.00  0.00    +0.000 OA
ATOM     32  C   UNL     1      44.856   4.666  11.394  0.00  0.00    +0.000 A 
ATOM     33  H   UNL     1      43.274   3.187  13.870  0.00  0.00    +0.000 HD
ENDBRANCH  20  23
ENDBRANCH  18  19
ENDBRANCH   4  18
TORSDOF 8
ENDMDL
MODEL 9
REMARK VINA RESULT:    -6.765      3.965      8.553
REMARK INTER + INTRA:         -10.848
REMARK INTER:                  -8.792
REMARK INTRA:                  -2.056
REMARK UNBOUND:                -0.919
REMARK  Name = 
REMARK  9 active torsions:
REMARK  status: ('A' for Active; 'I' for Inactive)
REMARK    1  A    between atoms: C_1  and  C_2
REMARK    2  A    between atoms: C_2  and  O_3
REMARK    3  A    between atoms: O_3  and  C_4
REMARK    4  A    between atoms: C_4  and  C_5
REMARK    5  A    between atoms: C_4  and  C_12
REMARK    6  A    between atoms: C_5  and  C_6
REMARK    7  A    between atoms: C_15  and  C_16
REMARK    8  A    between atoms: C_16  and  N_17
REMARK    9  A    between atoms: C_18  and  C_20
REMARK                            x       y       z     vdW  Elec       q    Type
REMARK                         _______ _______ _______ _____ _____    ______ ____
ROOT
ATOM      1  C   UNL     1      50.088   6.965  17.606  0.00  0.00    +0.000 A 
ATOM      2  C   UNL     1      50.430   6.611  16.289  0.00  0.00    +0.000 A 
ATOM      3  C   UNL     1      49.801   7.203  15.186  0.00  0.00    +0.000 A 
ATOM      4  C   UNL     1      48.806   8.168  15.368  0.00  0.00    +0.000 A 
ATOM      5  C   UNL     1      48.402   8.471  16.670  0.00  0.00    +0.000 A 
ATOM      6  C   UNL     1      49.029   7.874  17.771  0.00  0.00    +0.000 A 
ENDROOT
BRANCH   1   7
ATOM      7  C   UNL     1      50.846   6.353  18.793  0.00  0.00    +0.000 C 
BRANCH   7   8
ATOM      8  O   UNL     1      51.069   7.385  19.776  0.00  0.00    +0.000 OA
BRANCH   8  10
ATOM      9  C   UNL     1      53.313   6.990  19.074  0.00  0.00    +0.000 C 
ATOM     10  C   UNL     1      52.426   7.627  20.128  0.00  0.00    +0.000 C 
ENDBRANCH   8  10
ENDBRANCH   7   8
BRANCH   7  11
ATOM     11  C   UNL     1      50.178   5.083  19.401  0.00  0.00    +0.000 C 
BRANCH  11  12
ATOM     12  C   UNL     1      49.464   4.136  18.452  0.00  0.00    +0.000 A 
ATOM     13  C   UNL     1      50.218   3.185  17.748  0.00  0.00    +0.000 A 
ATOM     14  C   UNL     1      49.608   2.335  16.822  0.00  0.00    +0.000 A 
ATOM     15  C   UNL     1      48.236   2.411  16.600  0.00  0.00    +0.000 A 
ATOM     16  C   UNL     1      47.469   3.318  17.324  0.00  0.00    +0.000 A 
ATOM     17  C   UNL     1      48.078   4.164  18.251  0.00  0.00    +0.000 A 
ENDBRANCH  11  12
ENDBRANCH   7  11
ENDBRANCH   1   7
BRANCH   4  18
ATOM     18  C   UNL     1      48.167   8.852  14.189  0.00  0.00    +0.000 C 
BRANCH  18  19
ATOM     19  N   UNL     1      46.988   8.149  13.750  0.00  0.00    +0.000 N 
ATOM     20  C   UNL     1      47.029   7.309  12.669  0.00  0.00    +0.000 C 
ATOM     21  O   UNL     1      48.072   7.080  12.061  0.00  0.00    +0.000 OA
ATOM     22  H   UNL     1      46.095   8.488  14.094  0.00  0.00    +0.000 HD
BRANCH  20  23
ATOM     23  C   UNL     1      45.772   6.644  12.304  0.00  0.00    +0.000 A 
ATOM     24  C   UNL     1      44.729   7.391  11.773  0.00  0.00    +0.000 A 
ATOM     25  S   UNL     1      43.362   6.462  11.360  0.00  0.00    +0.000 S 
ATOM     26  C   UNL     1      44.094   5.034  11.927  0.00  0.00    +0.000 A 
ATOM     27  N   UNL     1      43.431   3.846  11.891  0.00  0.00    +0.000 NA
ATOM     28  C   UNL     1      44.094   2.851  12.381  0.00  0.00    +0.000 A 
ATOM     29  N   UNL     1      45.358   2.935  12.898  0.00  0.00    +0.000 N 
ATOM     30  C   UNL     1      46.077   4.106  12.929  0.00  0.00    +0.000 A 
ATOM     31  O   UNL     1      47.227   4.137  13.363  0.00  0.00    +0.000 OA
ATOM     32  C   UNL     1      45.373   5.260  12.405  0.00  0.00    +0.000 A 
ATOM     33  H   UNL     1      45.825   2.117  13.263  0.00  0.00    +0.000 HD
ENDBRANCH  20  23
ENDBRANCH  18  19
ENDBRANCH   4  18
TORSDOF 8
ENDMDL
