MODEL 1
REMARK VINA RESULT:    -8.838      0.000      0.000
REMARK INTER + INTRA:         -13.481
REMARK INTER:                 -12.455
REMARK INTRA:                  -1.026
REMARK UNBOUND:                -1.026
REMARK  Name = 
REMARK  8 active torsions:
REMARK  status: ('A' for Active; 'I' for Inactive)
REMARK    1  A    between atoms: C_1  and  C_2
REMARK    2  A    between atoms: C_5  and  C_6
REMARK    3  A    between atoms: C_10  and  C_11
REMARK    4  A    between atoms: C_11  and  C_12
REMARK    5  A    between atoms: C_12  and  N_13
REMARK    6  A    between atoms: N_13  and  C_14
REMARK    7  A    between atoms: C_17  and  C_18
REMARK    8  A    between atoms: C_25  and  C_26
REMARK                            x       y       z     vdW  Elec       q    Type
REMARK                         _______ _______ _______ _____ _____    ______ ____
ROOT
ATOM      1  C   UNL     1      46.846   5.470  13.800  0.00  0.00    +0.000 A 
ATOM      2  C   UNL     1      47.597   6.227  12.883  0.00  0.00    +0.000 A 
ATOM      3  C   UNL     1      47.021   6.746  11.728  0.00  0.00    +0.000 A 
ATOM      4  C   UNL     1      45.677   6.509  11.454  0.00  0.00    +0.000 A 
ATOM      5  C   UNL     1      44.889   5.745  12.323  0.00  0.00    +0.000 A 
ATOM      6  C   UNL     1      45.487   5.243  13.494  0.00  0.00    +0.000 A 
ENDROOT
BRANCH   1  11
ATOM      7  C   UNL     1      49.138   3.419  18.597  0.00  0.00    +0.000 C 
ATOM      8  C   UNL     1      48.578   3.979  17.333  0.00  0.00    +0.000 A 
ATOM      9  C   UNL     1      47.596   3.307  16.637  0.00  0.00    +0.000 A 
ATOM     10  N   UNL     1      47.028   3.756  15.500  0.00  0.00    +0.000 NA
ATOM     11  C   UNL     1      47.463   4.936  15.029  0.00  0.00    +0.000 A 
ATOM     12  N   UNL     1      48.419   5.674  15.613  0.00  0.00    +0.000 NA
ATOM     13  C   UNL     1      48.958   5.178  16.758  0.00  0.00    +0.000 A 
BRANCH  13  14
ATOM     14  C   UNL     1      50.010   6.070  17.370  0.00  0.00    +0.000 C 
ATOM     15  N   UNL     1      49.538   6.996  18.263  0.00  0.00    +0.000 N 
ATOM     16  O   UNL     1      51.201   5.997  17.112  0.00  0.00    +0.000 OA
ATOM     17  H   UNL     1      48.549   7.033  18.476  0.00  0.00    +0.000 HD
ATOM     18  H   UNL     1      50.189   7.612  18.727  0.00  0.00    +0.000 HD
ENDBRANCH  13  14
ENDBRANCH   1  11
BRANCH   5  19
ATOM     19  C   UNL     1      43.431   5.415  12.052  0.00  0.00    +0.000 C 
BRANCH  19  20
ATOM     20  C   UNL     1      43.217   4.250  11.081  0.00  0.00    +0.000 C 
BRANCH  20  21
ATOM     21  N   UNL     1      43.585   4.576   9.708  0.00  0.00    +0.000 N 
ATOM     22  H   UNL     1      43.469   5.543   9.420  0.00  0.00    +0.000 HD
BRANCH  21  23
ATOM     23  C   UNL     1      44.636   3.882   9.106  0.00  0.00    +0.000 A 
ATOM     24  C   UNL     1      44.783   2.490   9.195  0.00  0.00    +0.000 A 
ATOM     25  C   UNL     1      45.792   1.814   8.503  0.00  0.00    +0.000 A 
ATOM     26  C   UNL     1      46.667   2.517   7.674  0.00  0.00    +0.000 A 
ATOM     27  C   UNL     1      46.532   3.904   7.561  0.00  0.00    +0.000 A 
ATOM     28  C   UNL     1      45.519   4.572   8.266  0.00  0.00    +0.000 A 
BRANCH  26  29
ATOM     29  C   UNL     1      47.722   1.751   6.961  0.00  0.00    +0.000 C 
ATOM     30  N   UNL     1      48.530   2.439   6.102  0.00  0.00    +0.000 N 
ATOM     31  O   UNL     1      47.842   0.538   7.102  0.00  0.00    +0.000 OA
ATOM     32  H   UNL     1      48.316   3.370   5.779  0.00  0.00    +0.000 HD
ATOM     33  H   UNL     1      49.164   1.878   5.546  0.00  0.00    +0.000 HD
ENDBRANCH  26  29
ENDBRANCH  21  23
ENDBRANCH  20  21
ENDBRANCH  19  20
ENDBRANCH   5  19
TORSDOF 7
ENDMDL
MODEL 2
REMARK VINA RESULT:    -8.760      3.665      5.965
REMARK INTER + INTRA:         -13.371
REMARK INTER:                 -12.402
REMARK INTRA:                  -0.969
REMARK UNBOUND:                -1.026
REMARK  Name = 
REMARK  8 active torsions:
REMARK  status: ('A' for Active; 'I' for Inactive)
REMARK    1  A    between atoms: C_1  and  C_2
REMARK    2  A    between atoms: C_5  and  C_6
REMARK    3  A    between atoms: C_10  and  C_11
REMARK    4  A    between atoms: C_11  and  C_12
REMARK    5  A    between atoms: C_12  and  N_13
REMARK    6  A    between atoms: N_13  and  C_14
REMARK    7  A    between atoms: C_17  and  C_18
REMARK    8  A    between atoms: C_25  and  C_26
REMARK                            x       y       z     vdW  Elec       q    Type
REMARK                         _______ _______ _______ _____ _____    ______ ____
ROOT
ATOM      1  C   UNL     1      45.640   7.103  12.522  0.00  0.00    +0.000 A 
ATOM      2  C   UNL     1      46.888   6.710  13.039  0.00  0.00    +0.000 A 
ATOM      3  C   UNL     1      47.107   5.416  13.499  0.00  0.00    +0.000 A 
ATOM      4  C   UNL     1      46.075   4.483  13.467  0.00  0.00    +0.000 A 
ATOM      5  C   UNL     1      44.807   4.827  12.982  0.00  0.00    +0.000 A 
ATOM      6  C   UNL     1      44.612   6.136  12.504  0.00  0.00    +0.000 A 
ENDROOT
BRANCH   1  11
ATOM      7  C   UNL     1      44.798  12.434  10.693  0.00  0.00    +0.000 C 
ATOM      8  C   UNL     1      44.991  11.023  11.138  0.00  0.00    +0.000 A 
ATOM      9  C   UNL     1      46.139  10.640  11.796  0.00  0.00    +0.000 A 
ATOM     10  N   UNL     1      46.378   9.392  12.244  0.00  0.00    +0.000 NA
ATOM     11  C   UNL     1      45.423   8.474  12.022  0.00  0.00    +0.000 A 
ATOM     12  N   UNL     1      44.270   8.727  11.384  0.00  0.00    +0.000 NA
ATOM     13  C   UNL     1      44.077  10.001  10.955  0.00  0.00    +0.000 A 
BRANCH  13  14
ATOM     14  C   UNL     1      42.752  10.215  10.265  0.00  0.00    +0.000 C 
ATOM     15  N   UNL     1      41.649   9.985  11.045  0.00  0.00    +0.000 N 
ATOM     16  O   UNL     1      42.636  10.570   9.103  0.00  0.00    +0.000 OA
ATOM     17  H   UNL     1      41.763   9.705  12.011  0.00  0.00    +0.000 HD
ATOM     18  H   UNL     1      40.728  10.129  10.655  0.00  0.00    +0.000 HD
ENDBRANCH  13  14
ENDBRANCH   1  11
BRANCH   5  19
ATOM     19  C   UNL     1      43.632   3.864  12.966  0.00  0.00    +0.000 C 
BRANCH  19  20
ATOM     20  C   UNL     1      43.552   2.986  11.713  0.00  0.00    +0.000 C 
BRANCH  20  21
ATOM     21  N   UNL     1      43.557   3.756  10.475  0.00  0.00    +0.000 N 
ATOM     22  H   UNL     1      43.327   4.743  10.547  0.00  0.00    +0.000 HD
BRANCH  21  23
ATOM     23  C   UNL     1      44.462   3.413   9.468  0.00  0.00    +0.000 A 
ATOM     24  C   UNL     1      45.137   4.365   8.689  0.00  0.00    +0.000 A 
ATOM     25  C   UNL     1      46.107   3.993   7.754  0.00  0.00    +0.000 A 
ATOM     26  C   UNL     1      46.450   2.650   7.597  0.00  0.00    +0.000 A 
ATOM     27  C   UNL     1      45.799   1.685   8.370  0.00  0.00    +0.000 A 
ATOM     28  C   UNL     1      44.822   2.071   9.301  0.00  0.00    +0.000 A 
BRANCH  26  29
ATOM     29  C   UNL     1      47.487   2.308   6.589  0.00  0.00    +0.000 C 
ATOM     30  N   UNL     1      47.404   2.912   5.368  0.00  0.00    +0.000 N 
ATOM     31  O   UNL     1      48.365   1.483   6.824  0.00  0.00    +0.000 OA
ATOM     32  H   UNL     1      46.579   3.401   5.055  0.00  0.00    +0.000 HD
ATOM     33  H   UNL     1      48.052   2.579   4.664  0.00  0.00    +0.000 HD
ENDBRANCH  26  29
ENDBRANCH  21  23
ENDBRANCH  20  21
ENDBRANCH  19  20
ENDBRANCH   5  19
TORSDOF 7
ENDMDL
MODEL 3
REMARK VINA RESULT:    -8.642      1.279      1.934
REMARK INTER + INTRA:         -13.205
REMARK INTER:                 -12.130
REMARK INTRA:                  -1.075
REMARK UNBOUND:                -1.026
REMARK  Name = 
REMARK  8 active torsions:
REMARK  status: ('A' for Active; 'I' for Inactive)
REMARK    1  A    between atoms: C_1  and  C_2
REMARK    2  A    between atoms: C_5  and  C_6
REMARK    3  A    between atoms: C_10  and  C_11
REMARK    4  A    between atoms: C_11  and  C_12
REMARK    5  A    between atoms: C_12  and  N_13
REMARK    6  A    between atoms: N_13  and  C_14
REMARK    7  A    between atoms: C_17  and  C_18
REMARK    8  A    between atoms: C_25  and  C_26
REMARK                            x       y       z     vdW  Elec       q    Type
REMARK                         _______ _______ _______ _____ _____    ______ ____
ROOT
ATOM      1  C   UNL     1      47.545   6.277  13.748  0.00  0.00    +0.000 A 
ATOM      2  C   UNL     1      48.420   6.776  12.765  0.00  0.00    +0.000 A 
ATOM      3  C   UNL     1      47.958   7.149  11.507  0.00  0.00    +0.000 A 
ATOM      4  C   UNL     1      46.608   7.020  11.195  0.00  0.00    +0.000 A 
ATOM      5  C   UNL     1      45.698   6.510  12.130  0.00  0.00    +0.000 A 
ATOM      6  C   UNL     1      46.183   6.154  13.402  0.00  0.00    +0.000 A 
ENDROOT
BRANCH   1  11
ATOM      7  C   UNL     1      49.568   4.826  18.874  0.00  0.00    +0.000 C 
ATOM      8  C   UNL     1      49.006   5.173  17.537  0.00  0.00    +0.000 A 
ATOM      9  C   UNL     1      49.137   6.445  17.022  0.00  0.00    +0.000 A 
ATOM     10  N   UNL     1      48.674   6.829  15.817  0.00  0.00    +0.000 NA
ATOM     11  C   UNL     1      48.043   5.898  15.084  0.00  0.00    +0.000 A 
ATOM     12  N   UNL     1      47.847   4.632  15.482  0.00  0.00    +0.000 NA
ATOM     13  C   UNL     1      48.335   4.294  16.704  0.00  0.00    +0.000 A 
BRANCH  13  14
ATOM     14  C   UNL     1      48.096   2.852  17.077  0.00  0.00    +0.000 C 
ATOM     15  N   UNL     1      46.976   2.627  17.835  0.00  0.00    +0.000 N 
ATOM     16  O   UNL     1      48.823   1.931  16.743  0.00  0.00    +0.000 OA
ATOM     17  H   UNL     1      46.376   3.401  18.092  0.00  0.00    +0.000 HD
ATOM     18  H   UNL     1      46.743   1.682  18.104  0.00  0.00    +0.000 HD
ENDBRANCH  13  14
ENDBRANCH   1  11
BRANCH   5  19
ATOM     19  C   UNL     1      44.224   6.303  11.829  0.00  0.00    +0.000 C 
BRANCH  19  20
ATOM     20  C   UNL     1      43.852   4.866  11.450  0.00  0.00    +0.000 C 
BRANCH  20  21
ATOM     21  N   UNL     1      43.696   4.677  10.012  0.00  0.00    +0.000 N 
ATOM     22  H   UNL     1      43.234   5.421   9.500  0.00  0.00    +0.000 HD
BRANCH  21  23
ATOM     23  C   UNL     1      44.678   3.973   9.312  0.00  0.00    +0.000 A 
ATOM     24  C   UNL     1      44.812   2.578   9.379  0.00  0.00    +0.000 A 
ATOM     25  C   UNL     1      45.744   1.893   8.593  0.00  0.00    +0.000 A 
ATOM     26  C   UNL     1      46.549   2.591   7.693  0.00  0.00    +0.000 A 
ATOM     27  C   UNL     1      46.425   3.980   7.601  0.00  0.00    +0.000 A 
ATOM     28  C   UNL     1      45.490   4.657   8.399  0.00  0.00    +0.000 A 
BRANCH  26  29
ATOM     29  C   UNL     1      47.523   1.815   6.882  0.00  0.00    +0.000 C 
ATOM     30  N   UNL     1      48.498   2.513   6.228  0.00  0.00    +0.000 N 
ATOM     31  O   UNL     1      47.438   0.597   6.765  0.00  0.00    +0.000 OA
ATOM     32  H   UNL     1      48.462   3.513   6.102  0.00  0.00    +0.000 HD
ATOM     33  H   UNL     1      49.078   1.977   5.595  0.00  0.00    +0.000 HD
ENDBRANCH  26  29
ENDBRANCH  21  23
ENDBRANCH  20  21
ENDBRANCH  19  20
ENDBRANCH   5  19
TORSDOF 7
ENDMDL
MODEL 4
REMARK VINA RESULT:    -8.482      3.413      5.045
REMARK INTER + INTRA:         -12.979
REMARK INTER:                 -11.859
REMARK INTRA:                  -1.120
REMARK UNBOUND:                -1.026
REMARK  Name = 
REMARK  8 active torsions:
REMARK  status: ('A' for Active; 'I' for Inactive)
REMARK    1  A    between atoms: C_1  and  C_2
REMARK    2  A    between atoms: C_5  and  C_6
REMARK    3  A    between atoms: C_10  and  C_11
REMARK    4  A    between atoms: C_11  and  C_12
REMARK    5  A    between atoms: C_12  and  N_13
REMARK    6  A    between atoms: N_13  and  C_14
REMARK    7  A    between atoms: C_17  and  C_18
REMARK    8  A    between atoms: C_25  and  C_26
REMARK                            x       y       z     vdW  Elec       q    Type
REMARK                         _______ _______ _______ _____ _____    ______ ____
ROOT
ATOM      1  C   UNL     1      46.701   6.935  12.872  0.00  0.00    +0.000 A 
ATOM      2  C   UNL     1      47.481   5.948  13.501  0.00  0.00    +0.000 A 
ATOM      3  C   UNL     1      46.963   4.690  13.791  0.00  0.00    +0.000 A 
ATOM      4  C   UNL     1      45.642   4.392  13.470  0.00  0.00    +0.000 A 
ATOM      5  C   UNL     1      44.815   5.344  12.861  0.00  0.00    +0.000 A 
ATOM      6  C   UNL     1      45.365   6.604  12.560  0.00  0.00    +0.000 A 
ENDROOT
BRANCH   1  11
ATOM      7  C   UNL     1      48.897  12.073  11.754  0.00  0.00    +0.000 C 
ATOM      8  C   UNL     1      48.291  10.735  12.013  0.00  0.00    +0.000 A 
ATOM      9  C   UNL     1      49.046   9.705  12.530  0.00  0.00    +0.000 A 
ATOM     10  N   UNL     1      48.567   8.477  12.808  0.00  0.00    +0.000 NA
ATOM     11  C   UNL     1      47.265   8.261  12.555  0.00  0.00    +0.000 A 
ATOM     12  N   UNL     1      46.435   9.183  12.044  0.00  0.00    +0.000 NA
ATOM     13  C   UNL     1      46.966  10.405  11.784  0.00  0.00    +0.000 A 
BRANCH  13  14
ATOM     14  C   UNL     1      45.971  11.395  11.231  0.00  0.00    +0.000 C 
ATOM     15  N   UNL     1      45.112  11.931  12.155  0.00  0.00    +0.000 N 
ATOM     16  O   UNL     1      45.911  11.719  10.056  0.00  0.00    +0.000 OA
ATOM     17  H   UNL     1      45.184  11.662  13.128  0.00  0.00    +0.000 HD
ATOM     18  H   UNL     1      44.432  12.617  11.858  0.00  0.00    +0.000 HD
ENDBRANCH  13  14
ENDBRANCH   1  11
BRANCH   5  19
ATOM     19  C   UNL     1      43.355   5.090  12.531  0.00  0.00    +0.000 C 
BRANCH  19  20
ATOM     20  C   UNL     1      43.130   4.234  11.281  0.00  0.00    +0.000 C 
BRANCH  20  21
ATOM     21  N   UNL     1      43.686   4.831  10.072  0.00  0.00    +0.000 N 
ATOM     22  H   UNL     1      43.875   5.828  10.098  0.00  0.00    +0.000 HD
BRANCH  21  23
ATOM     23  C   UNL     1      44.542   4.069   9.273  0.00  0.00    +0.000 A 
ATOM     24  C   UNL     1      45.470   4.637   8.389  0.00  0.00    +0.000 A 
ATOM     25  C   UNL     1      46.378   3.850   7.673  0.00  0.00    +0.000 A 
ATOM     26  C   UNL     1      46.398   2.467   7.851  0.00  0.00    +0.000 A 
ATOM     27  C   UNL     1      45.490   1.879   8.736  0.00  0.00    +0.000 A 
ATOM     28  C   UNL     1      44.580   2.679   9.444  0.00  0.00    +0.000 A 
BRANCH  26  29
ATOM     29  C   UNL     1      47.382   1.677   7.066  0.00  0.00    +0.000 C 
ATOM     30  N   UNL     1      48.434   2.348   6.513  0.00  0.00    +0.000 N 
ATOM     31  O   UNL     1      47.240   0.472   6.882  0.00  0.00    +0.000 OA
ATOM     32  H   UNL     1      48.460   3.354   6.436  0.00  0.00    +0.000 HD
ATOM     33  H   UNL     1      49.026   1.811   5.892  0.00  0.00    +0.000 HD
ENDBRANCH  26  29
ENDBRANCH  21  23
ENDBRANCH  20  21
ENDBRANCH  19  20
ENDBRANCH   5  19
TORSDOF 7
ENDMDL
MODEL 5
REMARK VINA RESULT:    -8.192      3.342      5.170
REMARK INTER + INTRA:         -12.570
REMARK INTER:                 -11.489
REMARK INTRA:                  -1.082
REMARK UNBOUND:                -1.026
REMARK  Name = 
REMARK  8 active torsions:
REMARK  status: ('A' for Active; 'I' for Inactive)
REMARK    1  A    between atoms: C_1  and  C_2
REMARK    2  A    between atoms: C_5  and  C_6
REMARK    3  A    between atoms: C_10  and  C_11
REMARK    4  A    between atoms: C_11  and  C_12
REMARK    5  A    between atoms: C_12  and  N_13
REMARK    6  A    between atoms: N_13  and  C_14
REMARK    7  A    between atoms: C_17  and  C_18
REMARK    8  A    between atoms: C_25  and  C_26
REMARK                            x       y       z     vdW  Elec       q    Type
REMARK                         _______ _______ _______ _____ _____    ______ ____
ROOT
ATOM      1  C   UNL     1      45.817   7.240  12.512  0.00  0.00    +0.000 A 
ATOM      2  C   UNL     1      47.063   6.732  12.922  0.00  0.00    +0.000 A 
ATOM      3  C   UNL     1      47.218   5.397  13.281  0.00  0.00    +0.000 A 
ATOM      4  C   UNL     1      46.125   4.537  13.251  0.00  0.00    +0.000 A 
ATOM      5  C   UNL     1      44.858   4.995  12.870  0.00  0.00    +0.000 A 
ATOM      6  C   UNL     1      44.726   6.345  12.494  0.00  0.00    +0.000 A 
ENDROOT
BRANCH   1  11
ATOM      7  C   UNL     1      45.220  12.672  10.896  0.00  0.00    +0.000 C 
ATOM      8  C   UNL     1      45.410  11.263  11.348  0.00  0.00    +0.000 A 
ATOM      9  C   UNL     1      44.373  10.357  11.292  0.00  0.00    +0.000 A 
ATOM     10  N   UNL     1      44.471   9.066  11.665  0.00  0.00    +0.000 NA
ATOM     11  C   UNL     1      45.666   8.654  12.119  0.00  0.00    +0.000 A 
ATOM     12  N   UNL     1      46.744   9.446  12.228  0.00  0.00    +0.000 NA
ATOM     13  C   UNL     1      46.593  10.738  11.838  0.00  0.00    +0.000 A 
BRANCH  13  14
ATOM     14  C   UNL     1      47.850  11.563  11.969  0.00  0.00    +0.000 C 
ATOM     15  N   UNL     1      48.547  11.745  10.803  0.00  0.00    +0.000 N 
ATOM     16  O   UNL     1      48.242  12.049  13.017  0.00  0.00    +0.000 OA
ATOM     17  H   UNL     1      48.200  11.347   9.940  0.00  0.00    +0.000 HD
ATOM     18  H   UNL     1      49.388  12.305  10.813  0.00  0.00    +0.000 HD
ENDBRANCH  13  14
ENDBRANCH   1  11
BRANCH   5  19
ATOM     19  C   UNL     1      43.620   4.114  12.863  0.00  0.00    +0.000 C 
BRANCH  19  20
ATOM     20  C   UNL     1      43.556   3.124  11.697  0.00  0.00    +0.000 C 
BRANCH  20  21
ATOM     21  N   UNL     1      43.634   3.772  10.392  0.00  0.00    +0.000 N 
ATOM     22  H   UNL     1      43.332   4.739  10.343  0.00  0.00    +0.000 HD
BRANCH  21  23
ATOM     23  C   UNL     1      44.659   3.407   9.516  0.00  0.00    +0.000 A 
ATOM     24  C   UNL     1      44.984   2.073   9.233  0.00  0.00    +0.000 A 
ATOM     25  C   UNL     1      45.951   1.740   8.280  0.00  0.00    +0.000 A 
ATOM     26  C   UNL     1      46.599   2.744   7.559  0.00  0.00    +0.000 A 
ATOM     27  C   UNL     1      46.282   4.081   7.815  0.00  0.00    +0.000 A 
ATOM     28  C   UNL     1      45.314   4.402   8.779  0.00  0.00    +0.000 A 
BRANCH  26  29
ATOM     29  C   UNL     1      47.619   2.337   6.557  0.00  0.00    +0.000 C 
ATOM     30  N   UNL     1      47.742   3.103   5.434  0.00  0.00    +0.000 N 
ATOM     31  O   UNL     1      48.300   1.327   6.707  0.00  0.00    +0.000 OA
ATOM     32  H   UNL     1      47.052   3.787   5.162  0.00  0.00    +0.000 HD
ATOM     33  H   UNL     1      48.361   2.744   4.718  0.00  0.00    +0.000 HD
ENDBRANCH  26  29
ENDBRANCH  21  23
ENDBRANCH  20  21
ENDBRANCH  19  20
ENDBRANCH   5  19
TORSDOF 7
ENDMDL
MODEL 6
REMARK VINA RESULT:    -8.082      2.874      4.543
REMARK INTER + INTRA:         -12.416
REMARK INTER:                 -11.413
REMARK INTRA:                  -1.003
REMARK UNBOUND:                -1.026
REMARK  Name = 
REMARK  8 active torsions:
REMARK  status: ('A' for Active; 'I' for Inactive)
REMARK    1  A    between atoms: C_1  and  C_2
REMARK    2  A    between atoms: C_5  and  C_6
REMARK    3  A    between atoms: C_10  and  C_11
REMARK    4  A    between atoms: C_11  and  C_12
REMARK    5  A    between atoms: C_12  and  N_13
REMARK    6  A    between atoms: N_13  and  C_14
REMARK    7  A    between atoms: C_17  and  C_18
REMARK    8  A    between atoms: C_25  and  C_26
REMARK                            x       y       z     vdW  Elec       q    Type
REMARK                         _______ _______ _______ _____ _____    ______ ____
ROOT
ATOM      1  C   UNL     1      47.256   6.873  12.712  0.00  0.00    +0.000 A 
ATOM      2  C   UNL     1      47.780   5.873  13.551  0.00  0.00    +0.000 A 
ATOM      3  C   UNL     1      47.010   4.786  13.954  0.00  0.00    +0.000 A 
ATOM      4  C   UNL     1      45.686   4.680  13.537  0.00  0.00    +0.000 A 
ATOM      5  C   UNL     1      45.108   5.658  12.718  0.00  0.00    +0.000 A 
ATOM      6  C   UNL     1      45.910   6.739  12.307  0.00  0.00    +0.000 A 
ENDROOT
BRANCH   1  11
ATOM      7  C   UNL     1      50.416  11.273  10.944  0.00  0.00    +0.000 C 
ATOM      8  C   UNL     1      49.626  10.104  11.429  0.00  0.00    +0.000 A 
ATOM      9  C   UNL     1      48.263  10.198  11.611  0.00  0.00    +0.000 A 
ATOM     10  N   UNL     1      47.480   9.184  12.027  0.00  0.00    +0.000 NA
ATOM     11  C   UNL     1      48.087   8.012  12.279  0.00  0.00    +0.000 A 
ATOM     12  N   UNL     1      49.405   7.804  12.147  0.00  0.00    +0.000 NA
ATOM     13  C   UNL     1      50.150   8.857  11.723  0.00  0.00    +0.000 A 
BRANCH  13  14
ATOM     14  C   UNL     1      51.619   8.544  11.578  0.00  0.00    +0.000 C 
ATOM     15  N   UNL     1      52.044   8.336  10.292  0.00  0.00    +0.000 N 
ATOM     16  O   UNL     1      52.398   8.477  12.515  0.00  0.00    +0.000 OA
ATOM     17  H   UNL     1      51.387   8.409   9.525  0.00  0.00    +0.000 HD
ATOM     18  H   UNL     1      53.020   8.142  10.119  0.00  0.00    +0.000 HD
ENDBRANCH  13  14
ENDBRANCH   1  11
BRANCH   5  19
ATOM     19  C   UNL     1      43.657   5.619  12.271  0.00  0.00    +0.000 C 
BRANCH  19  20
ATOM     20  C   UNL     1      43.333   4.499  11.277  0.00  0.00    +0.000 C 
BRANCH  20  21
ATOM     21  N   UNL     1      43.650   4.850   9.898  0.00  0.00    +0.000 N 
ATOM     22  H   UNL     1      43.696   5.839   9.676  0.00  0.00    +0.000 HD
BRANCH  21  23
ATOM     23  C   UNL     1      44.504   4.020   9.168  0.00  0.00    +0.000 A 
ATOM     24  C   UNL     1      45.508   4.512   8.320  0.00  0.00    +0.000 A 
ATOM     25  C   UNL     1      46.408   3.657   7.677  0.00  0.00    +0.000 A 
ATOM     26  C   UNL     1      46.343   2.280   7.893  0.00  0.00    +0.000 A 
ATOM     27  C   UNL     1      45.359   1.768   8.742  0.00  0.00    +0.000 A 
ATOM     28  C   UNL     1      44.457   2.636   9.378  0.00  0.00    +0.000 A 
BRANCH  26  29
ATOM     29  C   UNL     1      47.323   1.416   7.184  0.00  0.00    +0.000 C 
ATOM     30  N   UNL     1      48.407   2.023   6.618  0.00  0.00    +0.000 N 
ATOM     31  O   UNL     1      47.151   0.206   7.072  0.00  0.00    +0.000 OA
ATOM     32  H   UNL     1      48.463   3.021   6.480  0.00  0.00    +0.000 HD
ATOM     33  H   UNL     1      48.998   1.432   6.048  0.00  0.00    +0.000 HD
ENDBRANCH  26  29
ENDBRANCH  21  23
ENDBRANCH  20  21
ENDBRANCH  19  20
ENDBRANCH   5  19
TORSDOF 7
ENDMDL
MODEL 7
REMARK VINA RESULT:    -7.507      3.688      4.756
REMARK INTER + INTRA:         -11.605
REMARK INTER:                 -10.837
REMARK INTRA:                  -0.768
REMARK UNBOUND:                -1.026
REMARK  Name = 
REMARK  8 active torsions:
REMARK  status: ('A' for Active; 'I' for Inactive)
REMARK    1  A    between atoms: C_1  and  C_2
REMARK    2  A    between atoms: C_5  and  C_6
REMARK    3  A    between atoms: C_10  and  C_11
REMARK    4  A    between atoms: C_11  and  C_12
REMARK    5  A    between atoms: C_12  and  N_13
REMARK    6  A    between atoms: N_13  and  C_14
REMARK    7  A    between atoms: C_17  and  C_18
REMARK    8  A    between atoms: C_25  and  C_26
REMARK                            x       y       z     vdW  Elec       q    Type
REMARK                         _______ _______ _______ _____ _____    ______ ____
ROOT
ATOM      1  C   UNL     1      48.242   8.014  12.455  0.00  0.00    +0.000 A 
ATOM      2  C   UNL     1      47.393   9.036  12.917  0.00  0.00    +0.000 A 
ATOM      3  C   UNL     1      46.010   8.878  12.935  0.00  0.00    +0.000 A 
ATOM      4  C   UNL     1      45.440   7.695  12.475  0.00  0.00    +0.000 A 
ATOM      5  C   UNL     1      46.238   6.653  11.984  0.00  0.00    +0.000 A 
ATOM      6  C   UNL     1      47.635   6.827  11.992  0.00  0.00    +0.000 A 
ENDROOT
BRANCH   1  11
ATOM      7  C   UNL     1      53.887   8.786  12.453  0.00  0.00    +0.000 C 
ATOM      8  C   UNL     1      52.415   8.549  12.425  0.00  0.00    +0.000 A 
ATOM      9  C   UNL     1      51.619   8.914  13.489  0.00  0.00    +0.000 A 
ATOM     10  N   UNL     1      50.282   8.749  13.530  0.00  0.00    +0.000 NA
ATOM     11  C   UNL     1      49.707   8.187  12.454  0.00  0.00    +0.000 A 
ATOM     12  N   UNL     1      50.379   7.782  11.366  0.00  0.00    +0.000 NA
ATOM     13  C   UNL     1      51.724   7.973  11.374  0.00  0.00    +0.000 A 
BRANCH  13  14
ATOM     14  C   UNL     1      52.410   7.513  10.111  0.00  0.00    +0.000 C 
ATOM     15  N   UNL     1      52.852   6.216  10.131  0.00  0.00    +0.000 N 
ATOM     16  O   UNL     1      52.573   8.216   9.127  0.00  0.00    +0.000 OA
ATOM     17  H   UNL     1      52.696   5.642  10.950  0.00  0.00    +0.000 HD
ATOM     18  H   UNL     1      53.302   5.834   9.311  0.00  0.00    +0.000 HD
ENDBRANCH  13  14
ENDBRANCH   1  11
BRANCH   5  19
ATOM     19  C   UNL     1      45.670   5.360  11.427  0.00  0.00    +0.000 C 
BRANCH  19  20
ATOM     20  C   UNL     1      44.159   5.390  11.178  0.00  0.00    +0.000 C 
BRANCH  20  21
ATOM     21  N   UNL     1      43.799   5.037   9.809  0.00  0.00    +0.000 N 
ATOM     22  H   UNL     1      43.407   5.775   9.234  0.00  0.00    +0.000 HD
BRANCH  21  23
ATOM     23  C   UNL     1      44.557   4.076   9.137  0.00  0.00    +0.000 A 
ATOM     24  C   UNL     1      45.597   4.404   8.253  0.00  0.00    +0.000 A 
ATOM     25  C   UNL     1      46.399   3.420   7.668  0.00  0.00    +0.000 A 
ATOM     26  C   UNL     1      46.198   2.075   7.980  0.00  0.00    +0.000 A 
ATOM     27  C   UNL     1      45.176   1.725   8.867  0.00  0.00    +0.000 A 
ATOM     28  C   UNL     1      44.373   2.722   9.443  0.00  0.00    +0.000 A 
BRANCH  26  29
ATOM     29  C   UNL     1      47.079   1.069   7.331  0.00  0.00    +0.000 C 
ATOM     30  N   UNL     1      46.890  -0.242   7.662  0.00  0.00    +0.000 N 
ATOM     31  O   UNL     1      47.972   1.399   6.557  0.00  0.00    +0.000 OA
ATOM     32  H   UNL     1      46.342  -0.531   8.458  0.00  0.00    +0.000 HD
ATOM     33  H   UNL     1      47.572  -0.894   7.295  0.00  0.00    +0.000 HD
ENDBRANCH  26  29
ENDBRANCH  21  23
ENDBRANCH  20  21
ENDBRANCH  19  20
ENDBRANCH   5  19
TORSDOF 7
ENDMDL
MODEL 8
REMARK VINA RESULT:    -7.173      2.846      4.046
REMARK INTER + INTRA:         -11.134
REMARK INTER:                  -9.963
REMARK INTRA:                  -1.172
REMARK UNBOUND:                -1.026
REMARK  Name = 
REMARK  8 active torsions:
REMARK  status: ('A' for Active; 'I' for Inactive)
REMARK    1  A    between atoms: C_1  and  C_2
REMARK    2  A    between atoms: C_5  and  C_6
REMARK    3  A    between atoms: C_10  and  C_11
REMARK    4  A    between atoms: C_11  and  C_12
REMARK    5  A    between atoms: C_12  and  N_13
REMARK    6  A    between atoms: N_13  and  C_14
REMARK    7  A    between atoms: C_17  and  C_18
REMARK    8  A    between atoms: C_25  and  C_26
REMARK                            x       y       z     vdW  Elec       q    Type
REMARK                         _______ _______ _______ _____ _____    ______ ____
ROOT
ATOM      1  C   UNL     1      48.684   7.429  14.163  0.00  0.00    +0.000 A 
ATOM      2  C   UNL     1      49.754   7.261  13.265  0.00  0.00    +0.000 A 
ATOM      3  C   UNL     1      49.772   7.902  12.030  0.00  0.00    +0.000 A 
ATOM      4  C   UNL     1      48.709   8.718  11.655  0.00  0.00    +0.000 A 
ATOM      5  C   UNL     1      47.609   8.904  12.503  0.00  0.00    +0.000 A 
ATOM      6  C   UNL     1      47.620   8.261  13.754  0.00  0.00    +0.000 A 
ENDROOT
BRANCH   1  11
ATOM      7  C   UNL     1      48.785   4.842  19.239  0.00  0.00    +0.000 C 
ATOM      8  C   UNL     1      48.726   5.490  17.897  0.00  0.00    +0.000 A 
ATOM      9  C   UNL     1      49.063   6.816  17.735  0.00  0.00    +0.000 A 
ATOM     10  N   UNL     1      49.053   7.465  16.555  0.00  0.00    +0.000 NA
ATOM     11  C   UNL     1      48.683   6.757  15.476  0.00  0.00    +0.000 A 
ATOM     12  N   UNL     1      48.323   5.465  15.510  0.00  0.00    +0.000 NA
ATOM     13  C   UNL     1      48.353   4.856  16.724  0.00  0.00    +0.000 A 
BRANCH  13  14
ATOM     14  C   UNL     1      47.957   3.400  16.684  0.00  0.00    +0.000 C 
ATOM     15  N   UNL     1      46.762   3.107  17.288  0.00  0.00    +0.000 N 
ATOM     16  O   UNL     1      48.625   2.525  16.158  0.00  0.00    +0.000 OA
ATOM     17  H   UNL     1      46.214   3.848  17.708  0.00  0.00    +0.000 HD
ATOM     18  H   UNL     1      46.425   2.156  17.281  0.00  0.00    +0.000 HD
ENDBRANCH  13  14
ENDBRANCH   1  11
BRANCH   5  19
ATOM     19  C   UNL     1      46.402   9.746  12.128  0.00  0.00    +0.000 C 
BRANCH  19  20
ATOM     20  C   UNL     1      45.059   9.156  12.569  0.00  0.00    +0.000 C 
BRANCH  20  21
ATOM     21  N   UNL     1      44.303   8.570  11.468  0.00  0.00    +0.000 N 
ATOM     22  H   UNL     1      44.283   9.091  10.598  0.00  0.00    +0.000 HD
BRANCH  21  23
ATOM     23  C   UNL     1      44.251   7.179  11.348  0.00  0.00    +0.000 A 
ATOM     24  C   UNL     1      43.052   6.452  11.393  0.00  0.00    +0.000 A 
ATOM     25  C   UNL     1      43.023   5.072  11.175  0.00  0.00    +0.000 A 
ATOM     26  C   UNL     1      44.200   4.385  10.874  0.00  0.00    +0.000 A 
ATOM     27  C   UNL     1      45.405   5.090  10.813  0.00  0.00    +0.000 A 
ATOM     28  C   UNL     1      45.422   6.475  11.039  0.00  0.00    +0.000 A 
BRANCH  26  29
ATOM     29  C   UNL     1      44.114   2.918  10.652  0.00  0.00    +0.000 C 
ATOM     30  N   UNL     1      43.511   2.167  11.619  0.00  0.00    +0.000 N 
ATOM     31  O   UNL     1      44.602   2.389   9.658  0.00  0.00    +0.000 OA
ATOM     32  H   UNL     1      43.317   2.521  12.543  0.00  0.00    +0.000 HD
ATOM     33  H   UNL     1      43.565   1.163  11.498  0.00  0.00    +0.000 HD
ENDBRANCH  26  29
ENDBRANCH  21  23
ENDBRANCH  20  21
ENDBRANCH  19  20
ENDBRANCH   5  19
TORSDOF 7
ENDMDL
MODEL 9
REMARK VINA RESULT:    -7.135      2.490      7.913
REMARK INTER + INTRA:         -11.081
REMARK INTER:                 -10.058
REMARK INTRA:                  -1.023
REMARK UNBOUND:                -1.026
REMARK  Name = 
REMARK  8 active torsions:
REMARK  status: ('A' for Active; 'I' for Inactive)
REMARK    1  A    between atoms: C_1  and  C_2
REMARK    2  A    between atoms: C_5  and  C_6
REMARK    3  A    between atoms: C_10  and  C_11
REMARK    4  A    between atoms: C_11  and  C_12
REMARK    5  A    between atoms: C_12  and  N_13
REMARK    6  A    between atoms: N_13  and  C_14
REMARK    7  A    between atoms: C_17  and  C_18
REMARK    8  A    between atoms: C_25  and  C_26
REMARK                            x       y       z     vdW  Elec       q    Type
REMARK                         _______ _______ _______ _____ _____    ______ ____
ROOT
ATOM      1  C   UNL     1      45.981   7.493  11.999  0.00  0.00    +0.000 A 
ATOM      2  C   UNL     1      45.284   8.714  12.055  0.00  0.00    +0.000 A 
ATOM      3  C   UNL     1      45.956   9.931  12.104  0.00  0.00    +0.000 A 
ATOM      4  C   UNL     1      47.347   9.957  12.112  0.00  0.00    +0.000 A 
ATOM      5  C   UNL     1      48.090   8.771  12.079  0.00  0.00    +0.000 A 
ATOM      6  C   UNL     1      47.391   7.551  12.011  0.00  0.00    +0.000 A 
ENDROOT
BRANCH   1  11
ATOM      7  C   UNL     1      43.257   2.492  11.813  0.00  0.00    +0.000 C 
ATOM      8  C   UNL     1      43.964   3.805  11.816  0.00  0.00    +0.000 A 
ATOM      9  C   UNL     1      43.956   4.611  12.934  0.00  0.00    +0.000 A 
ATOM     10  N   UNL     1      44.586   5.799  13.019  0.00  0.00    +0.000 NA
ATOM     11  C   UNL     1      45.259   6.209  11.932  0.00  0.00    +0.000 A 
ATOM     12  N   UNL     1      45.330   5.517  10.785  0.00  0.00    +0.000 NA
ATOM     13  C   UNL     1      44.679   4.324  10.751  0.00  0.00    +0.000 A 
BRANCH  13  14
ATOM     14  C   UNL     1      44.820   3.593   9.438  0.00  0.00    +0.000 C 
ATOM     15  N   UNL     1      44.128   4.144   8.391  0.00  0.00    +0.000 N 
ATOM     16  O   UNL     1      45.492   2.586   9.286  0.00  0.00    +0.000 OA
ATOM     17  H   UNL     1      43.586   4.987   8.531  0.00  0.00    +0.000 HD
ATOM     18  H   UNL     1      44.193   3.718   7.477  0.00  0.00    +0.000 HD
ENDBRANCH  13  14
ENDBRANCH   1  11
BRANCH   5  19
ATOM     19  C   UNL     1      49.608   8.737  12.132  0.00  0.00    +0.000 C 
BRANCH  19  20
ATOM     20  C   UNL     1      50.181   7.956  13.319  0.00  0.00    +0.000 C 
BRANCH  20  21
ATOM     21  N   UNL     1      49.443   8.176  14.557  0.00  0.00    +0.000 N 
ATOM     22  H   UNL     1      48.830   8.985  14.588  0.00  0.00    +0.000 HD
BRANCH  21  23
ATOM     23  C   UNL     1      49.032   7.071  15.306  0.00  0.00    +0.000 A 
ATOM     24  C   UNL     1      49.333   6.916  16.668  0.00  0.00    +0.000 A 
ATOM     25  C   UNL     1      48.828   5.846  17.413  0.00  0.00    +0.000 A 
ATOM     26  C   UNL     1      47.978   4.915  16.815  0.00  0.00    +0.000 A 
ATOM     27  C   UNL     1      47.656   5.056  15.462  0.00  0.00    +0.000 A 
ATOM     28  C   UNL     1      48.174   6.131  14.724  0.00  0.00    +0.000 A 
BRANCH  26  29
ATOM     29  C   UNL     1      47.470   3.797  17.651  0.00  0.00    +0.000 C 
ATOM     30  N   UNL     1      48.145   3.511  18.802  0.00  0.00    +0.000 N 
ATOM     31  O   UNL     1      46.503   3.124  17.306  0.00  0.00    +0.000 OA
ATOM     32  H   UNL     1      49.067   3.872  18.998  0.00  0.00    +0.000 HD
ATOM     33  H   UNL     1      47.849   2.677  19.294  0.00  0.00    +0.000 HD
ENDBRANCH  26  29
ENDBRANCH  21  23
ENDBRANCH  20  21
ENDBRANCH  19  20
ENDBRANCH   5  19
TORSDOF 7
ENDMDL
