MODEL 1
REMARK VINA RESULT:    -7.978      0.000      0.000
REMARK INTER + INTRA:         -12.463
REMARK INTER:                 -11.709
REMARK INTRA:                  -0.755
REMARK UNBOUND:                -0.755
REMARK  Name = 
REMARK  11 active torsions:
REMARK  status: ('A' for Active; 'I' for Inactive)
REMARK    1  A    between atoms: C_1  and  O_2
REMARK    2  A    between atoms: O_2  and  C_3
REMARK    3  A    between atoms: C_6  and  O_7
REMARK    4  A    between atoms: O_7  and  C_8
REMARK    5  A    between atoms: C_8  and  C_9
REMARK    6  A    between atoms: C_9  and  C_10
REMARK    7  A    between atoms: C_9  and  C_11
REMARK    8  A    between atoms: C_9  and  C_12
REMARK    9  A    between atoms: C_15  and  C_16
REMARK   10  A    between atoms: C_22  and  N_23
REMARK   11  A    between atoms: N_23  and  C_24
REMARK                            x       y       z     vdW  Elec       q    Type
REMARK                         _______ _______ _______ _____ _____    ______ ____
ROOT
ATOM      1  O   UNL     1      45.631   5.921  11.807  0.00  0.00    +0.000 OA
ENDROOT
BRANCH   1   5
ATOM      2  C   UNL     1      49.125   6.914  13.844  0.00  0.00    +0.000 A 
ATOM      3  C   UNL     1      49.004   7.225  12.483  0.00  0.00    +0.000 A 
ATOM      4  C   UNL     1      47.842   6.933  11.782  0.00  0.00    +0.000 A 
ATOM      5  C   UNL     1      46.780   6.317  12.428  0.00  0.00    +0.000 A 
ATOM      6  C   UNL     1      46.869   6.038  13.801  0.00  0.00    +0.000 A 
ATOM      7  C   UNL     1      48.039   6.308  14.532  0.00  0.00    +0.000 A 
BRANCH   2   9
ATOM      8  C   UNL     1      50.697   8.526  14.608  0.00  0.00    +0.000 C 
ATOM      9  O   UNL     1      50.281   7.158  14.554  0.00  0.00    +0.000 OA
ENDBRANCH   2   9
BRANCH   7  10
ATOM     10  N   UNL     1      48.086   6.088  15.937  0.00  0.00    +0.000 N 
ATOM     11  H   UNL     1      48.230   6.948  16.463  0.00  0.00    +0.000 HD
BRANCH  10  12
ATOM     12  C   UNL     1      48.210   4.843  16.647  0.00  0.00    +0.000 C 
ATOM     13  C   UNL     1      47.356   3.702  16.049  0.00  0.00    +0.000 C 
ATOM     14  N   UNL     1      46.776   3.425  17.371  0.00  0.00    +0.000 NA
ATOM     15  C   UNL     1      47.339   4.679  17.906  0.00  0.00    +0.000 C 
ATOM     16  H   UNL     1      47.145   2.581  17.815  0.00  0.00    +0.000 HD
ENDBRANCH  10  12
ENDBRANCH   7  10
ENDBRANCH   1   5
BRANCH   1  17
ATOM     17  C   UNL     1      45.142   4.606  12.114  0.00  0.00    +0.000 C 
BRANCH  17  18
ATOM     18  C   UNL     1      44.174   4.093  11.019  0.00  0.00    +0.000 C 
ATOM     19  C   UNL     1      43.353   2.932  11.635  0.00  0.00    +0.000 C 
ATOM     20  C   UNL     1      43.199   5.222  10.630  0.00  0.00    +0.000 C 
BRANCH  18  21
ATOM     21  C   UNL     1      44.942   3.602   9.783  0.00  0.00    +0.000 A 
ATOM     22  C   UNL     1      45.157   2.244   9.549  0.00  0.00    +0.000 A 
ATOM     23  C   UNL     1      45.878   1.837   8.433  0.00  0.00    +0.000 A 
ATOM     24  C   UNL     1      46.403   2.781   7.560  0.00  0.00    +0.000 A 
ATOM     25  C   UNL     1      46.146   4.114   7.851  0.00  0.00    +0.000 A 
ATOM     26  N   UNL     1      45.436   4.537   8.929  0.00  0.00    +0.000 NA
BRANCH  24  27
ATOM     27  C   UNL     1      47.196   2.323   6.404  0.00  0.00    +0.000 C 
ATOM     28  N   UNL     1      47.195   3.048   5.249  0.00  0.00    +0.000 N 
ATOM     29  O   UNL     1      47.861   1.285   6.464  0.00  0.00    +0.000 OA
ATOM     30  H   UNL     1      46.719   3.922   5.096  0.00  0.00    +0.000 HD
ATOM     31  H   UNL     1      47.781   2.694   4.502  0.00  0.00    +0.000 HD
ENDBRANCH  24  27
ENDBRANCH  18  21
ENDBRANCH  17  18
ENDBRANCH   1  17
TORSDOF 8
ENDMDL
MODEL 2
REMARK VINA RESULT:    -7.744      3.086      4.403
REMARK INTER + INTRA:         -12.120
REMARK INTER:                 -10.953
REMARK INTRA:                  -1.167
REMARK UNBOUND:                -0.755
REMARK  Name = 
REMARK  11 active torsions:
REMARK  status: ('A' for Active; 'I' for Inactive)
REMARK    1  A    between atoms: C_1  and  O_2
REMARK    2  A    between atoms: O_2  and  C_3
REMARK    3  A    between atoms: C_6  and  O_7
REMARK    4  A    between atoms: O_7  and  C_8
REMARK    5  A    between atoms: C_8  and  C_9
REMARK    6  A    between atoms: C_9  and  C_10
REMARK    7  A    between atoms: C_9  and  C_11
REMARK    8  A    between atoms: C_9  and  C_12
REMARK    9  A    between atoms: C_15  and  C_16
REMARK   10  A    between atoms: C_22  and  N_23
REMARK   11  A    between atoms: N_23  and  C_24
REMARK                            x       y       z     vdW  Elec       q    Type
REMARK                         _______ _______ _______ _____ _____    ______ ____
ROOT
ATOM      1  O   UNL     1      44.834   5.487  12.924  0.00  0.00    +0.000 OA
ENDROOT
BRANCH   1   5
ATOM      2  C   UNL     1      47.539   8.546  12.108  0.00  0.00    +0.000 A 
ATOM      3  C   UNL     1      47.948   7.211  11.994  0.00  0.00    +0.000 A 
ATOM      4  C   UNL     1      47.063   6.168  12.231  0.00  0.00    +0.000 A 
ATOM      5  C   UNL     1      45.753   6.442  12.595  0.00  0.00    +0.000 A 
ATOM      6  C   UNL     1      45.316   7.773  12.672  0.00  0.00    +0.000 A 
ATOM      7  C   UNL     1      46.194   8.849  12.452  0.00  0.00    +0.000 A 
BRANCH   2   9
ATOM      8  C   UNL     1      49.754   9.241  11.595  0.00  0.00    +0.000 C 
ATOM      9  O   UNL     1      48.407   9.600  11.915  0.00  0.00    +0.000 OA
ENDBRANCH   2   9
BRANCH   7  10
ATOM     10  N   UNL     1      45.717  10.189  12.461  0.00  0.00    +0.000 N 
ATOM     11  H   UNL     1      45.741  10.606  13.390  0.00  0.00    +0.000 HD
BRANCH  10  12
ATOM     12  C   UNL     1      45.004  10.896  11.430  0.00  0.00    +0.000 C 
ATOM     13  C   UNL     1      44.879  12.414  11.693  0.00  0.00    +0.000 C 
ATOM     14  N   UNL     1      43.426  12.345  11.477  0.00  0.00    +0.000 NA
ATOM     15  C   UNL     1      43.467  10.871  11.516  0.00  0.00    +0.000 C 
ATOM     16  H   UNL     1      43.125  12.728  10.578  0.00  0.00    +0.000 HD
ENDBRANCH  10  12
ENDBRANCH   7  10
ENDBRANCH   1   5
BRANCH   1  17
ATOM     17  C   UNL     1      45.054   4.164  12.413  0.00  0.00    +0.000 C 
BRANCH  17  18
ATOM     18  C   UNL     1      44.138   3.868  11.199  0.00  0.00    +0.000 C 
ATOM     19  C   UNL     1      43.276   2.632  11.561  0.00  0.00    +0.000 C 
ATOM     20  C   UNL     1      43.195   5.065  10.967  0.00  0.00    +0.000 C 
BRANCH  18  21
ATOM     21  C   UNL     1      44.964   3.586   9.935  0.00  0.00    +0.000 A 
ATOM     22  C   UNL     1      45.450   4.621   9.135  0.00  0.00    +0.000 A 
ATOM     23  C   UNL     1      46.172   4.327   7.985  0.00  0.00    +0.000 A 
ATOM     24  C   UNL     1      46.395   3.007   7.618  0.00  0.00    +0.000 A 
ATOM     25  C   UNL     1      45.888   2.028   8.463  0.00  0.00    +0.000 A 
ATOM     26  N   UNL     1      45.188   2.289   9.598  0.00  0.00    +0.000 NA
BRANCH  24  27
ATOM     27  C   UNL     1      47.133   2.724   6.373  0.00  0.00    +0.000 C 
ATOM     28  N   UNL     1      48.471   2.464   6.420  0.00  0.00    +0.000 N 
ATOM     29  O   UNL     1      46.556   2.724   5.282  0.00  0.00    +0.000 OA
ATOM     30  H   UNL     1      49.037   2.406   7.251  0.00  0.00    +0.000 HD
ATOM     31  H   UNL     1      48.914   2.252   5.533  0.00  0.00    +0.000 HD
ENDBRANCH  24  27
ENDBRANCH  18  21
ENDBRANCH  17  18
ENDBRANCH   1  17
TORSDOF 8
ENDMDL
MODEL 3
REMARK VINA RESULT:    -7.697      1.394      1.704
REMARK INTER + INTRA:         -12.052
REMARK INTER:                 -11.069
REMARK INTRA:                  -0.983
REMARK UNBOUND:                -0.755
REMARK  Name = 
REMARK  11 active torsions:
REMARK  status: ('A' for Active; 'I' for Inactive)
REMARK    1  A    between atoms: C_1  and  O_2
REMARK    2  A    between atoms: O_2  and  C_3
REMARK    3  A    between atoms: C_6  and  O_7
REMARK    4  A    between atoms: O_7  and  C_8
REMARK    5  A    between atoms: C_8  and  C_9
REMARK    6  A    between atoms: C_9  and  C_10
REMARK    7  A    between atoms: C_9  and  C_11
REMARK    8  A    between atoms: C_9  and  C_12
REMARK    9  A    between atoms: C_15  and  C_16
REMARK   10  A    between atoms: C_22  and  N_23
REMARK   11  A    between atoms: N_23  and  C_24
REMARK                            x       y       z     vdW  Elec       q    Type
REMARK                         _______ _______ _______ _____ _____    ______ ____
ROOT
ATOM      1  O   UNL     1      46.048   5.090  12.141  0.00  0.00    +0.000 OA
ENDROOT
BRANCH   1   5
ATOM      2  C   UNL     1      48.388   5.985  15.468  0.00  0.00    +0.000 A 
ATOM      3  C   UNL     1      48.595   6.680  14.269  0.00  0.00    +0.000 A 
ATOM      4  C   UNL     1      47.813   6.425  13.151  0.00  0.00    +0.000 A 
ATOM      5  C   UNL     1      46.813   5.465  13.208  0.00  0.00    +0.000 A 
ATOM      6  C   UNL     1      46.566   4.791  14.414  0.00  0.00    +0.000 A 
ATOM      7  C   UNL     1      47.351   5.017  15.558  0.00  0.00    +0.000 A 
BRANCH   2   9
ATOM      8  C   UNL     1      48.966   7.429  17.266  0.00  0.00    +0.000 C 
ATOM      9  O   UNL     1      49.174   6.191  16.581  0.00  0.00    +0.000 OA
ENDBRANCH   2   9
BRANCH   7  10
ATOM     10  N   UNL     1      47.040   4.381  16.791  0.00  0.00    +0.000 N 
ATOM     11  H   UNL     1      46.488   4.974  17.409  0.00  0.00    +0.000 HD
BRANCH  10  12
ATOM     12  C   UNL     1      47.596   3.176  17.346  0.00  0.00    +0.000 C 
ATOM     13  C   UNL     1      48.523   3.423  18.559  0.00  0.00    +0.000 C 
ATOM     14  N   UNL     1      49.581   2.618  17.931  0.00  0.00    +0.000 NA
ATOM     15  C   UNL     1      48.849   2.613  16.650  0.00  0.00    +0.000 C 
ATOM     16  H   UNL     1      49.696   1.692  18.348  0.00  0.00    +0.000 HD
ENDBRANCH  10  12
ENDBRANCH   7  10
ENDBRANCH   1   5
BRANCH   1  17
ATOM     17  C   UNL     1      45.166   3.974  12.330  0.00  0.00    +0.000 C 
BRANCH  17  18
ATOM     18  C   UNL     1      44.204   3.804  11.128  0.00  0.00    +0.000 C 
ATOM     19  C   UNL     1      43.233   2.646  11.473  0.00  0.00    +0.000 C 
ATOM     20  C   UNL     1      43.377   5.093  10.951  0.00  0.00    +0.000 C 
BRANCH  18  21
ATOM     21  C   UNL     1      44.975   3.483   9.839  0.00  0.00    +0.000 A 
ATOM     22  C   UNL     1      45.208   2.168   9.436  0.00  0.00    +0.000 A 
ATOM     23  C   UNL     1      45.931   1.916   8.277  0.00  0.00    +0.000 A 
ATOM     24  C   UNL     1      46.440   2.969   7.528  0.00  0.00    +0.000 A 
ATOM     25  C   UNL     1      46.165   4.252   7.984  0.00  0.00    +0.000 A 
ATOM     26  N   UNL     1      45.452   4.525   9.108  0.00  0.00    +0.000 NA
BRANCH  24  27
ATOM     27  C   UNL     1      47.235   2.672   6.323  0.00  0.00    +0.000 C 
ATOM     28  N   UNL     1      48.479   2.126   6.445  0.00  0.00    +0.000 N 
ATOM     29  O   UNL     1      46.792   2.915   5.196  0.00  0.00    +0.000 OA
ATOM     30  H   UNL     1      48.928   1.857   7.306  0.00  0.00    +0.000 HD
ATOM     31  H   UNL     1      48.962   1.921   5.579  0.00  0.00    +0.000 HD
ENDBRANCH  24  27
ENDBRANCH  18  21
ENDBRANCH  17  18
ENDBRANCH   1  17
TORSDOF 8
ENDMDL
MODEL 4
REMARK VINA RESULT:    -7.095      2.343      3.803
REMARK INTER + INTRA:         -11.169
REMARK INTER:                 -10.122
REMARK INTRA:                  -1.047
REMARK UNBOUND:                -0.755
REMARK  Name = 
REMARK  11 active torsions:
REMARK  status: ('A' for Active; 'I' for Inactive)
REMARK    1  A    between atoms: C_1  and  O_2
REMARK    2  A    between atoms: O_2  and  C_3
REMARK    3  A    between atoms: C_6  and  O_7
REMARK    4  A    between atoms: O_7  and  C_8
REMARK    5  A    between atoms: C_8  and  C_9
REMARK    6  A    between atoms: C_9  and  C_10
REMARK    7  A    between atoms: C_9  and  C_11
REMARK    8  A    between atoms: C_9  and  C_12
REMARK    9  A    between atoms: C_15  and  C_16
REMARK   10  A    between atoms: C_22  and  N_23
REMARK   11  A    between atoms: N_23  and  C_24
REMARK                            x       y       z     vdW  Elec       q    Type
REMARK                         _______ _______ _______ _____ _____    ______ ____
ROOT
ATOM      1  O   UNL     1      45.027   5.811  12.456  0.00  0.00    +0.000 OA
ENDROOT
BRANCH   1   5
ATOM      2  C   UNL     1      48.260   7.681  14.299  0.00  0.00    +0.000 A 
ATOM      3  C   UNL     1      48.166   6.283  14.317  0.00  0.00    +0.000 A 
ATOM      4  C   UNL     1      47.116   5.628  13.688  0.00  0.00    +0.000 A 
ATOM      5  C   UNL     1      46.136   6.360  13.034  0.00  0.00    +0.000 A 
ATOM      6  C   UNL     1      46.238   7.758  12.970  0.00  0.00    +0.000 A 
ATOM      7  C   UNL     1      47.281   8.449  13.611  0.00  0.00    +0.000 A 
BRANCH   2   9
ATOM      8  C   UNL     1      50.591   8.123  14.452  0.00  0.00    +0.000 C 
ATOM      9  O   UNL     1      49.270   8.358  14.948  0.00  0.00    +0.000 OA
ENDBRANCH   2   9
BRANCH   7  10
ATOM     10  N   UNL     1      47.412   9.859  13.474  0.00  0.00    +0.000 N 
ATOM     11  H   UNL     1      46.609  10.364  13.846  0.00  0.00    +0.000 HD
BRANCH  10  12
ATOM     12  C   UNL     1      48.359  10.601  12.685  0.00  0.00    +0.000 C 
ATOM     13  C   UNL     1      47.708  11.673  11.782  0.00  0.00    +0.000 C 
ATOM     14  N   UNL     1      48.426  11.145  10.614  0.00  0.00    +0.000 NA
ATOM     15  C   UNL     1      48.825   9.945  11.372  0.00  0.00    +0.000 C 
ATOM     16  H   UNL     1      49.211  11.728  10.315  0.00  0.00    +0.000 HD
ENDBRANCH  10  12
ENDBRANCH   7  10
ENDBRANCH   1   5
BRANCH   1  17
ATOM     17  C   UNL     1      45.022   4.387  12.276  0.00  0.00    +0.000 C 
BRANCH  17  18
ATOM     18  C   UNL     1      44.122   3.971  11.085  0.00  0.00    +0.000 C 
ATOM     19  C   UNL     1      43.300   2.737  11.536  0.00  0.00    +0.000 C 
ATOM     20  C   UNL     1      43.140   5.116  10.764  0.00  0.00    +0.000 C 
BRANCH  18  21
ATOM     21  C   UNL     1      44.962   3.626   9.847  0.00  0.00    +0.000 A 
ATOM     22  C   UNL     1      45.483   4.619   9.017  0.00  0.00    +0.000 A 
ATOM     23  C   UNL     1      46.218   4.268   7.892  0.00  0.00    +0.000 A 
ATOM     24  C   UNL     1      46.420   2.930   7.579  0.00  0.00    +0.000 A 
ATOM     25  C   UNL     1      45.879   1.994   8.452  0.00  0.00    +0.000 A 
ATOM     26  N   UNL     1      45.166   2.312   9.564  0.00  0.00    +0.000 NA
BRANCH  24  27
ATOM     27  C   UNL     1      47.172   2.586   6.359  0.00  0.00    +0.000 C 
ATOM     28  N   UNL     1      48.472   2.183   6.452  0.00  0.00    +0.000 N 
ATOM     29  O   UNL     1      46.643   2.661   5.246  0.00  0.00    +0.000 OA
ATOM     30  H   UNL     1      48.995   2.054   7.303  0.00  0.00    +0.000 HD
ATOM     31  H   UNL     1      48.924   1.936   5.579  0.00  0.00    +0.000 HD
ENDBRANCH  24  27
ENDBRANCH  18  21
ENDBRANCH  17  18
ENDBRANCH   1  17
TORSDOF 8
ENDMDL
MODEL 5
REMARK VINA RESULT:    -7.067      3.255      8.108
REMARK INTER + INTRA:         -11.126
REMARK INTER:                 -10.103
REMARK INTRA:                  -1.023
REMARK UNBOUND:                -0.755
REMARK  Name = 
REMARK  11 active torsions:
REMARK  status: ('A' for Active; 'I' for Inactive)
REMARK    1  A    between atoms: C_1  and  O_2
REMARK    2  A    between atoms: O_2  and  C_3
REMARK    3  A    between atoms: C_6  and  O_7
REMARK    4  A    between atoms: O_7  and  C_8
REMARK    5  A    between atoms: C_8  and  C_9
REMARK    6  A    between atoms: C_9  and  C_10
REMARK    7  A    between atoms: C_9  and  C_11
REMARK    8  A    between atoms: C_9  and  C_12
REMARK    9  A    between atoms: C_15  and  C_16
REMARK   10  A    between atoms: C_22  and  N_23
REMARK   11  A    between atoms: N_23  and  C_24
REMARK                            x       y       z     vdW  Elec       q    Type
REMARK                         _______ _______ _______ _____ _____    ______ ____
ROOT
ATOM      1  O   UNL     1      47.766   4.722  14.813  0.00  0.00    +0.000 OA
ENDROOT
BRANCH   1   5
ATOM      2  C   UNL     1      45.454   6.820  12.058  0.00  0.00    +0.000 A 
ATOM      3  C   UNL     1      46.791   7.186  12.261  0.00  0.00    +0.000 A 
ATOM      4  C   UNL     1      47.597   6.489  13.151  0.00  0.00    +0.000 A 
ATOM      5  C   UNL     1      47.077   5.416  13.861  0.00  0.00    +0.000 A 
ATOM      6  C   UNL     1      45.752   5.011  13.638  0.00  0.00    +0.000 A 
ATOM      7  C   UNL     1      44.909   5.708  12.754  0.00  0.00    +0.000 A 
BRANCH   2   9
ATOM      8  C   UNL     1      44.587   8.935  11.405  0.00  0.00    +0.000 C 
ATOM      9  O   UNL     1      44.622   7.519  11.209  0.00  0.00    +0.000 OA
ENDBRANCH   2   9
BRANCH   7  10
ATOM     10  N   UNL     1      43.593   5.240  12.484  0.00  0.00    +0.000 N 
ATOM     11  H   UNL     1      42.932   5.484  13.219  0.00  0.00    +0.000 HD
BRANCH  10  12
ATOM     12  C   UNL     1      43.163   4.294  11.488  0.00  0.00    +0.000 C 
ATOM     13  C   UNL     1      43.389   2.820  11.896  0.00  0.00    +0.000 C 
ATOM     14  N   UNL     1      44.084   2.561  10.627  0.00  0.00    +0.000 NA
ATOM     15  C   UNL     1      44.149   4.006  10.341  0.00  0.00    +0.000 C 
ATOM     16  H   UNL     1      43.527   2.029   9.954  0.00  0.00    +0.000 HD
ENDBRANCH  10  12
ENDBRANCH   7  10
ENDBRANCH   1   5
BRANCH   1  17
ATOM     17  C   UNL     1      48.310   5.476  15.907  0.00  0.00    +0.000 C 
BRANCH  17  18
ATOM     18  C   UNL     1      48.294   4.657  17.222  0.00  0.00    +0.000 C 
ATOM     19  C   UNL     1      48.221   5.667  18.395  0.00  0.00    +0.000 C 
ATOM     20  C   UNL     1      47.028   3.778  17.260  0.00  0.00    +0.000 C 
BRANCH  18  21
ATOM     21  C   UNL     1      49.553   3.786  17.350  0.00  0.00    +0.000 A 
ATOM     22  C   UNL     1      49.513   2.410  17.127  0.00  0.00    +0.000 A 
ATOM     23  C   UNL     1      50.667   1.650  17.276  0.00  0.00    +0.000 A 
ATOM     24  C   UNL     1      51.856   2.254  17.665  0.00  0.00    +0.000 A 
ATOM     25  C   UNL     1      51.824   3.628  17.864  0.00  0.00    +0.000 A 
ATOM     26  N   UNL     1      50.712   4.394  17.714  0.00  0.00    +0.000 NA
BRANCH  24  27
ATOM     27  C   UNL     1      53.056   1.418  17.851  0.00  0.00    +0.000 C 
ATOM     28  N   UNL     1      52.925   0.078  18.069  0.00  0.00    +0.000 N 
ATOM     29  O   UNL     1      54.185   1.915  17.818  0.00  0.00    +0.000 OA
ATOM     30  H   UNL     1      52.061  -0.440  18.084  0.00  0.00    +0.000 HD
ATOM     31  H   UNL     1      53.788  -0.444  18.162  0.00  0.00    +0.000 HD
ENDBRANCH  24  27
ENDBRANCH  18  21
ENDBRANCH  17  18
ENDBRANCH   1  17
TORSDOF 8
ENDMDL
MODEL 6
REMARK VINA RESULT:    -7.001      1.765      3.402
REMARK INTER + INTRA:         -11.029
REMARK INTER:                 -10.005
REMARK INTRA:                  -1.024
REMARK UNBOUND:                -0.755
REMARK  Name = 
REMARK  11 active torsions:
REMARK  status: ('A' for Active; 'I' for Inactive)
REMARK    1  A    between atoms: C_1  and  O_2
REMARK    2  A    between atoms: O_2  and  C_3
REMARK    3  A    between atoms: C_6  and  O_7
REMARK    4  A    between atoms: O_7  and  C_8
REMARK    5  A    between atoms: C_8  and  C_9
REMARK    6  A    between atoms: C_9  and  C_10
REMARK    7  A    between atoms: C_9  and  C_11
REMARK    8  A    between atoms: C_9  and  C_12
REMARK    9  A    between atoms: C_15  and  C_16
REMARK   10  A    between atoms: C_22  and  N_23
REMARK   11  A    between atoms: N_23  and  C_24
REMARK                            x       y       z     vdW  Elec       q    Type
REMARK                         _______ _______ _______ _____ _____    ______ ____
ROOT
ATOM      1  O   UNL     1      45.542   4.175  13.391  0.00  0.00    +0.000 OA
ENDROOT
BRANCH   1   5
ATOM      2  C   UNL     1      48.553   5.989  15.624  0.00  0.00    +0.000 A 
ATOM      3  C   UNL     1      47.920   4.842  16.119  0.00  0.00    +0.000 A 
ATOM      4  C   UNL     1      46.932   4.197  15.387  0.00  0.00    +0.000 A 
ATOM      5  C   UNL     1      46.555   4.692  14.147  0.00  0.00    +0.000 A 
ATOM      6  C   UNL     1      47.209   5.815  13.619  0.00  0.00    +0.000 A 
ATOM      7  C   UNL     1      48.202   6.498  14.344  0.00  0.00    +0.000 A 
BRANCH   2   9
ATOM      8  C   UNL     1      49.377   6.599  17.769  0.00  0.00    +0.000 C 
ATOM      9  O   UNL     1      49.509   6.671  16.347  0.00  0.00    +0.000 OA
ENDBRANCH   2   9
BRANCH   7  10
ATOM     10  N   UNL     1      48.907   7.588  13.764  0.00  0.00    +0.000 N 
ATOM     11  H   UNL     1      49.339   8.190  14.462  0.00  0.00    +0.000 HD
BRANCH  10  12
ATOM     12  C   UNL     1      48.865   8.064  12.406  0.00  0.00    +0.000 C 
ATOM     13  C   UNL     1      50.240   8.043  11.701  0.00  0.00    +0.000 C 
ATOM     14  N   UNL     1      50.074   9.449  11.307  0.00  0.00    +0.000 NA
ATOM     15  C   UNL     1      48.917   9.590  12.210  0.00  0.00    +0.000 C 
ATOM     16  H   UNL     1      49.847   9.576  10.317  0.00  0.00    +0.000 HD
ENDBRANCH  10  12
ENDBRANCH   7  10
ENDBRANCH   1   5
BRANCH   1  17
ATOM     17  C   UNL     1      45.123   4.938  12.250  0.00  0.00    +0.000 C 
BRANCH  17  18
ATOM     18  C   UNL     1      44.213   4.103  11.315  0.00  0.00    +0.000 C 
ATOM     19  C   UNL     1      43.815   2.818  12.084  0.00  0.00    +0.000 C 
ATOM     20  C   UNL     1      42.930   4.900  11.007  0.00  0.00    +0.000 C 
BRANCH  18  21
ATOM     21  C   UNL     1      44.940   3.738  10.012  0.00  0.00    +0.000 A 
ATOM     22  C   UNL     1      45.060   2.414   9.589  0.00  0.00    +0.000 A 
ATOM     23  C   UNL     1      45.746   2.119   8.417  0.00  0.00    +0.000 A 
ATOM     24  C   UNL     1      46.331   3.138   7.676  0.00  0.00    +0.000 A 
ATOM     25  C   UNL     1      46.168   4.432   8.152  0.00  0.00    +0.000 A 
ATOM     26  N   UNL     1      45.493   4.747   9.289  0.00  0.00    +0.000 NA
BRANCH  24  27
ATOM     27  C   UNL     1      47.085   2.793   6.456  0.00  0.00    +0.000 C 
ATOM     28  N   UNL     1      48.437   2.624   6.517  0.00  0.00    +0.000 N 
ATOM     29  O   UNL     1      46.508   2.658   5.373  0.00  0.00    +0.000 OA
ATOM     30  H   UNL     1      49.005   2.676   7.347  0.00  0.00    +0.000 HD
ATOM     31  H   UNL     1      48.891   2.362   5.650  0.00  0.00    +0.000 HD
ENDBRANCH  24  27
ENDBRANCH  18  21
ENDBRANCH  17  18
ENDBRANCH   1  17
TORSDOF 8
ENDMDL
MODEL 7
REMARK VINA RESULT:    -6.632      3.222      5.173
REMARK INTER + INTRA:         -10.489
REMARK INTER:                  -9.361
REMARK INTRA:                  -1.128
REMARK UNBOUND:                -0.755
REMARK  Name = 
REMARK  11 active torsions:
REMARK  status: ('A' for Active; 'I' for Inactive)
REMARK    1  A    between atoms: C_1  and  O_2
REMARK    2  A    between atoms: O_2  and  C_3
REMARK    3  A    between atoms: C_6  and  O_7
REMARK    4  A    between atoms: O_7  and  C_8
REMARK    5  A    between atoms: C_8  and  C_9
REMARK    6  A    between atoms: C_9  and  C_10
REMARK    7  A    between atoms: C_9  and  C_11
REMARK    8  A    between atoms: C_9  and  C_12
REMARK    9  A    between atoms: C_15  and  C_16
REMARK   10  A    between atoms: C_22  and  N_23
REMARK   11  A    between atoms: N_23  and  C_24
REMARK                            x       y       z     vdW  Elec       q    Type
REMARK                         _______ _______ _______ _____ _____    ______ ____
ROOT
ATOM      1  O   UNL     1      49.631   7.646  15.007  0.00  0.00    +0.000 OA
ENDROOT
BRANCH   1   5
ATOM      2  C   UNL     1      52.089   5.278  17.393  0.00  0.00    +0.000 A 
ATOM      3  C   UNL     1      52.654   6.294  16.611  0.00  0.00    +0.000 A 
ATOM      4  C   UNL     1      51.860   7.119  15.827  0.00  0.00    +0.000 A 
ATOM      5  C   UNL     1      50.485   6.939  15.804  0.00  0.00    +0.000 A 
ATOM      6  C   UNL     1      49.899   5.953  16.614  0.00  0.00    +0.000 A 
ATOM      7  C   UNL     1      50.680   5.093  17.406  0.00  0.00    +0.000 A 
BRANCH   2   9
ATOM      8  C   UNL     1      54.201   4.228  17.695  0.00  0.00    +0.000 C 
ATOM      9  O   UNL     1      52.858   4.420  18.150  0.00  0.00    +0.000 OA
ENDBRANCH   2   9
BRANCH   7  10
ATOM     10  N   UNL     1      50.067   4.150  18.277  0.00  0.00    +0.000 N 
ATOM     11  H   UNL     1      50.185   4.391  19.260  0.00  0.00    +0.000 HD
BRANCH  10  12
ATOM     12  C   UNL     1      49.560   2.840  17.968  0.00  0.00    +0.000 C 
ATOM     13  C   UNL     1      50.485   2.022  17.038  0.00  0.00    +0.000 C 
ATOM     14  N   UNL     1      49.357   1.747  16.136  0.00  0.00    +0.000 NA
ATOM     15  C   UNL     1      48.529   2.752  16.828  0.00  0.00    +0.000 C 
ATOM     16  H   UNL     1      48.997   0.793  16.206  0.00  0.00    +0.000 HD
ENDBRANCH  10  12
ENDBRANCH   7  10
ENDBRANCH   1   5
BRANCH   1  17
ATOM     17  C   UNL     1      48.351   7.058  14.736  0.00  0.00    +0.000 C 
BRANCH  17  18
ATOM     18  C   UNL     1      47.911   7.310  13.272  0.00  0.00    +0.000 C 
ATOM     19  C   UNL     1      47.253   8.712  13.222  0.00  0.00    +0.000 C 
ATOM     20  C   UNL     1      49.155   7.327  12.362  0.00  0.00    +0.000 C 
BRANCH  18  21
ATOM     21  C   UNL     1      46.917   6.240  12.798  0.00  0.00    +0.000 A 
ATOM     22  C   UNL     1      46.343   6.288  11.527  0.00  0.00    +0.000 A 
ATOM     23  C   UNL     1      45.428   5.316  11.142  0.00  0.00    +0.000 A 
ATOM     24  C   UNL     1      45.068   4.307  12.025  0.00  0.00    +0.000 A 
ATOM     25  C   UNL     1      45.682   4.316  13.270  0.00  0.00    +0.000 A 
ATOM     26  N   UNL     1      46.587   5.249  13.667  0.00  0.00    +0.000 NA
BRANCH  24  27
ATOM     27  C   UNL     1      44.067   3.310  11.603  0.00  0.00    +0.000 C 
ATOM     28  N   UNL     1      43.677   2.329  12.467  0.00  0.00    +0.000 N 
ATOM     29  O   UNL     1      43.576   3.346  10.471  0.00  0.00    +0.000 OA
ATOM     30  H   UNL     1      43.984   2.220  13.420  0.00  0.00    +0.000 HD
ATOM     31  H   UNL     1      42.967   1.692  12.125  0.00  0.00    +0.000 HD
ENDBRANCH  24  27
ENDBRANCH  18  21
ENDBRANCH  17  18
ENDBRANCH   1  17
TORSDOF 8
ENDMDL
MODEL 8
REMARK VINA RESULT:    -6.617      3.403      5.504
REMARK INTER + INTRA:         -10.466
REMARK INTER:                  -9.059
REMARK INTRA:                  -1.407
REMARK UNBOUND:                -0.755
REMARK  Name = 
REMARK  11 active torsions:
REMARK  status: ('A' for Active; 'I' for Inactive)
REMARK    1  A    between atoms: C_1  and  O_2
REMARK    2  A    between atoms: O_2  and  C_3
REMARK    3  A    between atoms: C_6  and  O_7
REMARK    4  A    between atoms: O_7  and  C_8
REMARK    5  A    between atoms: C_8  and  C_9
REMARK    6  A    between atoms: C_9  and  C_10
REMARK    7  A    between atoms: C_9  and  C_11
REMARK    8  A    between atoms: C_9  and  C_12
REMARK    9  A    between atoms: C_15  and  C_16
REMARK   10  A    between atoms: C_22  and  N_23
REMARK   11  A    between atoms: N_23  and  C_24
REMARK                            x       y       z     vdW  Elec       q    Type
REMARK                         _______ _______ _______ _____ _____    ______ ____
ROOT
ATOM      1  O   UNL     1      49.467   8.188  15.202  0.00  0.00    +0.000 OA
ENDROOT
BRANCH   1   5
ATOM      2  C   UNL     1      48.716   6.208  18.788  0.00  0.00    +0.000 A 
ATOM      3  C   UNL     1      48.092   7.436  18.531  0.00  0.00    +0.000 A 
ATOM      4  C   UNL     1      48.299   8.107  17.334  0.00  0.00    +0.000 A 
ATOM      5  C   UNL     1      49.141   7.566  16.373  0.00  0.00    +0.000 A 
ATOM      6  C   UNL     1      49.740   6.317  16.598  0.00  0.00    +0.000 A 
ATOM      7  C   UNL     1      49.560   5.622  17.807  0.00  0.00    +0.000 A 
BRANCH   2   9
ATOM      8  C   UNL     1      48.788   6.316  21.162  0.00  0.00    +0.000 C 
ATOM      9  O   UNL     1      48.558   5.539  19.983  0.00  0.00    +0.000 OA
ENDBRANCH   2   9
BRANCH   7  10
ATOM     10  N   UNL     1      50.113   4.324  17.988  0.00  0.00    +0.000 N 
ATOM     11  H   UNL     1      51.128   4.340  18.078  0.00  0.00    +0.000 HD
BRANCH  10  12
ATOM     12  C   UNL     1      49.480   3.044  17.807  0.00  0.00    +0.000 C 
ATOM     13  C   UNL     1      50.350   2.028  17.033  0.00  0.00    +0.000 C 
ATOM     14  N   UNL     1      49.238   1.762  16.108  0.00  0.00    +0.000 NA
ATOM     15  C   UNL     1      48.495   2.924  16.629  0.00  0.00    +0.000 C 
ATOM     16  H   UNL     1      48.774   0.865  16.269  0.00  0.00    +0.000 HD
ENDBRANCH  10  12
ENDBRANCH   7  10
ENDBRANCH   1   5
BRANCH   1  17
ATOM     17  C   UNL     1      49.730   7.349  14.068  0.00  0.00    +0.000 C 
BRANCH  17  18
ATOM     18  C   UNL     1      48.779   7.677  12.890  0.00  0.00    +0.000 C 
ATOM     19  C   UNL     1      48.126   9.049  13.192  0.00  0.00    +0.000 C 
ATOM     20  C   UNL     1      49.601   7.808  11.592  0.00  0.00    +0.000 C 
BRANCH  18  21
ATOM     21  C   UNL     1      47.698   6.598  12.731  0.00  0.00    +0.000 A 
ATOM     22  C   UNL     1      46.676   6.722  11.789  0.00  0.00    +0.000 A 
ATOM     23  C   UNL     1      45.701   5.737  11.691  0.00  0.00    +0.000 A 
ATOM     24  C   UNL     1      45.729   4.639  12.540  0.00  0.00    +0.000 A 
ATOM     25  C   UNL     1      46.777   4.577  13.449  0.00  0.00    +0.000 A 
ATOM     26  N   UNL     1      47.749   5.521  13.558  0.00  0.00    +0.000 NA
BRANCH  24  27
ATOM     27  C   UNL     1      44.660   3.628  12.438  0.00  0.00    +0.000 C 
ATOM     28  N   UNL     1      44.703   2.690  11.449  0.00  0.00    +0.000 N 
ATOM     29  O   UNL     1      43.719   3.619  13.237  0.00  0.00    +0.000 OA
ATOM     30  H   UNL     1      45.435   2.581  10.765  0.00  0.00    +0.000 HD
ATOM     31  H   UNL     1      43.954   2.008  11.450  0.00  0.00    +0.000 HD
ENDBRANCH  24  27
ENDBRANCH  18  21
ENDBRANCH  17  18
ENDBRANCH   1  17
TORSDOF 8
ENDMDL
MODEL 9
REMARK VINA RESULT:    -6.442      2.294      8.554
REMARK INTER + INTRA:         -10.209
REMARK INTER:                  -9.072
REMARK INTRA:                  -1.136
REMARK UNBOUND:                -0.755
REMARK  Name = 
REMARK  11 active torsions:
REMARK  status: ('A' for Active; 'I' for Inactive)
REMARK    1  A    between atoms: C_1  and  O_2
REMARK    2  A    between atoms: O_2  and  C_3
REMARK    3  A    between atoms: C_6  and  O_7
REMARK    4  A    between atoms: O_7  and  C_8
REMARK    5  A    between atoms: C_8  and  C_9
REMARK    6  A    between atoms: C_9  and  C_10
REMARK    7  A    between atoms: C_9  and  C_11
REMARK    8  A    between atoms: C_9  and  C_12
REMARK    9  A    between atoms: C_15  and  C_16
REMARK   10  A    between atoms: C_22  and  N_23
REMARK   11  A    between atoms: N_23  and  C_24
REMARK                            x       y       z     vdW  Elec       q    Type
REMARK                         _______ _______ _______ _____ _____    ______ ____
ROOT
ATOM      1  O   UNL     1      47.467   6.934  11.646  0.00  0.00    +0.000 OA
ENDROOT
BRANCH   1   5
ATOM      2  C   UNL     1      44.104   4.486  11.438  0.00  0.00    +0.000 A 
ATOM      3  C   UNL     1      44.547   4.949  12.684  0.00  0.00    +0.000 A 
ATOM      4  C   UNL     1      45.648   5.789  12.785  0.00  0.00    +0.000 A 
ATOM      5  C   UNL     1      46.330   6.177  11.641  0.00  0.00    +0.000 A 
ATOM      6  C   UNL     1      45.873   5.757  10.383  0.00  0.00    +0.000 A 
ATOM      7  C   UNL     1      44.771   4.893  10.251  0.00  0.00    +0.000 A 
BRANCH   2   9
ATOM      8  C   UNL     1      43.263   2.289  11.784  0.00  0.00    +0.000 C 
ATOM      9  O   UNL     1      43.038   3.621  11.313  0.00  0.00    +0.000 OA
ENDBRANCH   2   9
BRANCH   7  10
ATOM     10  N   UNL     1      44.276   4.537   8.966  0.00  0.00    +0.000 N 
ATOM     11  H   UNL     1      43.385   4.983   8.753  0.00  0.00    +0.000 HD
BRANCH  10  12
ATOM     12  C   UNL     1      44.721   3.484   8.092  0.00  0.00    +0.000 C 
ATOM     13  C   UNL     1      45.328   2.275   8.840  0.00  0.00    +0.000 C 
ATOM     14  N   UNL     1      46.527   2.336   7.991  0.00  0.00    +0.000 NA
ATOM     15  C   UNL     1      46.118   3.652   7.467  0.00  0.00    +0.000 C 
ATOM     16  H   UNL     1      46.567   1.600   7.282  0.00  0.00    +0.000 HD
ENDBRANCH  10  12
ENDBRANCH   7  10
ENDBRANCH   1   5
BRANCH   1  17
ATOM     17  C   UNL     1      47.407   8.197  12.326  0.00  0.00    +0.000 C 
BRANCH  17  18
ATOM     18  C   UNL     1      48.746   8.520  13.036  0.00  0.00    +0.000 C 
ATOM     19  C   UNL     1      49.874   7.822  12.235  0.00  0.00    +0.000 C 
ATOM     20  C   UNL     1      48.991  10.041  12.993  0.00  0.00    +0.000 C 
BRANCH  18  21
ATOM     21  C   UNL     1      48.740   8.021  14.489  0.00  0.00    +0.000 A 
ATOM     22  C   UNL     1      48.468   8.879  15.554  0.00  0.00    +0.000 A 
ATOM     23  C   UNL     1      48.495   8.397  16.857  0.00  0.00    +0.000 A 
ATOM     24  C   UNL     1      48.812   7.068  17.103  0.00  0.00    +0.000 A 
ATOM     25  C   UNL     1      49.066   6.269  15.996  0.00  0.00    +0.000 A 
ATOM     26  N   UNL     1      49.035   6.713  14.712  0.00  0.00    +0.000 NA
BRANCH  24  27
ATOM     27  C   UNL     1      48.870   6.593  18.498  0.00  0.00    +0.000 C 
ATOM     28  N   UNL     1      47.860   5.825  18.998  0.00  0.00    +0.000 N 
ATOM     29  O   UNL     1      49.823   6.884  19.227  0.00  0.00    +0.000 OA
ATOM     30  H   UNL     1      47.053   5.501  18.490  0.00  0.00    +0.000 HD
ATOM     31  H   UNL     1      47.973   5.509  19.954  0.00  0.00    +0.000 HD
ENDBRANCH  24  27
ENDBRANCH  18  21
ENDBRANCH  17  18
ENDBRANCH   1  17
TORSDOF 8
ENDMDL
