MODEL 1
REMARK VINA RESULT:    -8.646      0.000      0.000
REMARK INTER + INTRA:         -14.424
REMARK INTER:                 -13.195
REMARK INTRA:                  -1.230
REMARK UNBOUND:                -1.230
REMARK  Name = 
REMARK  11 active torsions:
REMARK  status: ('A' for Active; 'I' for Inactive)
REMARK    1  A    between atoms: C_1  and  N_2
REMARK    2  A    between atoms: C_4  and  C_5
REMARK    3  A    between atoms: N_7  and  C_8
REMARK    4  A    between atoms: C_8  and  C_9
REMARK    5  A    between atoms: C_12  and  C_13
REMARK    6  A    between atoms: C_13  and  N_14
REMARK    7  A    between atoms: N_14  and  C_15
REMARK    8  A    between atoms: C_15  and  C_16
REMARK    9  A    between atoms: C_19  and  C_20
REMARK   10  A    between atoms: C_20  and  O_22
REMARK   11  A    between atoms: C_28  and  O_29
REMARK                            x       y       z     vdW  Elec       q    Type
REMARK                         _______ _______ _______ _____ _____    ______ ____
ROOT
ATOM      1  C   UNL     1      47.398   7.242  12.439  0.00  0.00    +0.000 A 
ATOM      2  C   UNL     1      47.060   5.884  12.498  0.00  0.00    +0.000 A 
ATOM      3  C   UNL     1      45.761   5.458  12.200  0.00  0.00    +0.000 A 
ATOM      4  C   UNL     1      44.775   6.386  11.835  0.00  0.00    +0.000 A 
ATOM      5  C   UNL     1      45.122   7.739  11.758  0.00  0.00    +0.000 A 
ATOM      6  C   UNL     1      46.419   8.165  12.050  0.00  0.00    +0.000 A 
ENDROOT
BRANCH   1   7
ATOM      7  C   UNL     1      48.796   7.685  12.773  0.00  0.00    +0.000 C 
BRANCH   7  10
ATOM      8  C   UNL     1      49.110   7.353  15.178  0.00  0.00    +0.000 C 
ATOM      9  O   UNL     1      48.456   8.358  15.463  0.00  0.00    +0.000 OA
ATOM     10  N   UNL     1      49.332   6.949  13.888  0.00  0.00    +0.000 N 
ATOM     11  H   UNL     1      49.838   6.095  13.702  0.00  0.00    +0.000 HD
BRANCH   8  15
ATOM     12  C   UNL     1      52.205   5.498  18.651  0.00  0.00    +0.000 C 
ATOM     13  N   UNL     1      51.066   5.674  17.777  0.00  0.00    +0.000 N 
ATOM     14  C   UNL     1      50.917   6.686  16.860  0.00  0.00    +0.000 A 
ATOM     15  C   UNL     1      49.694   6.516  16.217  0.00  0.00    +0.000 A 
ATOM     16  C   UNL     1      49.095   5.343  16.787  0.00  0.00    +0.000 A 
ATOM     17  C   UNL     1      47.911   4.615  16.625  0.00  0.00    +0.000 A 
ATOM     18  N   UNL     1      47.676   3.521  17.370  0.00  0.00    +0.000 NA
ATOM     19  C   UNL     1      48.616   3.164  18.262  0.00  0.00    +0.000 A 
ATOM     20  N   UNL     1      49.790   3.767  18.520  0.00  0.00    +0.000 NA
ATOM     21  C   UNL     1      49.971   4.853  17.747  0.00  0.00    +0.000 A 
BRANCH  17  22
ATOM     22  O   UNL     1      46.922   4.935  15.727  0.00  0.00    +0.000 OA
ATOM     23  H   UNL     1      47.330   4.990  14.839  0.00  0.00    +0.000 HD
ENDBRANCH  17  22
ENDBRANCH   8  15
ENDBRANCH   7  10
ENDBRANCH   1   7
BRANCH   4  24
ATOM     24  C   UNL     1      43.360   5.960  11.515  0.00  0.00    +0.000 C 
BRANCH  24  25
ATOM     25  N   UNL     1      43.302   5.230  10.254  0.00  0.00    +0.000 NA
ATOM     26  H   UNL     1      43.957   5.651   9.598  0.00  0.00    +0.000 HD
BRANCH  25  27
ATOM     27  C   UNL     1      43.646   3.821  10.432  0.00  0.00    +0.000 C 
BRANCH  27  28
ATOM     28  C   UNL     1      44.676   3.403   9.407  0.00  0.00    +0.000 A 
ATOM     29  C   UNL     1      45.045   2.060   9.241  0.00  0.00    +0.000 A 
ATOM     30  C   UNL     1      45.996   1.692   8.278  0.00  0.00    +0.000 A 
ATOM     31  C   UNL     1      46.598   2.672   7.479  0.00  0.00    +0.000 A 
ATOM     32  C   UNL     1      46.230   4.013   7.640  0.00  0.00    +0.000 A 
ATOM     33  C   UNL     1      45.278   4.373   8.595  0.00  0.00    +0.000 A 
BRANCH  31  34
ATOM     34  C   UNL     1      47.585   2.363   6.409  0.00  0.00    +0.000 C 
ATOM     35  O   UNL     1      48.319   1.390   6.461  0.00  0.00    +0.000 OA
BRANCH  34  36
ATOM     36  O   UNL     1      47.581   3.215   5.362  0.00  0.00    +0.000 OA
ATOM     37  H   UNL     1      47.567   4.162   5.582  0.00  0.00    +0.000 HD
ENDBRANCH  34  36
ENDBRANCH  31  34
ENDBRANCH  27  28
ENDBRANCH  25  27
ENDBRANCH  24  25
ENDBRANCH   4  24
TORSDOF 10
ENDMDL
MODEL 2
REMARK VINA RESULT:    -8.593      2.145      2.305
REMARK INTER + INTRA:         -14.343
REMARK INTER:                 -12.937
REMARK INTRA:                  -1.407
REMARK UNBOUND:                -1.230
REMARK  Name = 
REMARK  11 active torsions:
REMARK  status: ('A' for Active; 'I' for Inactive)
REMARK    1  A    between atoms: C_1  and  N_2
REMARK    2  A    between atoms: C_4  and  C_5
REMARK    3  A    between atoms: N_7  and  C_8
REMARK    4  A    between atoms: C_8  and  C_9
REMARK    5  A    between atoms: C_12  and  C_13
REMARK    6  A    between atoms: C_13  and  N_14
REMARK    7  A    between atoms: N_14  and  C_15
REMARK    8  A    between atoms: C_15  and  C_16
REMARK    9  A    between atoms: C_19  and  C_20
REMARK   10  A    between atoms: C_20  and  O_22
REMARK   11  A    between atoms: C_28  and  O_29
REMARK                            x       y       z     vdW  Elec       q    Type
REMARK                         _______ _______ _______ _____ _____    ______ ____
ROOT
ATOM      1  C   UNL     1      47.287   6.379  13.018  0.00  0.00    +0.000 A 
ATOM      2  C   UNL     1      46.471   5.391  13.586  0.00  0.00    +0.000 A 
ATOM      3  C   UNL     1      45.167   5.187  13.119  0.00  0.00    +0.000 A 
ATOM      4  C   UNL     1      44.656   5.969  12.074  0.00  0.00    +0.000 A 
ATOM      5  C   UNL     1      45.481   6.940  11.496  0.00  0.00    +0.000 A 
ATOM      6  C   UNL     1      46.784   7.141  11.957  0.00  0.00    +0.000 A 
ENDROOT
BRANCH   1   7
ATOM      7  C   UNL     1      48.682   6.593  13.537  0.00  0.00    +0.000 C 
BRANCH   7  10
ATOM      8  C   UNL     1      48.881   6.593  15.977  0.00  0.00    +0.000 C 
ATOM      9  O   UNL     1      49.072   5.376  16.021  0.00  0.00    +0.000 OA
ATOM     10  N   UNL     1      48.676   7.273  14.806  0.00  0.00    +0.000 N 
ATOM     11  H   UNL     1      48.566   8.277  14.813  0.00  0.00    +0.000 HD
BRANCH   8  15
ATOM     12  C   UNL     1      49.545  10.319  19.257  0.00  0.00    +0.000 C 
ATOM     13  N   UNL     1      49.152   9.055  18.671  0.00  0.00    +0.000 N 
ATOM     14  C   UNL     1      49.399   8.670  17.377  0.00  0.00    +0.000 A 
ATOM     15  C   UNL     1      48.866   7.396  17.192  0.00  0.00    +0.000 A 
ATOM     16  C   UNL     1      48.277   7.017  18.444  0.00  0.00    +0.000 A 
ATOM     17  C   UNL     1      47.590   5.913  18.960  0.00  0.00    +0.000 A 
ATOM     18  N   UNL     1      47.163   5.911  20.235  0.00  0.00    +0.000 NA
ATOM     19  C   UNL     1      47.424   6.999  20.979  0.00  0.00    +0.000 A 
ATOM     20  N   UNL     1      48.069   8.121  20.614  0.00  0.00    +0.000 NA
ATOM     21  C   UNL     1      48.472   8.068  19.332  0.00  0.00    +0.000 A 
BRANCH  17  22
ATOM     22  O   UNL     1      47.301   4.777  18.245  0.00  0.00    +0.000 OA
ATOM     23  H   UNL     1      47.260   5.022  17.297  0.00  0.00    +0.000 HD
ENDBRANCH  17  22
ENDBRANCH   8  15
ENDBRANCH   7  10
ENDBRANCH   1   7
BRANCH   4  24
ATOM     24  C   UNL     1      43.249   5.781  11.552  0.00  0.00    +0.000 C 
BRANCH  24  25
ATOM     25  N   UNL     1      43.250   5.065  10.282  0.00  0.00    +0.000 NA
ATOM     26  H   UNL     1      43.891   5.529   9.640  0.00  0.00    +0.000 HD
BRANCH  25  27
ATOM     27  C   UNL     1      43.669   3.675  10.448  0.00  0.00    +0.000 C 
BRANCH  27  28
ATOM     28  C   UNL     1      44.696   3.311   9.398  0.00  0.00    +0.000 A 
ATOM     29  C   UNL     1      45.069   1.979   9.166  0.00  0.00    +0.000 A 
ATOM     30  C   UNL     1      46.016   1.662   8.182  0.00  0.00    +0.000 A 
ATOM     31  C   UNL     1      46.611   2.682   7.428  0.00  0.00    +0.000 A 
ATOM     32  C   UNL     1      46.238   4.011   7.655  0.00  0.00    +0.000 A 
ATOM     33  C   UNL     1      45.290   4.322   8.631  0.00  0.00    +0.000 A 
BRANCH  31  34
ATOM     34  C   UNL     1      47.593   2.429   6.339  0.00  0.00    +0.000 C 
ATOM     35  O   UNL     1      48.493   1.614   6.450  0.00  0.00    +0.000 OA
BRANCH  34  36
ATOM     36  O   UNL     1      47.391   3.138   5.209  0.00  0.00    +0.000 OA
ATOM     37  H   UNL     1      47.507   4.101   5.281  0.00  0.00    +0.000 HD
ENDBRANCH  34  36
ENDBRANCH  31  34
ENDBRANCH  27  28
ENDBRANCH  25  27
ENDBRANCH  24  25
ENDBRANCH   4  24
TORSDOF 10
ENDMDL
MODEL 3
REMARK VINA RESULT:    -8.399      2.012      2.469
REMARK INTER + INTRA:         -14.047
REMARK INTER:                 -12.896
REMARK INTRA:                  -1.151
REMARK UNBOUND:                -1.230
REMARK  Name = 
REMARK  11 active torsions:
REMARK  status: ('A' for Active; 'I' for Inactive)
REMARK    1  A    between atoms: C_1  and  N_2
REMARK    2  A    between atoms: C_4  and  C_5
REMARK    3  A    between atoms: N_7  and  C_8
REMARK    4  A    between atoms: C_8  and  C_9
REMARK    5  A    between atoms: C_12  and  C_13
REMARK    6  A    between atoms: C_13  and  N_14
REMARK    7  A    between atoms: N_14  and  C_15
REMARK    8  A    between atoms: C_15  and  C_16
REMARK    9  A    between atoms: C_19  and  C_20
REMARK   10  A    between atoms: C_20  and  O_22
REMARK   11  A    between atoms: C_28  and  O_29
REMARK                            x       y       z     vdW  Elec       q    Type
REMARK                         _______ _______ _______ _____ _____    ______ ____
ROOT
ATOM      1  C   UNL     1      47.066   6.623  13.104  0.00  0.00    +0.000 A 
ATOM      2  C   UNL     1      46.556   7.500  12.138  0.00  0.00    +0.000 A 
ATOM      3  C   UNL     1      45.290   7.291  11.580  0.00  0.00    +0.000 A 
ATOM      4  C   UNL     1      44.510   6.196  11.979  0.00  0.00    +0.000 A 
ATOM      5  C   UNL     1      45.014   5.334  12.958  0.00  0.00    +0.000 A 
ATOM      6  C   UNL     1      46.275   5.545  13.521  0.00  0.00    +0.000 A 
ENDROOT
BRANCH   1   7
ATOM      7  C   UNL     1      48.432   6.856  13.686  0.00  0.00    +0.000 C 
BRANCH   7  10
ATOM      8  C   UNL     1      49.581   6.840  15.848  0.00  0.00    +0.000 C 
ATOM      9  O   UNL     1      50.677   7.075  15.335  0.00  0.00    +0.000 OA
ATOM     10  N   UNL     1      48.429   6.711  15.119  0.00  0.00    +0.000 N 
ATOM     11  H   UNL     1      47.546   6.561  15.585  0.00  0.00    +0.000 HD
BRANCH   8  15
ATOM     12  C   UNL     1      50.021   5.152  20.543  0.00  0.00    +0.000 C 
ATOM     13  N   UNL     1      49.633   5.945  19.397  0.00  0.00    +0.000 N 
ATOM     14  C   UNL     1      50.017   5.709  18.100  0.00  0.00    +0.000 A 
ATOM     15  C   UNL     1      49.444   6.686  17.290  0.00  0.00    +0.000 A 
ATOM     16  C   UNL     1      48.684   7.538  18.158  0.00  0.00    +0.000 A 
ATOM     17  C   UNL     1      47.882   8.678  18.030  0.00  0.00    +0.000 A 
ATOM     18  N   UNL     1      47.308   9.232  19.112  0.00  0.00    +0.000 NA
ATOM     19  C   UNL     1      47.534   8.651  20.302  0.00  0.00    +0.000 A 
ATOM     20  N   UNL     1      48.277   7.561  20.567  0.00  0.00    +0.000 NA
ATOM     21  C   UNL     1      48.826   7.050  19.451  0.00  0.00    +0.000 A 
BRANCH  17  22
ATOM     22  O   UNL     1      47.616   9.309  16.839  0.00  0.00    +0.000 OA
ATOM     23  H   UNL     1      48.472   9.569  16.441  0.00  0.00    +0.000 HD
ENDBRANCH  17  22
ENDBRANCH   8  15
ENDBRANCH   7  10
ENDBRANCH   1   7
BRANCH   4  24
ATOM     24  C   UNL     1      43.142   5.936  11.390  0.00  0.00    +0.000 C 
BRANCH  24  25
ATOM     25  N   UNL     1      43.237   5.149  10.166  0.00  0.00    +0.000 NA
ATOM     26  H   UNL     1      43.885   5.607   9.527  0.00  0.00    +0.000 HD
BRANCH  25  27
ATOM     27  C   UNL     1      43.713   3.793  10.434  0.00  0.00    +0.000 C 
BRANCH  27  28
ATOM     28  C   UNL     1      44.722   3.379   9.386  0.00  0.00    +0.000 A 
ATOM     29  C   UNL     1      45.023   2.029   9.150  0.00  0.00    +0.000 A 
ATOM     30  C   UNL     1      45.955   1.666   8.167  0.00  0.00    +0.000 A 
ATOM     31  C   UNL     1      46.606   2.655   7.418  0.00  0.00    +0.000 A 
ATOM     32  C   UNL     1      46.304   4.002   7.650  0.00  0.00    +0.000 A 
ATOM     33  C   UNL     1      45.371   4.359   8.624  0.00  0.00    +0.000 A 
BRANCH  31  34
ATOM     34  C   UNL     1      47.576   2.354   6.331  0.00  0.00    +0.000 C 
ATOM     35  O   UNL     1      48.429   1.489   6.441  0.00  0.00    +0.000 OA
BRANCH  34  36
ATOM     36  O   UNL     1      47.419   3.079   5.204  0.00  0.00    +0.000 OA
ATOM     37  H   UNL     1      46.856   2.685   4.517  0.00  0.00    +0.000 HD
ENDBRANCH  34  36
ENDBRANCH  31  34
ENDBRANCH  27  28
ENDBRANCH  25  27
ENDBRANCH  24  25
ENDBRANCH   4  24
TORSDOF 10
ENDMDL
MODEL 4
REMARK VINA RESULT:    -7.765      1.784      2.869
REMARK INTER + INTRA:         -13.080
REMARK INTER:                 -12.013
REMARK INTRA:                  -1.067
REMARK UNBOUND:                -1.230
REMARK  Name = 
REMARK  11 active torsions:
REMARK  status: ('A' for Active; 'I' for Inactive)
REMARK    1  A    between atoms: C_1  and  N_2
REMARK    2  A    between atoms: C_4  and  C_5
REMARK    3  A    between atoms: N_7  and  C_8
REMARK    4  A    between atoms: C_8  and  C_9
REMARK    5  A    between atoms: C_12  and  C_13
REMARK    6  A    between atoms: C_13  and  N_14
REMARK    7  A    between atoms: N_14  and  C_15
REMARK    8  A    between atoms: C_15  and  C_16
REMARK    9  A    between atoms: C_19  and  C_20
REMARK   10  A    between atoms: C_20  and  O_22
REMARK   11  A    between atoms: C_28  and  O_29
REMARK                            x       y       z     vdW  Elec       q    Type
REMARK                         _______ _______ _______ _____ _____    ______ ____
ROOT
ATOM      1  C   UNL     1      46.925   6.532  13.233  0.00  0.00    +0.000 A 
ATOM      2  C   UNL     1      45.794   7.240  12.806  0.00  0.00    +0.000 A 
ATOM      3  C   UNL     1      44.581   6.580  12.580  0.00  0.00    +0.000 A 
ATOM      4  C   UNL     1      44.479   5.195  12.777  0.00  0.00    +0.000 A 
ATOM      5  C   UNL     1      45.605   4.495  13.221  0.00  0.00    +0.000 A 
ATOM      6  C   UNL     1      46.814   5.154  13.453  0.00  0.00    +0.000 A 
ENDROOT
BRANCH   1   7
ATOM      7  C   UNL     1      48.223   7.255  13.462  0.00  0.00    +0.000 C 
BRANCH   7  10
ATOM      8  C   UNL     1      50.139   7.222  14.987  0.00  0.00    +0.000 C 
ATOM      9  O   UNL     1      50.796   7.982  14.273  0.00  0.00    +0.000 OA
ATOM     10  N   UNL     1      48.873   6.809  14.667  0.00  0.00    +0.000 N 
ATOM     11  H   UNL     1      48.354   6.220  15.303  0.00  0.00    +0.000 HD
BRANCH   8  15
ATOM     12  C   UNL     1      50.539   5.421  19.643  0.00  0.00    +0.000 C 
ATOM     13  N   UNL     1      50.875   5.902  18.320  0.00  0.00    +0.000 N 
ATOM     14  C   UNL     1      49.973   6.332  17.378  0.00  0.00    +0.000 A 
ATOM     15  C   UNL     1      50.678   6.712  16.240  0.00  0.00    +0.000 A 
ATOM     16  C   UNL     1      52.066   6.493  16.530  0.00  0.00    +0.000 A 
ATOM     17  C   UNL     1      53.289   6.650  15.867  0.00  0.00    +0.000 A 
ATOM     18  N   UNL     1      54.441   6.323  16.477  0.00  0.00    +0.000 NA
ATOM     19  C   UNL     1      54.367   5.849  17.732  0.00  0.00    +0.000 A 
ATOM     20  N   UNL     1      53.268   5.649  18.482  0.00  0.00    +0.000 NA
ATOM     21  C   UNL     1      52.147   5.992  17.823  0.00  0.00    +0.000 A 
BRANCH  17  22
ATOM     22  O   UNL     1      53.421   7.132  14.588  0.00  0.00    +0.000 OA
ATOM     23  H   UNL     1      53.230   6.397  13.970  0.00  0.00    +0.000 HD
ENDBRANCH  17  22
ENDBRANCH   8  15
ENDBRANCH   7  10
ENDBRANCH   1   7
BRANCH   4  24
ATOM     24  C   UNL     1      43.186   4.450  12.532  0.00  0.00    +0.000 C 
BRANCH  24  25
ATOM     25  N   UNL     1      43.271   3.630  11.329  0.00  0.00    +0.000 NA
ATOM     26  H   UNL     1      42.378   3.162  11.184  0.00  0.00    +0.000 HD
BRANCH  25  27
ATOM     27  C   UNL     1      43.582   4.435  10.151  0.00  0.00    +0.000 C 
BRANCH  27  28
ATOM     28  C   UNL     1      44.626   3.739   9.305  0.00  0.00    +0.000 A 
ATOM     29  C   UNL     1      44.822   2.352   9.375  0.00  0.00    +0.000 A 
ATOM     30  C   UNL     1      45.789   1.725   8.575  0.00  0.00    +0.000 A 
ATOM     31  C   UNL     1      46.580   2.487   7.706  0.00  0.00    +0.000 A 
ATOM     32  C   UNL     1      46.384   3.871   7.632  0.00  0.00    +0.000 A 
ATOM     33  C   UNL     1      45.416   4.490   8.424  0.00  0.00    +0.000 A 
BRANCH  31  34
ATOM     34  C   UNL     1      47.599   1.897   6.797  0.00  0.00    +0.000 C 
ATOM     35  O   UNL     1      47.488   0.773   6.335  0.00  0.00    +0.000 OA
BRANCH  34  36
ATOM     36  O   UNL     1      48.633   2.708   6.490  0.00  0.00    +0.000 OA
ATOM     37  H   UNL     1      48.528   3.644   6.731  0.00  0.00    +0.000 HD
ENDBRANCH  34  36
ENDBRANCH  31  34
ENDBRANCH  27  28
ENDBRANCH  25  27
ENDBRANCH  24  25
ENDBRANCH   4  24
TORSDOF 10
ENDMDL
MODEL 5
REMARK VINA RESULT:    -7.360      1.785      2.528
REMARK INTER + INTRA:         -12.462
REMARK INTER:                 -11.004
REMARK INTRA:                  -1.458
REMARK UNBOUND:                -1.230
REMARK  Name = 
REMARK  11 active torsions:
REMARK  status: ('A' for Active; 'I' for Inactive)
REMARK    1  A    between atoms: C_1  and  N_2
REMARK    2  A    between atoms: C_4  and  C_5
REMARK    3  A    between atoms: N_7  and  C_8
REMARK    4  A    between atoms: C_8  and  C_9
REMARK    5  A    between atoms: C_12  and  C_13
REMARK    6  A    between atoms: C_13  and  N_14
REMARK    7  A    between atoms: N_14  and  C_15
REMARK    8  A    between atoms: C_15  and  C_16
REMARK    9  A    between atoms: C_19  and  C_20
REMARK   10  A    between atoms: C_20  and  O_22
REMARK   11  A    between atoms: C_28  and  O_29
REMARK                            x       y       z     vdW  Elec       q    Type
REMARK                         _______ _______ _______ _____ _____    ______ ____
ROOT
ATOM      1  C   UNL     1      46.916   7.854  12.195  0.00  0.00    +0.000 A 
ATOM      2  C   UNL     1      47.353   6.534  12.017  0.00  0.00    +0.000 A 
ATOM      3  C   UNL     1      46.466   5.463  12.166  0.00  0.00    +0.000 A 
ATOM      4  C   UNL     1      45.123   5.693  12.496  0.00  0.00    +0.000 A 
ATOM      5  C   UNL     1      44.687   7.012  12.654  0.00  0.00    +0.000 A 
ATOM      6  C   UNL     1      45.569   8.083  12.500  0.00  0.00    +0.000 A 
ENDROOT
BRANCH   1   7
ATOM      7  C   UNL     1      47.885   8.994  12.042  0.00  0.00    +0.000 C 
BRANCH   7  10
ATOM      8  C   UNL     1      49.331   8.990  14.017  0.00  0.00    +0.000 C 
ATOM      9  O   UNL     1      48.462   9.496  14.729  0.00  0.00    +0.000 OA
ATOM     10  N   UNL     1      49.140   8.714  12.690  0.00  0.00    +0.000 N 
ATOM     11  H   UNL     1      49.866   8.259  12.154  0.00  0.00    +0.000 HD
BRANCH   8  15
ATOM     12  C   UNL     1      54.212   9.055  15.138  0.00  0.00    +0.000 C 
ATOM     13  N   UNL     1      52.821   8.662  15.071  0.00  0.00    +0.000 N 
ATOM     14  C   UNL     1      51.841   9.327  14.377  0.00  0.00    +0.000 A 
ATOM     15  C   UNL     1      50.640   8.647  14.557  0.00  0.00    +0.000 A 
ATOM     16  C   UNL     1      50.932   7.525  15.403  0.00  0.00    +0.000 A 
ATOM     17  C   UNL     1      50.226   6.458  15.971  0.00  0.00    +0.000 A 
ATOM     18  N   UNL     1      50.857   5.561  16.748  0.00  0.00    +0.000 NA
ATOM     19  C   UNL     1      52.174   5.730  16.949  0.00  0.00    +0.000 A 
ATOM     20  N   UNL     1      52.971   6.702  16.468  0.00  0.00    +0.000 NA
ATOM     21  C   UNL     1      52.288   7.569  15.700  0.00  0.00    +0.000 A 
BRANCH  17  22
ATOM     22  O   UNL     1      48.882   6.238  15.795  0.00  0.00    +0.000 OA
ATOM     23  H   UNL     1      48.599   6.733  14.999  0.00  0.00    +0.000 HD
ENDBRANCH  17  22
ENDBRANCH   8  15
ENDBRANCH   7  10
ENDBRANCH   1   7
BRANCH   4  24
ATOM     24  C   UNL     1      44.140   4.557  12.673  0.00  0.00    +0.000 C 
BRANCH  24  25
ATOM     25  N   UNL     1      44.530   3.395  11.883  0.00  0.00    +0.000 NA
ATOM     26  H   UNL     1      44.329   2.550  12.415  0.00  0.00    +0.000 HD
BRANCH  25  27
ATOM     27  C   UNL     1      43.808   3.341  10.614  0.00  0.00    +0.000 C 
BRANCH  27  28
ATOM     28  C   UNL     1      44.778   3.136   9.472  0.00  0.00    +0.000 A 
ATOM     29  C   UNL     1      45.208   1.856   9.093  0.00  0.00    +0.000 A 
ATOM     30  C   UNL     1      46.101   1.688   8.025  0.00  0.00    +0.000 A 
ATOM     31  C   UNL     1      46.585   2.805   7.333  0.00  0.00    +0.000 A 
ATOM     32  C   UNL     1      46.155   4.084   7.707  0.00  0.00    +0.000 A 
ATOM     33  C   UNL     1      45.260   4.246   8.765  0.00  0.00    +0.000 A 
BRANCH  31  34
ATOM     34  C   UNL     1      47.502   2.712   6.165  0.00  0.00    +0.000 C 
ATOM     35  O   UNL     1      47.109   2.834   5.017  0.00  0.00    +0.000 OA
BRANCH  34  36
ATOM     36  O   UNL     1      48.803   2.521   6.471  0.00  0.00    +0.000 OA
ATOM     37  H   UNL     1      49.009   1.718   6.980  0.00  0.00    +0.000 HD
ENDBRANCH  34  36
ENDBRANCH  31  34
ENDBRANCH  27  28
ENDBRANCH  25  27
ENDBRANCH  24  25
ENDBRANCH   4  24
TORSDOF 10
ENDMDL
MODEL 6
REMARK VINA RESULT:    -7.167      2.304      2.769
REMARK INTER + INTRA:         -12.167
REMARK INTER:                 -10.937
REMARK INTRA:                  -1.231
REMARK UNBOUND:                -1.230
REMARK  Name = 
REMARK  11 active torsions:
REMARK  status: ('A' for Active; 'I' for Inactive)
REMARK    1  A    between atoms: C_1  and  N_2
REMARK    2  A    between atoms: C_4  and  C_5
REMARK    3  A    between atoms: N_7  and  C_8
REMARK    4  A    between atoms: C_8  and  C_9
REMARK    5  A    between atoms: C_12  and  C_13
REMARK    6  A    between atoms: C_13  and  N_14
REMARK    7  A    between atoms: N_14  and  C_15
REMARK    8  A    between atoms: C_15  and  C_16
REMARK    9  A    between atoms: C_19  and  C_20
REMARK   10  A    between atoms: C_20  and  O_22
REMARK   11  A    between atoms: C_28  and  O_29
REMARK                            x       y       z     vdW  Elec       q    Type
REMARK                         _______ _______ _______ _____ _____    ______ ____
ROOT
ATOM      1  C   UNL     1      46.046   6.593  12.904  0.00  0.00    +0.000 A 
ATOM      2  C   UNL     1      44.690   6.800  12.617  0.00  0.00    +0.000 A 
ATOM      3  C   UNL     1      43.831   5.716  12.403  0.00  0.00    +0.000 A 
ATOM      4  C   UNL     1      44.316   4.402  12.472  0.00  0.00    +0.000 A 
ATOM      5  C   UNL     1      45.665   4.199  12.779  0.00  0.00    +0.000 A 
ATOM      6  C   UNL     1      46.522   5.280  12.999  0.00  0.00    +0.000 A 
ENDROOT
BRANCH   1   7
ATOM      7  C   UNL     1      46.957   7.769  13.121  0.00  0.00    +0.000 C 
BRANCH   7  10
ATOM      8  C   UNL     1      48.654   8.463  14.743  0.00  0.00    +0.000 C 
ATOM      9  O   UNL     1      48.419   9.660  14.567  0.00  0.00    +0.000 OA
ATOM     10  N   UNL     1      47.992   7.468  14.076  0.00  0.00    +0.000 N 
ATOM     11  H   UNL     1      48.187   6.499  14.283  0.00  0.00    +0.000 HD
BRANCH   8  15
ATOM     12  C   UNL     1      52.678   6.291  16.786  0.00  0.00    +0.000 C 
ATOM     13  N   UNL     1      51.467   7.066  16.622  0.00  0.00    +0.000 N 
ATOM     14  C   UNL     1      50.770   7.211  15.449  0.00  0.00    +0.000 A 
ATOM     15  C   UNL     1      49.669   8.028  15.693  0.00  0.00    +0.000 A 
ATOM     16  C   UNL     1      49.726   8.381  17.083  0.00  0.00    +0.000 A 
ATOM     17  C   UNL     1      48.971   9.149  17.977  0.00  0.00    +0.000 A 
ATOM     18  N   UNL     1      49.346   9.261  19.263  0.00  0.00    +0.000 NA
ATOM     19  C   UNL     1      50.459   8.612  19.645  0.00  0.00    +0.000 A 
ATOM     20  N   UNL     1      51.273   7.846  18.897  0.00  0.00    +0.000 NA
ATOM     21  C   UNL     1      50.851   7.769  17.622  0.00  0.00    +0.000 A 
BRANCH  17  22
ATOM     22  O   UNL     1      47.826   9.828  17.639  0.00  0.00    +0.000 OA
ATOM     23  H   UNL     1      47.725  10.575  18.265  0.00  0.00    +0.000 HD
ENDBRANCH  17  22
ENDBRANCH   8  15
ENDBRANCH   7  10
ENDBRANCH   1   7
BRANCH   4  24
ATOM     24  C   UNL     1      43.417   3.208  12.238  0.00  0.00    +0.000 C 
BRANCH  24  25
ATOM     25  N   UNL     1      43.838   2.456  11.061  0.00  0.00    +0.000 NA
ATOM     26  H   UNL     1      43.243   1.636  10.962  0.00  0.00    +0.000 HD
BRANCH  25  27
ATOM     27  C   UNL     1      43.744   3.262   9.846  0.00  0.00    +0.000 C 
BRANCH  27  28
ATOM     28  C   UNL     1      44.914   2.968   8.934  0.00  0.00    +0.000 A 
ATOM     29  C   UNL     1      45.410   1.666   8.771  0.00  0.00    +0.000 A 
ATOM     30  C   UNL     1      46.491   1.414   7.913  0.00  0.00    +0.000 A 
ATOM     31  C   UNL     1      47.096   2.470   7.219  0.00  0.00    +0.000 A 
ATOM     32  C   UNL     1      46.601   3.769   7.378  0.00  0.00    +0.000 A 
ATOM     33  C   UNL     1      45.521   4.015   8.227  0.00  0.00    +0.000 A 
BRANCH  31  34
ATOM     34  C   UNL     1      48.219   2.283   6.262  0.00  0.00    +0.000 C 
ATOM     35  O   UNL     1      48.138   1.537   5.301  0.00  0.00    +0.000 OA
BRANCH  34  36
ATOM     36  O   UNL     1      49.316   3.028   6.513  0.00  0.00    +0.000 OA
ATOM     37  H   UNL     1      49.203   3.991   6.447  0.00  0.00    +0.000 HD
ENDBRANCH  34  36
ENDBRANCH  31  34
ENDBRANCH  27  28
ENDBRANCH  25  27
ENDBRANCH  24  25
ENDBRANCH   4  24
TORSDOF 10
ENDMDL
MODEL 7
REMARK VINA RESULT:    -6.952      3.079      4.090
REMARK INTER + INTRA:         -11.839
REMARK INTER:                 -10.879
REMARK INTRA:                  -0.960
REMARK UNBOUND:                -1.230
REMARK  Name = 
REMARK  11 active torsions:
REMARK  status: ('A' for Active; 'I' for Inactive)
REMARK    1  A    between atoms: C_1  and  N_2
REMARK    2  A    between atoms: C_4  and  C_5
REMARK    3  A    between atoms: N_7  and  C_8
REMARK    4  A    between atoms: C_8  and  C_9
REMARK    5  A    between atoms: C_12  and  C_13
REMARK    6  A    between atoms: C_13  and  N_14
REMARK    7  A    between atoms: N_14  and  C_15
REMARK    8  A    between atoms: C_15  and  C_16
REMARK    9  A    between atoms: C_19  and  C_20
REMARK   10  A    between atoms: C_20  and  O_22
REMARK   11  A    between atoms: C_28  and  O_29
REMARK                            x       y       z     vdW  Elec       q    Type
REMARK                         _______ _______ _______ _____ _____    ______ ____
ROOT
ATOM      1  C   UNL     1      46.678   7.699  13.008  0.00  0.00    +0.000 A 
ATOM      2  C   UNL     1      45.517   8.446  12.765  0.00  0.00    +0.000 A 
ATOM      3  C   UNL     1      44.370   7.834  12.248  0.00  0.00    +0.000 A 
ATOM      4  C   UNL     1      44.363   6.461  11.964  0.00  0.00    +0.000 A 
ATOM      5  C   UNL     1      45.517   5.716  12.226  0.00  0.00    +0.000 A 
ATOM      6  C   UNL     1      46.661   6.323  12.748  0.00  0.00    +0.000 A 
ENDROOT
BRANCH   1   7
ATOM      7  C   UNL     1      47.906   8.373  13.554  0.00  0.00    +0.000 C 
BRANCH   7  10
ATOM      8  C   UNL     1      48.789   9.234  15.668  0.00  0.00    +0.000 C 
ATOM      9  O   UNL     1      49.778   9.728  15.123  0.00  0.00    +0.000 OA
ATOM     10  N   UNL     1      47.823   8.549  14.980  0.00  0.00    +0.000 N 
ATOM     11  H   UNL     1      47.008   8.198  15.462  0.00  0.00    +0.000 HD
BRANCH   8  15
ATOM     12  C   UNL     1      47.884   8.174  20.478  0.00  0.00    +0.000 C 
ATOM     13  N   UNL     1      48.183   8.898  19.262  0.00  0.00    +0.000 N 
ATOM     14  C   UNL     1      48.280   8.342  18.011  0.00  0.00    +0.000 A 
ATOM     15  C   UNL     1      48.583   9.356  17.105  0.00  0.00    +0.000 A 
ATOM     16  C   UNL     1      48.669  10.568  17.867  0.00  0.00    +0.000 A 
ATOM     17  C   UNL     1      48.931  11.920  17.616  0.00  0.00    +0.000 A 
ATOM     18  N   UNL     1      48.931  12.812  18.622  0.00  0.00    +0.000 NA
ATOM     19  C   UNL     1      48.670  12.355  19.858  0.00  0.00    +0.000 A 
ATOM     20  N   UNL     1      48.404  11.092  20.239  0.00  0.00    +0.000 NA
ATOM     21  C   UNL     1      48.417  10.245  19.195  0.00  0.00    +0.000 A 
BRANCH  17  22
ATOM     22  O   UNL     1      49.199  12.439  16.373  0.00  0.00    +0.000 OA
ATOM     23  H   UNL     1      49.057  11.728  15.715  0.00  0.00    +0.000 HD
ENDBRANCH  17  22
ENDBRANCH   8  15
ENDBRANCH   7  10
ENDBRANCH   1   7
BRANCH   4  24
ATOM     24  C   UNL     1      43.143   5.771  11.396  0.00  0.00    +0.000 C 
BRANCH  24  25
ATOM     25  N   UNL     1      43.431   5.181  10.094  0.00  0.00    +0.000 NA
ATOM     26  H   UNL     1      44.202   5.687   9.664  0.00  0.00    +0.000 HD
BRANCH  25  27
ATOM     27  C   UNL     1      43.794   3.771  10.211  0.00  0.00    +0.000 C 
BRANCH  27  28
ATOM     28  C   UNL     1      44.839   3.414   9.177  0.00  0.00    +0.000 A 
ATOM     29  C   UNL     1      45.480   4.399   8.410  0.00  0.00    +0.000 A 
ATOM     30  C   UNL     1      46.452   4.048   7.463  0.00  0.00    +0.000 A 
ATOM     31  C   UNL     1      46.783   2.701   7.264  0.00  0.00    +0.000 A 
ATOM     32  C   UNL     1      46.147   1.717   8.030  0.00  0.00    +0.000 A 
ATOM     33  C   UNL     1      45.185   2.072   8.977  0.00  0.00    +0.000 A 
BRANCH  31  34
ATOM     34  C   UNL     1      47.829   2.247   6.309  0.00  0.00    +0.000 C 
ATOM     35  O   UNL     1      48.547   1.288   6.537  0.00  0.00    +0.000 OA
BRANCH  34  36
ATOM     36  O   UNL     1      47.899   2.948   5.158  0.00  0.00    +0.000 OA
ATOM     37  H   UNL     1      47.072   3.022   4.651  0.00  0.00    +0.000 HD
ENDBRANCH  34  36
ENDBRANCH  31  34
ENDBRANCH  27  28
ENDBRANCH  25  27
ENDBRANCH  24  25
ENDBRANCH   4  24
TORSDOF 10
ENDMDL
MODEL 8
REMARK VINA RESULT:    -6.323      3.762      5.223
REMARK INTER + INTRA:         -10.879
REMARK INTER:                  -8.359
REMARK INTRA:                  -2.519
REMARK UNBOUND:                -1.230
REMARK  Name = 
REMARK  11 active torsions:
REMARK  status: ('A' for Active; 'I' for Inactive)
REMARK    1  A    between atoms: C_1  and  N_2
REMARK    2  A    between atoms: C_4  and  C_5
REMARK    3  A    between atoms: N_7  and  C_8
REMARK    4  A    between atoms: C_8  and  C_9
REMARK    5  A    between atoms: C_12  and  C_13
REMARK    6  A    between atoms: C_13  and  N_14
REMARK    7  A    between atoms: N_14  and  C_15
REMARK    8  A    between atoms: C_15  and  C_16
REMARK    9  A    between atoms: C_19  and  C_20
REMARK   10  A    between atoms: C_20  and  O_22
REMARK   11  A    between atoms: C_28  and  O_29
REMARK                            x       y       z     vdW  Elec       q    Type
REMARK                         _______ _______ _______ _____ _____    ______ ____
ROOT
ATOM      1  C   UNL     1      50.507   9.956  16.044  0.00  0.00    +0.000 A 
ATOM      2  C   UNL     1      49.486  10.916  16.009  0.00  0.00    +0.000 A 
ATOM      3  C   UNL     1      48.931  11.322  14.790  0.00  0.00    +0.000 A 
ATOM      4  C   UNL     1      49.389  10.776  13.583  0.00  0.00    +0.000 A 
ATOM      5  C   UNL     1      50.394   9.804  13.625  0.00  0.00    +0.000 A 
ATOM      6  C   UNL     1      50.945   9.392  14.840  0.00  0.00    +0.000 A 
ENDROOT
BRANCH   1   7
ATOM      7  C   UNL     1      51.101   9.537  17.361  0.00  0.00    +0.000 C 
BRANCH   7  10
ATOM      8  C   UNL     1      50.377   7.253  17.865  0.00  0.00    +0.000 C 
ATOM      9  O   UNL     1      49.274   7.628  18.268  0.00  0.00    +0.000 OA
ATOM     10  N   UNL     1      51.336   8.117  17.408  0.00  0.00    +0.000 N 
ATOM     11  H   UNL     1      52.210   7.763  17.047  0.00  0.00    +0.000 HD
BRANCH   8  15
ATOM     12  C   UNL     1      52.840   2.932  18.447  0.00  0.00    +0.000 C 
ATOM     13  N   UNL     1      51.819   3.898  18.105  0.00  0.00    +0.000 N 
ATOM     14  C   UNL     1      51.910   5.253  18.302  0.00  0.00    +0.000 A 
ATOM     15  C   UNL     1      50.732   5.841  17.849  0.00  0.00    +0.000 A 
ATOM     16  C   UNL     1      49.907   4.772  17.362  0.00  0.00    +0.000 A 
ATOM     17  C   UNL     1      48.638   4.637  16.788  0.00  0.00    +0.000 A 
ATOM     18  N   UNL     1      48.170   3.424  16.446  0.00  0.00    +0.000 NA
ATOM     19  C   UNL     1      48.964   2.365  16.676  0.00  0.00    +0.000 A 
ATOM     20  N   UNL     1      50.196   2.350  17.217  0.00  0.00    +0.000 NA
ATOM     21  C   UNL     1      50.612   3.588  17.538  0.00  0.00    +0.000 A 
BRANCH  17  22
ATOM     22  O   UNL     1      47.789   5.686  16.529  0.00  0.00    +0.000 OA
ATOM     23  H   UNL     1      47.087   5.362  15.929  0.00  0.00    +0.000 HD
ENDBRANCH  17  22
ENDBRANCH   8  15
ENDBRANCH   7  10
ENDBRANCH   1   7
BRANCH   4  24
ATOM     24  C   UNL     1      48.817  11.200  12.249  0.00  0.00    +0.000 C 
BRANCH  24  25
ATOM     25  N   UNL     1      48.155  10.085  11.581  0.00  0.00    +0.000 NA
ATOM     26  H   UNL     1      48.754   9.263  11.637  0.00  0.00    +0.000 HD
BRANCH  25  27
ATOM     27  C   UNL     1      46.867   9.778  12.198  0.00  0.00    +0.000 C 
BRANCH  27  28
ATOM     28  C   UNL     1      46.762   8.294  12.474  0.00  0.00    +0.000 A 
ATOM     29  C   UNL     1      47.904   7.492  12.623  0.00  0.00    +0.000 A 
ATOM     30  C   UNL     1      47.785   6.120  12.887  0.00  0.00    +0.000 A 
ATOM     31  C   UNL     1      46.517   5.534  12.991  0.00  0.00    +0.000 A 
ATOM     32  C   UNL     1      45.376   6.332  12.846  0.00  0.00    +0.000 A 
ATOM     33  C   UNL     1      45.499   7.699  12.590  0.00  0.00    +0.000 A 
BRANCH  31  34
ATOM     34  C   UNL     1      46.303   4.096  13.308  0.00  0.00    +0.000 C 
ATOM     35  O   UNL     1      45.216   3.556  13.184  0.00  0.00    +0.000 OA
BRANCH  34  36
ATOM     36  O   UNL     1      47.405   3.426  13.705  0.00  0.00    +0.000 OA
ATOM     37  H   UNL     1      48.256   3.866  13.541  0.00  0.00    +0.000 HD
ENDBRANCH  34  36
ENDBRANCH  31  34
ENDBRANCH  27  28
ENDBRANCH  25  27
ENDBRANCH  24  25
ENDBRANCH   4  24
TORSDOF 10
ENDMDL
MODEL 9
REMARK VINA RESULT:    -6.136      3.947      5.496
REMARK INTER + INTRA:         -10.594
REMARK INTER:                  -9.093
REMARK INTRA:                  -1.501
REMARK UNBOUND:                -1.230
REMARK  Name = 
REMARK  11 active torsions:
REMARK  status: ('A' for Active; 'I' for Inactive)
REMARK    1  A    between atoms: C_1  and  N_2
REMARK    2  A    between atoms: C_4  and  C_5
REMARK    3  A    between atoms: N_7  and  C_8
REMARK    4  A    between atoms: C_8  and  C_9
REMARK    5  A    between atoms: C_12  and  C_13
REMARK    6  A    between atoms: C_13  and  N_14
REMARK    7  A    between atoms: N_14  and  C_15
REMARK    8  A    between atoms: C_15  and  C_16
REMARK    9  A    between atoms: C_19  and  C_20
REMARK   10  A    between atoms: C_20  and  O_22
REMARK   11  A    between atoms: C_28  and  O_29
REMARK                            x       y       z     vdW  Elec       q    Type
REMARK                         _______ _______ _______ _____ _____    ______ ____
ROOT
ATOM      1  C   UNL     1      49.945   8.700  17.109  0.00  0.00    +0.000 A 
ATOM      2  C   UNL     1      51.039   8.979  16.279  0.00  0.00    +0.000 A 
ATOM      3  C   UNL     1      50.847   9.333  14.939  0.00  0.00    +0.000 A 
ATOM      4  C   UNL     1      49.553   9.413  14.404  0.00  0.00    +0.000 A 
ATOM      5  C   UNL     1      48.463   9.152  15.241  0.00  0.00    +0.000 A 
ATOM      6  C   UNL     1      48.653   8.805  16.580  0.00  0.00    +0.000 A 
ENDROOT
BRANCH   1   7
ATOM      7  C   UNL     1      50.169   8.311  18.544  0.00  0.00    +0.000 C 
BRANCH   7  10
ATOM      8  C   UNL     1      50.515   5.895  18.737  0.00  0.00    +0.000 C 
ATOM      9  O   UNL     1      49.305   5.661  18.732  0.00  0.00    +0.000 OA
ATOM     10  N   UNL     1      51.029   7.161  18.654  0.00  0.00    +0.000 N 
ATOM     11  H   UNL     1      52.028   7.304  18.617  0.00  0.00    +0.000 HD
BRANCH   8  15
ATOM     12  C   UNL     1      54.536   3.171  19.957  0.00  0.00    +0.000 C 
ATOM     13  N   UNL     1      53.281   3.582  19.367  0.00  0.00    +0.000 N 
ATOM     14  C   UNL     1      52.676   4.800  19.556  0.00  0.00    +0.000 A 
ATOM     15  C   UNL     1      51.489   4.816  18.829  0.00  0.00    +0.000 A 
ATOM     16  C   UNL     1      51.394   3.540  18.180  0.00  0.00    +0.000 A 
ATOM     17  C   UNL     1      50.497   2.889  17.325  0.00  0.00    +0.000 A 
ATOM     18  N   UNL     1      50.744   1.636  16.904  0.00  0.00    +0.000 NA
ATOM     19  C   UNL     1      51.873   1.048  17.333  0.00  0.00    +0.000 A 
ATOM     20  N   UNL     1      52.816   1.553  18.148  0.00  0.00    +0.000 NA
ATOM     21  C   UNL     1      52.518   2.806  18.538  0.00  0.00    +0.000 A 
BRANCH  17  22
ATOM     22  O   UNL     1      49.332   3.445  16.856  0.00  0.00    +0.000 OA
ATOM     23  H   UNL     1      49.358   4.404  17.052  0.00  0.00    +0.000 HD
ENDBRANCH  17  22
ENDBRANCH   8  15
ENDBRANCH   7  10
ENDBRANCH   1   7
BRANCH   4  24
ATOM     24  C   UNL     1      49.311   9.783  12.958  0.00  0.00    +0.000 C 
BRANCH  24  25
ATOM     25  N   UNL     1      48.089   9.167  12.455  0.00  0.00    +0.000 NA
ATOM     26  H   UNL     1      47.743   9.712  11.668  0.00  0.00    +0.000 HD
BRANCH  25  27
ATOM     27  C   UNL     1      48.322   7.793  12.015  0.00  0.00    +0.000 C 
BRANCH  27  28
ATOM     28  C   UNL     1      47.119   6.933  12.335  0.00  0.00    +0.000 A 
ATOM     29  C   UNL     1      47.180   5.914  13.298  0.00  0.00    +0.000 A 
ATOM     30  C   UNL     1      46.051   5.134  13.586  0.00  0.00    +0.000 A 
ATOM     31  C   UNL     1      44.850   5.359  12.901  0.00  0.00    +0.000 A 
ATOM     32  C   UNL     1      44.786   6.377  11.942  0.00  0.00    +0.000 A 
ATOM     33  C   UNL     1      45.910   7.156  11.663  0.00  0.00    +0.000 A 
BRANCH  31  34
ATOM     34  C   UNL     1      43.597   4.604  13.174  0.00  0.00    +0.000 C 
ATOM     35  O   UNL     1      43.559   3.385  13.177  0.00  0.00    +0.000 OA
BRANCH  34  36
ATOM     36  O   UNL     1      42.518   5.365  13.454  0.00  0.00    +0.000 OA
ATOM     37  H   UNL     1      41.653   4.972  13.248  0.00  0.00    +0.000 HD
ENDBRANCH  34  36
ENDBRANCH  31  34
ENDBRANCH  27  28
ENDBRANCH  25  27
ENDBRANCH  24  25
ENDBRANCH   4  24
TORSDOF 10
ENDMDL
