MODEL 1
REMARK VINA RESULT:    -8.448      0.000      0.000
REMARK INTER + INTRA:         -12.477
REMARK INTER:                 -11.411
REMARK INTRA:                  -1.066
REMARK UNBOUND:                -1.066
REMARK  Name = 
REMARK  7 active torsions:
REMARK  status: ('A' for Active; 'I' for Inactive)
REMARK    1  A    between atoms: C_1  and  C_2
REMARK    2  A    between atoms: C_2  and  C_3
REMARK    3  A    between atoms: C_2  and  C_14
REMARK    4  A    between atoms: C_3  and  O_4
REMARK    5  A    between atoms: O_4  and  C_5
REMARK    6  A    between atoms: C_8  and  C_9
REMARK    7  A    between atoms: C_18  and  N_19
REMARK                            x       y       z     vdW  Elec       q    Type
REMARK                         _______ _______ _______ _____ _____    ______ ____
ROOT
ATOM      1  C   UNL     1      42.673   5.374  12.123  0.00  0.00    +0.000 C 
ATOM      2  C   UNL     1      43.704   4.357  12.617  0.00  0.00    +0.000 C 
ENDROOT
BRANCH   2   3
ATOM      3  C   UNL     1      45.075   4.992  12.818  0.00  0.00    +0.000 A 
ATOM      4  C   UNL     1      45.560   5.887  11.857  0.00  0.00    +0.000 A 
ATOM      5  C   UNL     1      46.802   6.491  12.017  0.00  0.00    +0.000 A 
ATOM      6  C   UNL     1      47.558   6.233  13.159  0.00  0.00    +0.000 A 
ATOM      7  C   UNL     1      47.103   5.377  14.171  0.00  0.00    +0.000 A 
ATOM      8  C   UNL     1      45.869   4.735  13.956  0.00  0.00    +0.000 A 
BRANCH   7   9
ATOM      9  N   UNL     1      47.835   5.198  15.323  0.00  0.00    +0.000 N 
ATOM     10  C   UNL     1      47.654   4.020  16.185  0.00  0.00    +0.000 C 
ATOM     11  C   UNL     1      47.393   4.480  17.624  0.00  0.00    +0.000 C 
ATOM     12  O   UNL     1      48.449   5.336  18.097  0.00  0.00    +0.000 OA
ATOM     13  C   UNL     1      48.564   6.501  17.259  0.00  0.00    +0.000 C 
ATOM     14  C   UNL     1      48.865   6.131  15.791  0.00  0.00    +0.000 C 
ENDBRANCH   7   9
ENDBRANCH   2   3
BRANCH   2  15
ATOM     15  C   UNL     1      43.769   3.132  11.689  0.00  0.00    +0.000 C 
BRANCH  15  16
ATOM     16  O   UNL     1      43.412   3.510  10.346  0.00  0.00    +0.000 OA
BRANCH  16  17
ATOM     17  C   UNL     1      44.406   3.199   9.440  0.00  0.00    +0.000 A 
ATOM     18  C   UNL     1      44.963   4.232   8.702  0.00  0.00    +0.000 A 
ATOM     19  C   UNL     1      45.990   3.924   7.804  0.00  0.00    +0.000 A 
ATOM     20  C   UNL     1      46.426   2.600   7.673  0.00  0.00    +0.000 A 
ATOM     21  C   UNL     1      45.795   1.646   8.451  0.00  0.00    +0.000 A 
ATOM     22  N   UNL     1      44.800   1.914   9.324  0.00  0.00    +0.000 NA
BRANCH  20  23
ATOM     23  C   UNL     1      47.534   2.275   6.743  0.00  0.00    +0.000 C 
ATOM     24  N   UNL     1      47.732   3.072   5.645  0.00  0.00    +0.000 N 
ATOM     25  O   UNL     1      48.262   1.313   6.940  0.00  0.00    +0.000 OA
ATOM     26  H   UNL     1      47.200   3.887   5.391  0.00  0.00    +0.000 HD
ATOM     27  H   UNL     1      48.494   2.809   5.030  0.00  0.00    +0.000 HD
ENDBRANCH  20  23
ENDBRANCH  16  17
ENDBRANCH  15  16
ENDBRANCH   2  15
TORSDOF 6
ENDMDL
MODEL 2
REMARK VINA RESULT:    -7.785      2.961      4.290
REMARK INTER + INTRA:         -11.581
REMARK INTER:                 -10.367
REMARK INTRA:                  -1.214
REMARK UNBOUND:                -1.066
REMARK  Name = 
REMARK  7 active torsions:
REMARK  status: ('A' for Active; 'I' for Inactive)
REMARK    1  A    between atoms: C_1  and  C_2
REMARK    2  A    between atoms: C_2  and  C_3
REMARK    3  A    between atoms: C_2  and  C_14
REMARK    4  A    between atoms: C_3  and  O_4
REMARK    5  A    between atoms: O_4  and  C_5
REMARK    6  A    between atoms: C_8  and  C_9
REMARK    7  A    between atoms: C_18  and  N_19
REMARK                            x       y       z     vdW  Elec       q    Type
REMARK                         _______ _______ _______ _____ _____    ______ ____
ROOT
ATOM      1  C   UNL     1      42.470   5.430  11.991  0.00  0.00    +0.000 C 
ATOM      2  C   UNL     1      43.771   4.873  12.577  0.00  0.00    +0.000 C 
ENDROOT
BRANCH   2   3
ATOM      3  C   UNL     1      44.922   5.863  12.440  0.00  0.00    +0.000 A 
ATOM      4  C   UNL     1      46.236   5.382  12.410  0.00  0.00    +0.000 A 
ATOM      5  C   UNL     1      47.306   6.260  12.277  0.00  0.00    +0.000 A 
ATOM      6  C   UNL     1      47.071   7.626  12.135  0.00  0.00    +0.000 A 
ATOM      7  C   UNL     1      45.774   8.156  12.118  0.00  0.00    +0.000 A 
ATOM      8  C   UNL     1      44.713   7.253  12.313  0.00  0.00    +0.000 A 
BRANCH   7   9
ATOM      9  N   UNL     1      45.567   9.501  11.902  0.00  0.00    +0.000 N 
ATOM     10  C   UNL     1      44.258  10.029  11.490  0.00  0.00    +0.000 C 
ATOM     11  C   UNL     1      44.430  10.883  10.229  0.00  0.00    +0.000 C 
ATOM     12  O   UNL     1      45.393  11.932  10.435  0.00  0.00    +0.000 OA
ATOM     13  C   UNL     1      46.673  11.374  10.788  0.00  0.00    +0.000 C 
ATOM     14  C   UNL     1      46.601  10.526  12.074  0.00  0.00    +0.000 C 
ENDBRANCH   7   9
ENDBRANCH   2   3
BRANCH   2  15
ATOM     15  C   UNL     1      44.115   3.503  11.968  0.00  0.00    +0.000 C 
BRANCH  15  16
ATOM     16  O   UNL     1      43.495   3.366  10.676  0.00  0.00    +0.000 OA
BRANCH  16  17
ATOM     17  C   UNL     1      44.424   3.161   9.676  0.00  0.00    +0.000 A 
ATOM     18  C   UNL     1      44.973   4.274   9.057  0.00  0.00    +0.000 A 
ATOM     19  C   UNL     1      45.935   4.070   8.062  0.00  0.00    +0.000 A 
ATOM     20  C   UNL     1      46.317   2.768   7.720  0.00  0.00    +0.000 A 
ATOM     21  C   UNL     1      45.700   1.729   8.395  0.00  0.00    +0.000 A 
ATOM     22  N   UNL     1      44.766   1.896   9.357  0.00  0.00    +0.000 NA
BRANCH  20  23
ATOM     23  C   UNL     1      47.359   2.550   6.688  0.00  0.00    +0.000 C 
ATOM     24  N   UNL     1      47.204   3.137   5.459  0.00  0.00    +0.000 N 
ATOM     25  O   UNL     1      48.338   1.856   6.916  0.00  0.00    +0.000 OA
ATOM     26  H   UNL     1      46.445   3.728   5.166  0.00  0.00    +0.000 HD
ATOM     27  H   UNL     1      47.934   2.954   4.779  0.00  0.00    +0.000 HD
ENDBRANCH  20  23
ENDBRANCH  16  17
ENDBRANCH  15  16
ENDBRANCH   2  15
TORSDOF 6
ENDMDL
MODEL 3
REMARK VINA RESULT:    -7.686      1.607      2.055
REMARK INTER + INTRA:         -11.448
REMARK INTER:                 -10.390
REMARK INTRA:                  -1.058
REMARK UNBOUND:                -1.066
REMARK  Name = 
REMARK  7 active torsions:
REMARK  status: ('A' for Active; 'I' for Inactive)
REMARK    1  A    between atoms: C_1  and  C_2
REMARK    2  A    between atoms: C_2  and  C_3
REMARK    3  A    between atoms: C_2  and  C_14
REMARK    4  A    between atoms: C_3  and  O_4
REMARK    5  A    between atoms: O_4  and  C_5
REMARK    6  A    between atoms: C_8  and  C_9
REMARK    7  A    between atoms: C_18  and  N_19
REMARK                            x       y       z     vdW  Elec       q    Type
REMARK                         _______ _______ _______ _____ _____    ______ ____
ROOT
ATOM      1  C   UNL     1      42.471   5.088  12.094  0.00  0.00    +0.000 C 
ATOM      2  C   UNL     1      43.872   4.678  12.556  0.00  0.00    +0.000 C 
ENDROOT
BRANCH   2   3
ATOM      3  C   UNL     1      44.876   5.814  12.398  0.00  0.00    +0.000 A 
ATOM      4  C   UNL     1      44.487   6.980  11.729  0.00  0.00    +0.000 A 
ATOM      5  C   UNL     1      45.377   8.038  11.577  0.00  0.00    +0.000 A 
ATOM      6  C   UNL     1      46.656   7.954  12.126  0.00  0.00    +0.000 A 
ATOM      7  C   UNL     1      47.083   6.826  12.840  0.00  0.00    +0.000 A 
ATOM      8  C   UNL     1      46.183   5.748  12.928  0.00  0.00    +0.000 A 
BRANCH   7   9
ATOM      9  N   UNL     1      48.324   6.800  13.435  0.00  0.00    +0.000 N 
ATOM     10  C   UNL     1      48.493   6.508  14.866  0.00  0.00    +0.000 C 
ATOM     11  C   UNL     1      49.321   7.624  15.516  0.00  0.00    +0.000 C 
ATOM     12  O   UNL     1      50.585   7.793  14.848  0.00  0.00    +0.000 OA
ATOM     13  C   UNL     1      50.378   8.125  13.462  0.00  0.00    +0.000 C 
ATOM     14  C   UNL     1      49.581   7.034  12.718  0.00  0.00    +0.000 C 
ENDBRANCH   7   9
ENDBRANCH   2   3
BRANCH   2  15
ATOM     15  C   UNL     1      44.339   3.395  11.848  0.00  0.00    +0.000 C 
BRANCH  15  16
ATOM     16  O   UNL     1      43.682   3.267  10.573  0.00  0.00    +0.000 OA
BRANCH  16  17
ATOM     17  C   UNL     1      44.581   3.048   9.549  0.00  0.00    +0.000 A 
ATOM     18  C   UNL     1      45.013   4.143   8.814  0.00  0.00    +0.000 A 
ATOM     19  C   UNL     1      45.945   3.929   7.793  0.00  0.00    +0.000 A 
ATOM     20  C   UNL     1      46.415   2.635   7.541  0.00  0.00    +0.000 A 
ATOM     21  C   UNL     1      45.912   1.613   8.328  0.00  0.00    +0.000 A 
ATOM     22  N   UNL     1      45.009   1.790   9.318  0.00  0.00    +0.000 NA
BRANCH  20  23
ATOM     23  C   UNL     1      47.425   2.409   6.480  0.00  0.00    +0.000 C 
ATOM     24  N   UNL     1      47.439   3.243   5.391  0.00  0.00    +0.000 N 
ATOM     25  O   UNL     1      48.232   1.496   6.560  0.00  0.00    +0.000 OA
ATOM     26  H   UNL     1      46.828   4.025   5.226  0.00  0.00    +0.000 HD
ATOM     27  H   UNL     1      48.139   3.048   4.685  0.00  0.00    +0.000 HD
ENDBRANCH  20  23
ENDBRANCH  16  17
ENDBRANCH  15  16
ENDBRANCH   2  15
TORSDOF 6
ENDMDL
MODEL 4
REMARK VINA RESULT:    -7.387      3.643      5.376
REMARK INTER + INTRA:         -11.044
REMARK INTER:                 -10.317
REMARK INTRA:                  -0.727
REMARK UNBOUND:                -1.066
REMARK  Name = 
REMARK  7 active torsions:
REMARK  status: ('A' for Active; 'I' for Inactive)
REMARK    1  A    between atoms: C_1  and  C_2
REMARK    2  A    between atoms: C_2  and  C_3
REMARK    3  A    between atoms: C_2  and  C_14
REMARK    4  A    between atoms: C_3  and  O_4
REMARK    5  A    between atoms: O_4  and  C_5
REMARK    6  A    between atoms: C_8  and  C_9
REMARK    7  A    between atoms: C_18  and  N_19
REMARK                            x       y       z     vdW  Elec       q    Type
REMARK                         _______ _______ _______ _____ _____    ______ ____
ROOT
ATOM      1  C   UNL     1      45.887   4.309  12.726  0.00  0.00    +0.000 C 
ATOM      2  C   UNL     1      45.296   5.167  11.604  0.00  0.00    +0.000 C 
ENDROOT
BRANCH   2   3
ATOM      3  C   UNL     1      45.383   6.656  11.923  0.00  0.00    +0.000 A 
ATOM      4  C   UNL     1      46.363   7.106  12.814  0.00  0.00    +0.000 A 
ATOM      5  C   UNL     1      46.474   8.458  13.119  0.00  0.00    +0.000 A 
ATOM      6  C   UNL     1      45.627   9.379  12.505  0.00  0.00    +0.000 A 
ATOM      7  C   UNL     1      44.655   8.987  11.575  0.00  0.00    +0.000 A 
ATOM      8  C   UNL     1      44.526   7.607  11.330  0.00  0.00    +0.000 A 
BRANCH   7   9
ATOM      9  N   UNL     1      43.882   9.925  10.928  0.00  0.00    +0.000 N 
ATOM     10  C   UNL     1      43.966  10.133   9.475  0.00  0.00    +0.000 C 
ATOM     11  C   UNL     1      44.217  11.618   9.189  0.00  0.00    +0.000 C 
ATOM     12  O   UNL     1      43.205  12.444   9.792  0.00  0.00    +0.000 OA
ATOM     13  C   UNL     1      43.186  12.250  11.219  0.00  0.00    +0.000 C 
ATOM     14  C   UNL     1      42.901  10.783  11.600  0.00  0.00    +0.000 C 
ENDBRANCH   7   9
ENDBRANCH   2   3
BRANCH   2  15
ATOM     15  C   UNL     1      43.859   4.734  11.268  0.00  0.00    +0.000 C 
BRANCH  15  16
ATOM     16  O   UNL     1      43.649   4.781   9.844  0.00  0.00    +0.000 OA
BRANCH  16  17
ATOM     17  C   UNL     1      44.588   4.037   9.158  0.00  0.00    +0.000 A 
ATOM     18  C   UNL     1      44.602   2.664   9.353  0.00  0.00    +0.000 A 
ATOM     19  C   UNL     1      45.534   1.904   8.638  0.00  0.00    +0.000 A 
ATOM     20  C   UNL     1      46.417   2.537   7.755  0.00  0.00    +0.000 A 
ATOM     21  C   UNL     1      46.323   3.913   7.643  0.00  0.00    +0.000 A 
ATOM     22  N   UNL     1      45.435   4.673   8.322  0.00  0.00    +0.000 NA
BRANCH  20  23
ATOM     23  C   UNL     1      47.386   1.731   6.974  0.00  0.00    +0.000 C 
ATOM     24  N   UNL     1      48.424   2.371   6.348  0.00  0.00    +0.000 N 
ATOM     25  O   UNL     1      47.267   0.519   6.878  0.00  0.00    +0.000 OA
ATOM     26  H   UNL     1      48.620   3.357   6.364  0.00  0.00    +0.000 HD
ATOM     27  H   UNL     1      49.058   1.784   5.817  0.00  0.00    +0.000 HD
ENDBRANCH  20  23
ENDBRANCH  16  17
ENDBRANCH  15  16
ENDBRANCH   2  15
TORSDOF 6
ENDMDL
MODEL 5
REMARK VINA RESULT:    -7.002      2.754      3.481
REMARK INTER + INTRA:         -10.524
REMARK INTER:                  -9.768
REMARK INTRA:                  -0.756
REMARK UNBOUND:                -1.066
REMARK  Name = 
REMARK  7 active torsions:
REMARK  status: ('A' for Active; 'I' for Inactive)
REMARK    1  A    between atoms: C_1  and  C_2
REMARK    2  A    between atoms: C_2  and  C_3
REMARK    3  A    between atoms: C_2  and  C_14
REMARK    4  A    between atoms: C_3  and  O_4
REMARK    5  A    between atoms: O_4  and  C_5
REMARK    6  A    between atoms: C_8  and  C_9
REMARK    7  A    between atoms: C_18  and  N_19
REMARK                            x       y       z     vdW  Elec       q    Type
REMARK                         _______ _______ _______ _____ _____    ______ ____
ROOT
ATOM      1  C   UNL     1      43.185   6.790  11.236  0.00  0.00    +0.000 C 
ATOM      2  C   UNL     1      44.431   6.334  12.001  0.00  0.00    +0.000 C 
ENDROOT
BRANCH   2   3
ATOM      3  C   UNL     1      45.496   7.425  12.049  0.00  0.00    +0.000 A 
ATOM      4  C   UNL     1      45.100   8.766  12.023  0.00  0.00    +0.000 A 
ATOM      5  C   UNL     1      46.047   9.783  12.076  0.00  0.00    +0.000 A 
ATOM      6  C   UNL     1      47.400   9.467  12.193  0.00  0.00    +0.000 A 
ATOM      7  C   UNL     1      47.847   8.141  12.264  0.00  0.00    +0.000 A 
ATOM      8  C   UNL     1      46.873   7.132  12.150  0.00  0.00    +0.000 A 
BRANCH   7   9
ATOM      9  N   UNL     1      49.182   7.859  12.455  0.00  0.00    +0.000 N 
ATOM     10  C   UNL     1      49.754   7.685  13.799  0.00  0.00    +0.000 C 
ATOM     11  C   UNL     1      50.965   8.611  13.957  0.00  0.00    +0.000 C 
ATOM     12  O   UNL     1      51.939   8.380  12.923  0.00  0.00    +0.000 OA
ATOM     13  C   UNL     1      51.356   8.609  11.626  0.00  0.00    +0.000 C 
ATOM     14  C   UNL     1      50.146   7.687  11.365  0.00  0.00    +0.000 C 
ENDBRANCH   7   9
ENDBRANCH   2   3
BRANCH   2  15
ATOM     15  C   UNL     1      44.984   5.016  11.431  0.00  0.00    +0.000 C 
BRANCH  15  16
ATOM     16  O   UNL     1      44.267   4.656  10.235  0.00  0.00    +0.000 OA
BRANCH  16  17
ATOM     17  C   UNL     1      45.057   3.943   9.356  0.00  0.00    +0.000 A 
ATOM     18  C   UNL     1      45.067   2.561   9.462  0.00  0.00    +0.000 A 
ATOM     19  C   UNL     1      45.845   1.833   8.554  0.00  0.00    +0.000 A 
ATOM     20  C   UNL     1      46.581   2.507   7.573  0.00  0.00    +0.000 A 
ATOM     21  C   UNL     1      46.505   3.889   7.562  0.00  0.00    +0.000 A 
ATOM     22  N   UNL     1      45.766   4.617   8.427  0.00  0.00    +0.000 NA
BRANCH  20  23
ATOM     23  C   UNL     1      47.382   1.737   6.591  0.00  0.00    +0.000 C 
ATOM     24  N   UNL     1      48.394   2.374   5.920  0.00  0.00    +0.000 N 
ATOM     25  O   UNL     1      47.149   0.558   6.372  0.00  0.00    +0.000 OA
ATOM     26  H   UNL     1      48.674   3.334   6.025  0.00  0.00    +0.000 HD
ATOM     27  H   UNL     1      48.910   1.814   5.250  0.00  0.00    +0.000 HD
ENDBRANCH  20  23
ENDBRANCH  16  17
ENDBRANCH  15  16
ENDBRANCH   2  15
TORSDOF 6
ENDMDL
MODEL 6
REMARK VINA RESULT:    -6.843      2.683      7.611
REMARK INTER + INTRA:         -10.309
REMARK INTER:                  -9.281
REMARK INTRA:                  -1.028
REMARK UNBOUND:                -1.066
REMARK  Name = 
REMARK  7 active torsions:
REMARK  status: ('A' for Active; 'I' for Inactive)
REMARK    1  A    between atoms: C_1  and  C_2
REMARK    2  A    between atoms: C_2  and  C_3
REMARK    3  A    between atoms: C_2  and  C_14
REMARK    4  A    between atoms: C_3  and  O_4
REMARK    5  A    between atoms: O_4  and  C_5
REMARK    6  A    between atoms: C_8  and  C_9
REMARK    7  A    between atoms: C_18  and  N_19
REMARK                            x       y       z     vdW  Elec       q    Type
REMARK                         _______ _______ _______ _____ _____    ______ ____
ROOT
ATOM      1  C   UNL     1      49.189   9.179  11.759  0.00  0.00    +0.000 C 
ATOM      2  C   UNL     1      48.656   7.743  11.733  0.00  0.00    +0.000 C 
ENDROOT
BRANCH   2   3
ATOM      3  C   UNL     1      47.132   7.706  11.719  0.00  0.00    +0.000 A 
ATOM      4  C   UNL     1      46.418   8.875  12.001  0.00  0.00    +0.000 A 
ATOM      5  C   UNL     1      45.028   8.875  11.987  0.00  0.00    +0.000 A 
ATOM      6  C   UNL     1      44.337   7.711  11.653  0.00  0.00    +0.000 A 
ATOM      7  C   UNL     1      45.003   6.523  11.323  0.00  0.00    +0.000 A 
ATOM      8  C   UNL     1      46.408   6.536  11.403  0.00  0.00    +0.000 A 
BRANCH   7   9
ATOM      9  N   UNL     1      44.298   5.410  10.925  0.00  0.00    +0.000 N 
ATOM     10  C   UNL     1      43.091   4.959  11.635  0.00  0.00    +0.000 C 
ATOM     11  C   UNL     1      43.248   3.481  12.013  0.00  0.00    +0.000 C 
ATOM     12  O   UNL     1      43.524   2.673  10.855  0.00  0.00    +0.000 OA
ATOM     13  C   UNL     1      44.737   3.112  10.215  0.00  0.00    +0.000 C 
ATOM     14  C   UNL     1      44.654   4.586   9.766  0.00  0.00    +0.000 C 
ENDBRANCH   7   9
ENDBRANCH   2   3
BRANCH   2  15
ATOM     15  C   UNL     1      49.242   6.910  12.886  0.00  0.00    +0.000 C 
BRANCH  15  16
ATOM     16  O   UNL     1      48.744   7.394  14.148  0.00  0.00    +0.000 OA
BRANCH  16  17
ATOM     17  C   UNL     1      48.448   6.364  15.016  0.00  0.00    +0.000 A 
ATOM     18  C   UNL     1      48.949   6.433  16.307  0.00  0.00    +0.000 A 
ATOM     19  C   UNL     1      48.628   5.404  17.199  0.00  0.00    +0.000 A 
ATOM     20  C   UNL     1      47.819   4.344  16.774  0.00  0.00    +0.000 A 
ATOM     21  C   UNL     1      47.380   4.368  15.462  0.00  0.00    +0.000 A 
ATOM     22  N   UNL     1      47.677   5.347  14.579  0.00  0.00    +0.000 NA
BRANCH  20  23
ATOM     23  C   UNL     1      47.453   3.267  17.724  0.00  0.00    +0.000 C 
ATOM     24  N   UNL     1      48.287   3.003  18.780  0.00  0.00    +0.000 N 
ATOM     25  O   UNL     1      46.430   2.615  17.576  0.00  0.00    +0.000 OA
ATOM     26  H   UNL     1      49.146   3.478  19.000  0.00  0.00    +0.000 HD
ATOM     27  H   UNL     1      48.004   2.253  19.400  0.00  0.00    +0.000 HD
ENDBRANCH  20  23
ENDBRANCH  16  17
ENDBRANCH  15  16
ENDBRANCH   2  15
TORSDOF 6
ENDMDL
MODEL 7
REMARK VINA RESULT:    -6.606      1.814      7.919
REMARK INTER + INTRA:          -9.989
REMARK INTER:                  -9.150
REMARK INTRA:                  -0.839
REMARK UNBOUND:                -1.066
REMARK  Name = 
REMARK  7 active torsions:
REMARK  status: ('A' for Active; 'I' for Inactive)
REMARK    1  A    between atoms: C_1  and  C_2
REMARK    2  A    between atoms: C_2  and  C_3
REMARK    3  A    between atoms: C_2  and  C_14
REMARK    4  A    between atoms: C_3  and  O_4
REMARK    5  A    between atoms: O_4  and  C_5
REMARK    6  A    between atoms: C_8  and  C_9
REMARK    7  A    between atoms: C_18  and  N_19
REMARK                            x       y       z     vdW  Elec       q    Type
REMARK                         _______ _______ _______ _____ _____    ______ ____
ROOT
ATOM      1  C   UNL     1      44.989   8.656  12.120  0.00  0.00    +0.000 C 
ATOM      2  C   UNL     1      45.950   7.515  11.776  0.00  0.00    +0.000 C 
ENDROOT
BRANCH   2   3
ATOM      3  C   UNL     1      45.205   6.222  11.465  0.00  0.00    +0.000 A 
ATOM      4  C   UNL     1      44.137   5.836  12.282  0.00  0.00    +0.000 A 
ATOM      5  C   UNL     1      43.432   4.667  12.019  0.00  0.00    +0.000 A 
ATOM      6  C   UNL     1      43.765   3.890  10.910  0.00  0.00    +0.000 A 
ATOM      7  C   UNL     1      44.799   4.251  10.036  0.00  0.00    +0.000 A 
ATOM      8  C   UNL     1      45.533   5.407  10.360  0.00  0.00    +0.000 A 
BRANCH   7   9
ATOM      9  N   UNL     1      45.058   3.506   8.908  0.00  0.00    +0.000 N 
ATOM     10  C   UNL     1      44.751   2.069   8.839  0.00  0.00    +0.000 C 
ATOM     11  C   UNL     1      46.006   1.303   8.406  0.00  0.00    +0.000 C 
ATOM     12  O   UNL     1      46.519   1.804   7.159  0.00  0.00    +0.000 OA
ATOM     13  C   UNL     1      46.854   3.199   7.279  0.00  0.00    +0.000 C 
ATOM     14  C   UNL     1      45.635   4.056   7.678  0.00  0.00    +0.000 C 
ENDBRANCH   7   9
ENDBRANCH   2   3
BRANCH   2  15
ATOM     15  C   UNL     1      47.003   7.320  12.881  0.00  0.00    +0.000 C 
BRANCH  15  16
ATOM     16  O   UNL     1      47.390   5.935  12.956  0.00  0.00    +0.000 OA
BRANCH  16  17
ATOM     17  C   UNL     1      47.606   5.530  14.258  0.00  0.00    +0.000 A 
ATOM     18  C   UNL     1      46.952   4.391  14.703  0.00  0.00    +0.000 A 
ATOM     19  C   UNL     1      47.190   3.961  16.013  0.00  0.00    +0.000 A 
ATOM     20  C   UNL     1      48.070   4.678  16.831  0.00  0.00    +0.000 A 
ATOM     21  C   UNL     1      48.663   5.805  16.289  0.00  0.00    +0.000 A 
ATOM     22  N   UNL     1      48.449   6.245  15.030  0.00  0.00    +0.000 NA
BRANCH  20  23
ATOM     23  C   UNL     1      48.348   4.208  18.210  0.00  0.00    +0.000 C 
ATOM     24  N   UNL     1      47.688   4.801  19.255  0.00  0.00    +0.000 N 
ATOM     25  O   UNL     1      49.152   3.313  18.422  0.00  0.00    +0.000 OA
ATOM     26  H   UNL     1      47.006   5.537  19.196  0.00  0.00    +0.000 HD
ATOM     27  H   UNL     1      47.914   4.457  20.182  0.00  0.00    +0.000 HD
ENDBRANCH  20  23
ENDBRANCH  16  17
ENDBRANCH  15  16
ENDBRANCH   2  15
TORSDOF 6
ENDMDL
MODEL 8
REMARK VINA RESULT:    -6.551      1.621      7.711
REMARK INTER + INTRA:          -9.915
REMARK INTER:                  -8.976
REMARK INTRA:                  -0.939
REMARK UNBOUND:                -1.066
REMARK  Name = 
REMARK  7 active torsions:
REMARK  status: ('A' for Active; 'I' for Inactive)
REMARK    1  A    between atoms: C_1  and  C_2
REMARK    2  A    between atoms: C_2  and  C_3
REMARK    3  A    between atoms: C_2  and  C_14
REMARK    4  A    between atoms: C_3  and  O_4
REMARK    5  A    between atoms: O_4  and  C_5
REMARK    6  A    between atoms: C_8  and  C_9
REMARK    7  A    between atoms: C_18  and  N_19
REMARK                            x       y       z     vdW  Elec       q    Type
REMARK                         _______ _______ _______ _____ _____    ______ ____
ROOT
ATOM      1  C   UNL     1      43.294   2.523  12.052  0.00  0.00    +0.000 C 
ATOM      2  C   UNL     1      43.707   3.998  12.070  0.00  0.00    +0.000 C 
ENDROOT
BRANCH   2   3
ATOM      3  C   UNL     1      44.550   4.364  10.854  0.00  0.00    +0.000 A 
ATOM      4  C   UNL     1      45.104   5.646  10.769  0.00  0.00    +0.000 A 
ATOM      5  C   UNL     1      45.886   6.007   9.677  0.00  0.00    +0.000 A 
ATOM      6  C   UNL     1      46.152   5.076   8.675  0.00  0.00    +0.000 A 
ATOM      7  C   UNL     1      45.655   3.766   8.730  0.00  0.00    +0.000 A 
ATOM      8  C   UNL     1      44.820   3.446   9.816  0.00  0.00    +0.000 A 
BRANCH   7   9
ATOM      9  N   UNL     1      45.995   2.845   7.765  0.00  0.00    +0.000 N 
ATOM     10  C   UNL     1      45.865   1.398   7.992  0.00  0.00    +0.000 C 
ATOM     11  C   UNL     1      47.202   0.714   7.680  0.00  0.00    +0.000 C 
ATOM     12  O   UNL     1      47.640   1.012   6.342  0.00  0.00    +0.000 OA
ATOM     13  C   UNL     1      47.803   2.432   6.173  0.00  0.00    +0.000 C 
ATOM     14  C   UNL     1      46.491   3.201   6.432  0.00  0.00    +0.000 C 
ENDBRANCH   7   9
ENDBRANCH   2   3
BRANCH   2  15
ATOM     15  C   UNL     1      44.409   4.365  13.388  0.00  0.00    +0.000 C 
BRANCH  15  16
ATOM     16  O   UNL     1      45.675   3.684  13.480  0.00  0.00    +0.000 OA
BRANCH  16  17
ATOM     17  C   UNL     1      46.590   4.394  14.230  0.00  0.00    +0.000 A 
ATOM     18  C   UNL     1      47.150   5.532  13.669  0.00  0.00    +0.000 A 
ATOM     19  C   UNL     1      48.057   6.270  14.437  0.00  0.00    +0.000 A 
ATOM     20  C   UNL     1      48.373   5.851  15.734  0.00  0.00    +0.000 A 
ATOM     21  C   UNL     1      47.763   4.697  16.193  0.00  0.00    +0.000 A 
ATOM     22  N   UNL     1      46.886   3.962  15.473  0.00  0.00    +0.000 NA
BRANCH  20  23
ATOM     23  C   UNL     1      49.311   6.647  16.561  0.00  0.00    +0.000 C 
ATOM     24  N   UNL     1      48.911   7.878  17.015  0.00  0.00    +0.000 N 
ATOM     25  O   UNL     1      50.425   6.227  16.836  0.00  0.00    +0.000 OA
ATOM     26  H   UNL     1      48.020   8.317  16.855  0.00  0.00    +0.000 HD
ATOM     27  H   UNL     1      49.586   8.394  17.569  0.00  0.00    +0.000 HD
ENDBRANCH  20  23
ENDBRANCH  16  17
ENDBRANCH  15  16
ENDBRANCH   2  15
TORSDOF 6
ENDMDL
MODEL 9
REMARK VINA RESULT:    -6.428      3.095      8.011
REMARK INTER + INTRA:          -9.748
REMARK INTER:                  -8.980
REMARK INTRA:                  -0.768
REMARK UNBOUND:                -1.066
REMARK  Name = 
REMARK  7 active torsions:
REMARK  status: ('A' for Active; 'I' for Inactive)
REMARK    1  A    between atoms: C_1  and  C_2
REMARK    2  A    between atoms: C_2  and  C_3
REMARK    3  A    between atoms: C_2  and  C_14
REMARK    4  A    between atoms: C_3  and  O_4
REMARK    5  A    between atoms: O_4  and  C_5
REMARK    6  A    between atoms: C_8  and  C_9
REMARK    7  A    between atoms: C_18  and  N_19
REMARK                            x       y       z     vdW  Elec       q    Type
REMARK                         _______ _______ _______ _____ _____    ______ ____
ROOT
ATOM      1  C   UNL     1      50.260   7.346  15.069  0.00  0.00    +0.000 C 
ATOM      2  C   UNL     1      49.093   6.369  15.233  0.00  0.00    +0.000 C 
ENDROOT
BRANCH   2   3
ATOM      3  C   UNL     1      48.050   6.543  14.135  0.00  0.00    +0.000 A 
ATOM      4  C   UNL     1      48.192   7.592  13.219  0.00  0.00    +0.000 A 
ATOM      5  C   UNL     1      47.262   7.771  12.201  0.00  0.00    +0.000 A 
ATOM      6  C   UNL     1      46.200   6.880  12.066  0.00  0.00    +0.000 A 
ATOM      7  C   UNL     1      46.033   5.790  12.930  0.00  0.00    +0.000 A 
ATOM      8  C   UNL     1      46.954   5.666  13.986  0.00  0.00    +0.000 A 
BRANCH   7   9
ATOM      9  N   UNL     1      45.017   4.882  12.729  0.00  0.00    +0.000 N 
ATOM     10  C   UNL     1      45.281   3.509  12.273  0.00  0.00    +0.000 C 
ATOM     11  C   UNL     1      44.428   3.213  11.034  0.00  0.00    +0.000 C 
ATOM     12  O   UNL     1      43.030   3.433  11.298  0.00  0.00    +0.000 OA
ATOM     13  C   UNL     1      42.804   4.799  11.693  0.00  0.00    +0.000 C 
ATOM     14  C   UNL     1      43.599   5.175  12.961  0.00  0.00    +0.000 C 
ENDBRANCH   7   9
ENDBRANCH   2   3
BRANCH   2  15
ATOM     15  C   UNL     1      48.473   6.471  16.637  0.00  0.00    +0.000 C 
BRANCH  15  16
ATOM     16  O   UNL     1      47.931   5.196  17.032  0.00  0.00    +0.000 OA
BRANCH  16  17
ATOM     17  C   UNL     1      48.919   4.249  17.213  0.00  0.00    +0.000 A 
ATOM     18  C   UNL     1      48.694   2.970  16.727  0.00  0.00    +0.000 A 
ATOM     19  C   UNL     1      49.704   2.015  16.885  0.00  0.00    +0.000 A 
ATOM     20  C   UNL     1      50.901   2.367  17.518  0.00  0.00    +0.000 A 
ATOM     21  C   UNL     1      51.018   3.669  17.973  0.00  0.00    +0.000 A 
ATOM     22  N   UNL     1      50.059   4.611  17.838  0.00  0.00    +0.000 NA
BRANCH  20  23
ATOM     23  C   UNL     1      51.985   1.366  17.660  0.00  0.00    +0.000 C 
ATOM     24  N   UNL     1      51.681   0.129  18.165  0.00  0.00    +0.000 N 
ATOM     25  O   UNL     1      53.135   1.630  17.340  0.00  0.00    +0.000 OA
ATOM     26  H   UNL     1      50.773  -0.196  18.453  0.00  0.00    +0.000 HD
ATOM     27  H   UNL     1      52.452  -0.523  18.255  0.00  0.00    +0.000 HD
ENDBRANCH  20  23
ENDBRANCH  16  17
ENDBRANCH  15  16
ENDBRANCH   2  15
TORSDOF 6
ENDMDL
