MODEL 1
REMARK VINA RESULT:    -6.727      0.000      0.000
REMARK INTER + INTRA:         -11.095
REMARK INTER:                  -9.480
REMARK INTRA:                  -1.615
REMARK UNBOUND:                -1.615
REMARK  Name = 
REMARK  9 active torsions:
REMARK  status: ('A' for Active; 'I' for Inactive)
REMARK    1  A    between atoms: C_1  and  C_2
REMARK    2  A    between atoms: C_2  and  C_3
REMARK    3  A    between atoms: C_2  and  C_4
REMARK    4  A    between atoms: C_4  and  C_5
REMARK    5  A    between atoms: C_5  and  N_6
REMARK    6  A    between atoms: C_5  and  C_19
REMARK    7  A    between atoms: C_7  and  C_9
REMARK    8  A    between atoms: C_22  and  C_23
REMARK    9  A    between atoms: C_23  and  N_24
REMARK                            x       y       z     vdW  Elec       q    Type
REMARK                         _______ _______ _______ _____ _____    ______ ____
ROOT
ATOM      1  C   UNL     1      49.295   6.492  17.525  0.00  0.00    +0.000 C 
ENDROOT
BRANCH   1   2
ATOM      2  C   UNL     1      48.492   5.876  16.379  0.00  0.00    +0.000 A 
ATOM      3  C   UNL     1      48.477   6.524  15.135  0.00  0.00    +0.000 A 
ATOM      4  C   UNL     1      47.762   6.002  14.053  0.00  0.00    +0.000 A 
ATOM      5  C   UNL     1      47.054   4.796  14.169  0.00  0.00    +0.000 A 
ATOM      6  C   UNL     1      47.063   4.140  15.410  0.00  0.00    +0.000 A 
ATOM      7  C   UNL     1      47.765   4.679  16.509  0.00  0.00    +0.000 A 
BRANCH   5   8
ATOM      8  C   UNL     1      46.213   4.297  13.008  0.00  0.00    +0.000 C 
BRANCH   8   9
ATOM      9  N   UNL     1      45.387   5.230  12.243  0.00  0.00    +0.000 NA
ATOM     10  C   UNL     1      44.275   5.867  12.952  0.00  0.00    +0.000 C 
ATOM     11  C   UNL     1      42.937   5.122  12.841  0.00  0.00    +0.000 C 
ATOM     12  O   UNL     1      42.593   4.843  11.478  0.00  0.00    +0.000 OA
ATOM     13  C   UNL     1      43.629   4.094  10.830  0.00  0.00    +0.000 C 
ATOM     14  C   UNL     1      44.980   4.822  10.895  0.00  0.00    +0.000 C 
ENDBRANCH   8   9
ENDBRANCH   5   8
ENDBRANCH   1   2
BRANCH   1  15
ATOM     15  N   UNL     1      50.303   5.549  17.982  0.00  0.00    +0.000 N 
ATOM     16  C   UNL     1      51.568   5.489  17.457  0.00  0.00    +0.000 C 
ATOM     17  O   UNL     1      51.967   6.277  16.604  0.00  0.00    +0.000 OA
ATOM     18  H   UNL     1      49.991   4.819  18.611  0.00  0.00    +0.000 HD
BRANCH  16  19
ATOM     19  C   UNL     1      52.442   4.442  18.002  0.00  0.00    +0.000 A 
ATOM     20  C   UNL     1      53.592   4.791  18.695  0.00  0.00    +0.000 A 
ATOM     21  S   UNL     1      54.483   3.451  19.263  0.00  0.00    +0.000 S 
ATOM     22  C   UNL     1      53.396   2.354  18.545  0.00  0.00    +0.000 A 
ATOM     23  N   UNL     1      53.607   1.012  18.613  0.00  0.00    +0.000 NA
ATOM     24  C   UNL     1      52.738   0.302  17.975  0.00  0.00    +0.000 A 
ATOM     25  N   UNL     1      51.666   0.810  17.291  0.00  0.00    +0.000 N 
ATOM     26  C   UNL     1      51.355   2.148  17.293  0.00  0.00    +0.000 A 
ATOM     27  O   UNL     1      50.290   2.545  16.835  0.00  0.00    +0.000 OA
ATOM     28  C   UNL     1      52.344   3.000  17.923  0.00  0.00    +0.000 A 
ATOM     29  H   UNL     1      50.996   0.201  16.847  0.00  0.00    +0.000 HD
ENDBRANCH  16  19
ENDBRANCH   1  15
BRANCH   1  30
ATOM     30  C   UNL     1      48.428   6.983  18.707  0.00  0.00    +0.000 C 
BRANCH  30  32
ATOM     31  C   UNL     1      47.432   9.001  19.847  0.00  0.00    +0.000 C 
ATOM     32  C   UNL     1      47.728   8.343  18.495  0.00  0.00    +0.000 C 
ATOM     33  C   UNL     1      48.529   9.315  17.622  0.00  0.00    +0.000 C 
ENDBRANCH  30  32
ENDBRANCH   1  30
TORSDOF 7
ENDMDL
MODEL 2
REMARK VINA RESULT:    -6.519      3.337      5.052
REMARK INTER + INTRA:         -10.801
REMARK INTER:                  -9.791
REMARK INTRA:                  -1.010
REMARK UNBOUND:                -1.615
REMARK  Name = 
REMARK  9 active torsions:
REMARK  status: ('A' for Active; 'I' for Inactive)
REMARK    1  A    between atoms: C_1  and  C_2
REMARK    2  A    between atoms: C_2  and  C_3
REMARK    3  A    between atoms: C_2  and  C_4
REMARK    4  A    between atoms: C_4  and  C_5
REMARK    5  A    between atoms: C_5  and  N_6
REMARK    6  A    between atoms: C_5  and  C_19
REMARK    7  A    between atoms: C_7  and  C_9
REMARK    8  A    between atoms: C_22  and  C_23
REMARK    9  A    between atoms: C_23  and  N_24
REMARK                            x       y       z     vdW  Elec       q    Type
REMARK                         _______ _______ _______ _____ _____    ______ ____
ROOT
ATOM      1  C   UNL     1      46.896   7.481  13.047  0.00  0.00    +0.000 C 
ENDROOT
BRANCH   1   2
ATOM      2  C   UNL     1      46.074   6.354  12.422  0.00  0.00    +0.000 A 
ATOM      3  C   UNL     1      46.548   5.037  12.515  0.00  0.00    +0.000 A 
ATOM      4  C   UNL     1      45.835   3.967  11.965  0.00  0.00    +0.000 A 
ATOM      5  C   UNL     1      44.606   4.174  11.320  0.00  0.00    +0.000 A 
ATOM      6  C   UNL     1      44.124   5.490  11.221  0.00  0.00    +0.000 A 
ATOM      7  C   UNL     1      44.855   6.571  11.756  0.00  0.00    +0.000 A 
BRANCH   5   8
ATOM      8  C   UNL     1      43.895   3.011  10.652  0.00  0.00    +0.000 C 
BRANCH   8   9
ATOM      9  N   UNL     1      43.990   2.824   9.205  0.00  0.00    +0.000 NA
ATOM     10  C   UNL     1      44.588   1.573   8.735  0.00  0.00    +0.000 C 
ATOM     11  C   UNL     1      46.101   1.644   8.484  0.00  0.00    +0.000 C 
ATOM     12  O   UNL     1      46.450   2.740   7.629  0.00  0.00    +0.000 OA
ATOM     13  C   UNL     1      45.983   3.981   8.171  0.00  0.00    +0.000 C 
ATOM     14  C   UNL     1      44.466   3.960   8.409  0.00  0.00    +0.000 C 
ENDBRANCH   8   9
ENDBRANCH   5   8
ENDBRANCH   1   2
BRANCH   1  15
ATOM     15  N   UNL     1      47.358   7.080  14.366  0.00  0.00    +0.000 N 
ATOM     16  C   UNL     1      48.670   6.797  14.648  0.00  0.00    +0.000 C 
ATOM     17  O   UNL     1      49.566   6.929  13.819  0.00  0.00    +0.000 OA
ATOM     18  H   UNL     1      46.645   6.864  15.053  0.00  0.00    +0.000 HD
BRANCH  16  19
ATOM     19  C   UNL     1      48.953   6.358  16.021  0.00  0.00    +0.000 A 
ATOM     20  C   UNL     1      49.797   7.108  16.828  0.00  0.00    +0.000 A 
ATOM     21  S   UNL     1      50.007   6.456  18.391  0.00  0.00    +0.000 S 
ATOM     22  C   UNL     1      49.030   5.112  18.022  0.00  0.00    +0.000 A 
ATOM     23  N   UNL     1      48.831   4.120  18.930  0.00  0.00    +0.000 NA
ATOM     24  C   UNL     1      48.118   3.134  18.497  0.00  0.00    +0.000 A 
ATOM     25  N   UNL     1      47.569   3.059  17.245  0.00  0.00    +0.000 N 
ATOM     26  C   UNL     1      47.651   4.088  16.339  0.00  0.00    +0.000 A 
ATOM     27  O   UNL     1      46.992   4.070  15.307  0.00  0.00    +0.000 OA
ATOM     28  C   UNL     1      48.511   5.184  16.742  0.00  0.00    +0.000 A 
ATOM     29  H   UNL     1      46.984   2.282  16.979  0.00  0.00    +0.000 HD
ENDBRANCH  16  19
ENDBRANCH   1  15
BRANCH   1  30
ATOM     30  C   UNL     1      46.154   8.836  13.116  0.00  0.00    +0.000 C 
BRANCH  30  32
ATOM     31  C   UNL     1      45.473  10.889  11.817  0.00  0.00    +0.000 C 
ATOM     32  C   UNL     1      46.607   9.892  12.083  0.00  0.00    +0.000 C 
ATOM     33  C   UNL     1      47.867  10.657  12.501  0.00  0.00    +0.000 C 
ENDBRANCH  30  32
ENDBRANCH   1  30
TORSDOF 7
ENDMDL
MODEL 3
REMARK VINA RESULT:    -6.511      4.054      8.482
REMARK INTER + INTRA:         -10.790
REMARK INTER:                  -9.212
REMARK INTRA:                  -1.578
REMARK UNBOUND:                -1.615
REMARK  Name = 
REMARK  9 active torsions:
REMARK  status: ('A' for Active; 'I' for Inactive)
REMARK    1  A    between atoms: C_1  and  C_2
REMARK    2  A    between atoms: C_2  and  C_3
REMARK    3  A    between atoms: C_2  and  C_4
REMARK    4  A    between atoms: C_4  and  C_5
REMARK    5  A    between atoms: C_5  and  N_6
REMARK    6  A    between atoms: C_5  and  C_19
REMARK    7  A    between atoms: C_7  and  C_9
REMARK    8  A    between atoms: C_22  and  C_23
REMARK    9  A    between atoms: C_23  and  N_24
REMARK                            x       y       z     vdW  Elec       q    Type
REMARK                         _______ _______ _______ _____ _____    ______ ____
ROOT
ATOM      1  C   UNL     1      48.452   7.535  12.773  0.00  0.00    +0.000 C 
ENDROOT
BRANCH   1   2
ATOM      2  C   UNL     1      48.810   6.951  14.139  0.00  0.00    +0.000 A 
ATOM      3  C   UNL     1      49.994   7.366  14.767  0.00  0.00    +0.000 A 
ATOM      4  C   UNL     1      50.368   6.867  16.018  0.00  0.00    +0.000 A 
ATOM      5  C   UNL     1      49.556   5.948  16.701  0.00  0.00    +0.000 A 
ATOM      6  C   UNL     1      48.369   5.525  16.081  0.00  0.00    +0.000 A 
ATOM      7  C   UNL     1      48.004   6.012  14.808  0.00  0.00    +0.000 A 
BRANCH   5   8
ATOM      8  C   UNL     1      50.026   5.352  18.015  0.00  0.00    +0.000 C 
BRANCH   8   9
ATOM      9  N   UNL     1      49.819   6.078  19.267  0.00  0.00    +0.000 NA
ATOM     10  C   UNL     1      50.009   5.327  20.509  0.00  0.00    +0.000 C 
ATOM     11  C   UNL     1      48.732   4.682  21.067  0.00  0.00    +0.000 C 
ATOM     12  O   UNL     1      47.665   5.631  21.191  0.00  0.00    +0.000 OA
ATOM     13  C   UNL     1      47.390   6.261  19.934  0.00  0.00    +0.000 C 
ATOM     14  C   UNL     1      48.639   6.944  19.357  0.00  0.00    +0.000 C 
ENDBRANCH   8   9
ENDBRANCH   5   8
ENDBRANCH   1   2
BRANCH   1  15
ATOM     15  N   UNL     1      47.682   6.566  12.010  0.00  0.00    +0.000 N 
ATOM     16  C   UNL     1      46.361   6.743  11.687  0.00  0.00    +0.000 C 
ATOM     17  O   UNL     1      45.746   7.770  11.962  0.00  0.00    +0.000 OA
ATOM     18  H   UNL     1      48.116   5.665  11.847  0.00  0.00    +0.000 HD
BRANCH  16  19
ATOM     19  C   UNL     1      45.724   5.640  10.955  0.00  0.00    +0.000 A 
ATOM     20  C   UNL     1      45.792   5.598   9.570  0.00  0.00    +0.000 A 
ATOM     21  S   UNL     1      45.006   4.246   8.887  0.00  0.00    +0.000 S 
ATOM     22  C   UNL     1      44.489   3.704  10.416  0.00  0.00    +0.000 A 
ATOM     23  N   UNL     1      43.711   2.596  10.541  0.00  0.00    +0.000 NA
ATOM     24  C   UNL     1      43.344   2.335  11.751  0.00  0.00    +0.000 A 
ATOM     25  N   UNL     1      43.700   3.070  12.851  0.00  0.00    +0.000 N 
ATOM     26  C   UNL     1      44.574   4.127  12.781  0.00  0.00    +0.000 A 
ATOM     27  O   UNL     1      45.020   4.640  13.800  0.00  0.00    +0.000 OA
ATOM     28  C   UNL     1      44.951   4.516  11.436  0.00  0.00    +0.000 A 
ATOM     29  H   UNL     1      43.417   2.790  13.777  0.00  0.00    +0.000 HD
ENDBRANCH  16  19
ENDBRANCH   1  15
BRANCH   1  30
ATOM     30  C   UNL     1      49.672   8.027  11.961  0.00  0.00    +0.000 C 
BRANCH  30  32
ATOM     31  C   UNL     1      48.316  10.154  11.928  0.00  0.00    +0.000 C 
ATOM     32  C   UNL     1      49.691   9.539  11.646  0.00  0.00    +0.000 C 
ATOM     33  C   UNL     1      50.761  10.314  12.422  0.00  0.00    +0.000 C 
ENDBRANCH  30  32
ENDBRANCH   1  30
TORSDOF 7
ENDMDL
MODEL 4
REMARK VINA RESULT:    -6.498      3.559      8.514
REMARK INTER + INTRA:         -10.771
REMARK INTER:                  -9.274
REMARK INTRA:                  -1.497
REMARK UNBOUND:                -1.615
REMARK  Name = 
REMARK  9 active torsions:
REMARK  status: ('A' for Active; 'I' for Inactive)
REMARK    1  A    between atoms: C_1  and  C_2
REMARK    2  A    between atoms: C_2  and  C_3
REMARK    3  A    between atoms: C_2  and  C_4
REMARK    4  A    between atoms: C_4  and  C_5
REMARK    5  A    between atoms: C_5  and  N_6
REMARK    6  A    between atoms: C_5  and  C_19
REMARK    7  A    between atoms: C_7  and  C_9
REMARK    8  A    between atoms: C_22  and  C_23
REMARK    9  A    between atoms: C_23  and  N_24
REMARK                            x       y       z     vdW  Elec       q    Type
REMARK                         _______ _______ _______ _____ _____    ______ ____
ROOT
ATOM      1  C   UNL     1      48.718   5.491  16.791  0.00  0.00    +0.000 C 
ENDROOT
BRANCH   1   2
ATOM      2  C   UNL     1      48.328   6.532  17.840  0.00  0.00    +0.000 A 
ATOM      3  C   UNL     1      47.784   6.099  19.058  0.00  0.00    +0.000 A 
ATOM      4  C   UNL     1      47.414   7.008  20.053  0.00  0.00    +0.000 A 
ATOM      5  C   UNL     1      47.597   8.388  19.875  0.00  0.00    +0.000 A 
ATOM      6  C   UNL     1      48.141   8.832  18.659  0.00  0.00    +0.000 A 
ATOM      7  C   UNL     1      48.493   7.915  17.646  0.00  0.00    +0.000 A 
BRANCH   5   8
ATOM      8  C   UNL     1      47.105   9.360  20.932  0.00  0.00    +0.000 C 
BRANCH   8   9
ATOM      9  N   UNL     1      48.044   9.942  21.890  0.00  0.00    +0.000 NA
ATOM     10  C   UNL     1      48.444  11.333  21.667  0.00  0.00    +0.000 C 
ATOM     11  C   UNL     1      49.720  11.503  20.830  0.00  0.00    +0.000 C 
ATOM     12  O   UNL     1      50.807  10.727  21.348  0.00  0.00    +0.000 OA
ATOM     13  C   UNL     1      50.453   9.340  21.429  0.00  0.00    +0.000 C 
ATOM     14  C   UNL     1      49.196   9.125  22.285  0.00  0.00    +0.000 C 
ENDBRANCH   8   9
ENDBRANCH   5   8
ENDBRANCH   1   2
BRANCH   1  15
ATOM     15  N   UNL     1      47.780   5.535  15.681  0.00  0.00    +0.000 N 
ATOM     16  C   UNL     1      48.064   6.131  14.480  0.00  0.00    +0.000 C 
ATOM     17  O   UNL     1      49.165   6.615  14.228  0.00  0.00    +0.000 OA
ATOM     18  H   UNL     1      46.831   5.237  15.875  0.00  0.00    +0.000 HD
BRANCH  16  19
ATOM     19  C   UNL     1      46.983   6.129  13.487  0.00  0.00    +0.000 A 
ATOM     20  C   UNL     1      46.525   7.328  12.958  0.00  0.00    +0.000 A 
ATOM     21  S   UNL     1      45.274   7.137  11.814  0.00  0.00    +0.000 S 
ATOM     22  C   UNL     1      45.253   5.450  12.034  0.00  0.00    +0.000 A 
ATOM     23  N   UNL     1      44.359   4.667  11.373  0.00  0.00    +0.000 NA
ATOM     24  C   UNL     1      44.416   3.414  11.680  0.00  0.00    +0.000 A 
ATOM     25  N   UNL     1      45.300   2.869  12.572  0.00  0.00    +0.000 N 
ATOM     26  C   UNL     1      46.291   3.604  13.174  0.00  0.00    +0.000 A 
ATOM     27  O   UNL     1      47.180   3.056  13.815  0.00  0.00    +0.000 OA
ATOM     28  C   UNL     1      46.220   5.032  12.931  0.00  0.00    +0.000 A 
ATOM     29  H   UNL     1      45.325   1.875  12.738  0.00  0.00    +0.000 HD
ENDBRANCH  16  19
ENDBRANCH   1  15
BRANCH   1  30
ATOM     30  C   UNL     1      48.840   4.053  17.348  0.00  0.00    +0.000 C 
BRANCH  30  32
ATOM     31  C   UNL     1      50.604   2.253  17.249  0.00  0.00    +0.000 C 
ATOM     32  C   UNL     1      50.256   3.639  17.805  0.00  0.00    +0.000 C 
ATOM     33  C   UNL     1      51.347   4.636  17.401  0.00  0.00    +0.000 C 
ENDBRANCH  30  32
ENDBRANCH   1  30
TORSDOF 7
ENDMDL
MODEL 5
REMARK VINA RESULT:    -6.393      3.096      4.323
REMARK INTER + INTRA:         -10.623
REMARK INTER:                  -8.751
REMARK INTRA:                  -1.872
REMARK UNBOUND:                -1.615
REMARK  Name = 
REMARK  9 active torsions:
REMARK  status: ('A' for Active; 'I' for Inactive)
REMARK    1  A    between atoms: C_1  and  C_2
REMARK    2  A    between atoms: C_2  and  C_3
REMARK    3  A    between atoms: C_2  and  C_4
REMARK    4  A    between atoms: C_4  and  C_5
REMARK    5  A    between atoms: C_5  and  N_6
REMARK    6  A    between atoms: C_5  and  C_19
REMARK    7  A    between atoms: C_7  and  C_9
REMARK    8  A    between atoms: C_22  and  C_23
REMARK    9  A    between atoms: C_23  and  N_24
REMARK                            x       y       z     vdW  Elec       q    Type
REMARK                         _______ _______ _______ _____ _____    ______ ____
ROOT
ATOM      1  C   UNL     1      48.279   8.394  13.819  0.00  0.00    +0.000 C 
ENDROOT
BRANCH   1   2
ATOM      2  C   UNL     1      47.163   7.824  12.943  0.00  0.00    +0.000 A 
ATOM      3  C   UNL     1      47.423   6.684  12.168  0.00  0.00    +0.000 A 
ATOM      4  C   UNL     1      46.438   6.120  11.352  0.00  0.00    +0.000 A 
ATOM      5  C   UNL     1      45.144   6.662  11.301  0.00  0.00    +0.000 A 
ATOM      6  C   UNL     1      44.874   7.803  12.073  0.00  0.00    +0.000 A 
ATOM      7  C   UNL     1      45.875   8.386  12.878  0.00  0.00    +0.000 A 
BRANCH   5   8
ATOM      8  C   UNL     1      44.119   6.086  10.341  0.00  0.00    +0.000 C 
BRANCH   8   9
ATOM      9  N   UNL     1      43.254   4.985  10.763  0.00  0.00    +0.000 NA
ATOM     10  C   UNL     1      42.521   5.160  12.018  0.00  0.00    +0.000 C 
ATOM     11  C   UNL     1      43.244   4.619  13.260  0.00  0.00    +0.000 C 
ATOM     12  O   UNL     1      43.659   3.259  13.086  0.00  0.00    +0.000 OA
ATOM     13  C   UNL     1      44.496   3.122  11.931  0.00  0.00    +0.000 C 
ATOM     14  C   UNL     1      43.795   3.626  10.661  0.00  0.00    +0.000 C 
ENDBRANCH   8   9
ENDBRANCH   5   8
ENDBRANCH   1   2
BRANCH   1  15
ATOM     15  N   UNL     1      48.406   7.600  15.031  0.00  0.00    +0.000 N 
ATOM     16  C   UNL     1      49.595   7.067  15.458  0.00  0.00    +0.000 C 
ATOM     17  O   UNL     1      50.658   7.278  14.881  0.00  0.00    +0.000 OA
ATOM     18  H   UNL     1      47.545   7.319  15.484  0.00  0.00    +0.000 HD
BRANCH  16  19
ATOM     19  C   UNL     1      49.533   6.249  16.676  0.00  0.00    +0.000 A 
ATOM     20  C   UNL     1      50.334   6.567  17.765  0.00  0.00    +0.000 A 
ATOM     21  S   UNL     1      50.128   5.518  19.095  0.00  0.00    +0.000 S 
ATOM     22  C   UNL     1      49.009   4.563  18.239  0.00  0.00    +0.000 A 
ATOM     23  N   UNL     1      48.468   3.447  18.798  0.00  0.00    +0.000 NA
ATOM     24  C   UNL     1      47.682   2.785  18.017  0.00  0.00    +0.000 A 
ATOM     25  N   UNL     1      47.371   3.149  16.733  0.00  0.00    +0.000 N 
ATOM     26  C   UNL     1      47.805   4.324  16.172  0.00  0.00    +0.000 A 
ATOM     27  O   UNL     1      47.358   4.711  15.099  0.00  0.00    +0.000 OA
ATOM     28  C   UNL     1      48.759   5.064  16.975  0.00  0.00    +0.000 A 
ATOM     29  H   UNL     1      46.715   2.613  16.186  0.00  0.00    +0.000 HD
ENDBRANCH  16  19
ENDBRANCH   1  15
BRANCH   1  30
ATOM     30  C   UNL     1      48.106   9.892  14.161  0.00  0.00    +0.000 C 
BRANCH  30  32
ATOM     31  C   UNL     1      50.007  10.179  12.528  0.00  0.00    +0.000 C 
ATOM     32  C   UNL     1      48.823  10.874  13.209  0.00  0.00    +0.000 C 
ATOM     33  C   UNL     1      47.904  11.473  12.139  0.00  0.00    +0.000 C 
ENDBRANCH  30  32
ENDBRANCH   1  30
TORSDOF 7
ENDMDL
MODEL 6
REMARK VINA RESULT:    -6.387      3.866      8.535
REMARK INTER + INTRA:         -10.615
REMARK INTER:                  -9.188
REMARK INTRA:                  -1.427
REMARK UNBOUND:                -1.615
REMARK  Name = 
REMARK  9 active torsions:
REMARK  status: ('A' for Active; 'I' for Inactive)
REMARK    1  A    between atoms: C_1  and  C_2
REMARK    2  A    between atoms: C_2  and  C_3
REMARK    3  A    between atoms: C_2  and  C_4
REMARK    4  A    between atoms: C_4  and  C_5
REMARK    5  A    between atoms: C_5  and  N_6
REMARK    6  A    between atoms: C_5  and  C_19
REMARK    7  A    between atoms: C_7  and  C_9
REMARK    8  A    between atoms: C_22  and  C_23
REMARK    9  A    between atoms: C_23  and  N_24
REMARK                            x       y       z     vdW  Elec       q    Type
REMARK                         _______ _______ _______ _____ _____    ______ ____
ROOT
ATOM      1  C   UNL     1      47.926   7.817  12.734  0.00  0.00    +0.000 C 
ENDROOT
BRANCH   1   2
ATOM      2  C   UNL     1      48.384   7.820  14.192  0.00  0.00    +0.000 A 
ATOM      3  C   UNL     1      49.256   6.814  14.632  0.00  0.00    +0.000 A 
ATOM      4  C   UNL     1      49.709   6.771  15.955  0.00  0.00    +0.000 A 
ATOM      5  C   UNL     1      49.324   7.752  16.882  0.00  0.00    +0.000 A 
ATOM      6  C   UNL     1      48.451   8.764  16.450  0.00  0.00    +0.000 A 
ATOM      7  C   UNL     1      47.976   8.793  15.122  0.00  0.00    +0.000 A 
BRANCH   5   8
ATOM      8  C   UNL     1      49.756   7.635  18.332  0.00  0.00    +0.000 C 
BRANCH   8   9
ATOM      9  N   UNL     1      49.104   6.671  19.217  0.00  0.00    +0.000 NA
ATOM     10  C   UNL     1      49.852   5.455  19.541  0.00  0.00    +0.000 C 
ATOM     11  C   UNL     1      49.577   4.269  18.605  0.00  0.00    +0.000 C 
ATOM     12  O   UNL     1      48.175   3.999  18.483  0.00  0.00    +0.000 OA
ATOM     13  C   UNL     1      47.468   5.160  18.028  0.00  0.00    +0.000 C 
ATOM     14  C   UNL     1      47.695   6.362  18.956  0.00  0.00    +0.000 C 
ENDBRANCH   8   9
ENDBRANCH   5   8
ENDBRANCH   1   2
BRANCH   1  15
ATOM     15  N   UNL     1      47.084   6.657  12.485  0.00  0.00    +0.000 N 
ATOM     16  C   UNL     1      45.848   6.738  11.898  0.00  0.00    +0.000 C 
ATOM     17  O   UNL     1      45.388   7.795  11.473  0.00  0.00    +0.000 OA
ATOM     18  H   UNL     1      47.378   5.783  12.905  0.00  0.00    +0.000 HD
BRANCH  16  19
ATOM     19  C   UNL     1      45.111   5.474  11.769  0.00  0.00    +0.000 A 
ATOM     20  C   UNL     1      44.410   4.968  12.855  0.00  0.00    +0.000 A 
ATOM     21  S   UNL     1      43.607   3.499  12.526  0.00  0.00    +0.000 S 
ATOM     22  C   UNL     1      44.222   3.454  10.939  0.00  0.00    +0.000 A 
ATOM     23  N   UNL     1      43.951   2.409  10.112  0.00  0.00    +0.000 NA
ATOM     24  C   UNL     1      44.530   2.476   8.960  0.00  0.00    +0.000 A 
ATOM     25  N   UNL     1      45.339   3.503   8.551  0.00  0.00    +0.000 N 
ATOM     26  C   UNL     1      45.546   4.628   9.312  0.00  0.00    +0.000 A 
ATOM     27  O   UNL     1      46.116   5.606   8.843  0.00  0.00    +0.000 OA
ATOM     28  C   UNL     1      44.989   4.567  10.649  0.00  0.00    +0.000 A 
ATOM     29  H   UNL     1      45.729   3.520   7.622  0.00  0.00    +0.000 HD
ENDBRANCH  16  19
ENDBRANCH   1  15
BRANCH   1  30
ATOM     30  C   UNL     1      49.084   7.881  11.711  0.00  0.00    +0.000 C 
BRANCH  30  32
ATOM     31  C   UNL     1      48.482  10.324  11.529  0.00  0.00    +0.000 C 
ATOM     32  C   UNL     1      49.614   9.298  11.400  0.00  0.00    +0.000 C 
ATOM     33  C   UNL     1      50.787   9.723  12.288  0.00  0.00    +0.000 C 
ENDBRANCH  30  32
ENDBRANCH   1  30
TORSDOF 7
ENDMDL
MODEL 7
REMARK VINA RESULT:    -6.381      4.720      8.813
REMARK INTER + INTRA:         -10.607
REMARK INTER:                  -8.991
REMARK INTRA:                  -1.617
REMARK UNBOUND:                -1.615
REMARK  Name = 
REMARK  9 active torsions:
REMARK  status: ('A' for Active; 'I' for Inactive)
REMARK    1  A    between atoms: C_1  and  C_2
REMARK    2  A    between atoms: C_2  and  C_3
REMARK    3  A    between atoms: C_2  and  C_4
REMARK    4  A    between atoms: C_4  and  C_5
REMARK    5  A    between atoms: C_5  and  N_6
REMARK    6  A    between atoms: C_5  and  C_19
REMARK    7  A    between atoms: C_7  and  C_9
REMARK    8  A    between atoms: C_22  and  C_23
REMARK    9  A    between atoms: C_23  and  N_24
REMARK                            x       y       z     vdW  Elec       q    Type
REMARK                         _______ _______ _______ _____ _____    ______ ____
ROOT
ATOM      1  C   UNL     1      47.953   7.651  12.512  0.00  0.00    +0.000 C 
ENDROOT
BRANCH   1   2
ATOM      2  C   UNL     1      48.199   7.698  14.020  0.00  0.00    +0.000 A 
ATOM      3  C   UNL     1      48.584   6.523  14.682  0.00  0.00    +0.000 A 
ATOM      4  C   UNL     1      48.825   6.510  16.059  0.00  0.00    +0.000 A 
ATOM      5  C   UNL     1      48.714   7.682  16.823  0.00  0.00    +0.000 A 
ATOM      6  C   UNL     1      48.330   8.864  16.169  0.00  0.00    +0.000 A 
ATOM      7  C   UNL     1      48.063   8.871  14.784  0.00  0.00    +0.000 A 
BRANCH   5   8
ATOM      8  C   UNL     1      48.893   7.625  18.329  0.00  0.00    +0.000 C 
BRANCH   8   9
ATOM      9  N   UNL     1      47.729   7.483  19.203  0.00  0.00    +0.000 NA
ATOM     10  C   UNL     1      47.629   8.410  20.332  0.00  0.00    +0.000 C 
ATOM     11  C   UNL     1      48.249   7.894  21.638  0.00  0.00    +0.000 C 
ATOM     12  O   UNL     1      47.754   6.596  21.988  0.00  0.00    +0.000 OA
ATOM     13  C   UNL     1      47.985   5.657  20.929  0.00  0.00    +0.000 C 
ATOM     14  C   UNL     1      47.354   6.125  19.610  0.00  0.00    +0.000 C 
ENDBRANCH   8   9
ENDBRANCH   5   8
ENDBRANCH   1   2
BRANCH   1  15
ATOM     15  N   UNL     1      47.106   6.515  12.187  0.00  0.00    +0.000 N 
ATOM     16  C   UNL     1      45.736   6.565  12.222  0.00  0.00    +0.000 C 
ATOM     17  O   UNL     1      45.120   7.599  12.464  0.00  0.00    +0.000 OA
ATOM     18  H   UNL     1      47.567   5.619  12.078  0.00  0.00    +0.000 HD
BRANCH  16  19
ATOM     19  C   UNL     1      45.037   5.310  11.914  0.00  0.00    +0.000 A 
ATOM     20  C   UNL     1      44.313   4.660  12.903  0.00  0.00    +0.000 A 
ATOM     21  S   UNL     1      43.560   3.225  12.370  0.00  0.00    +0.000 S 
ATOM     22  C   UNL     1      44.230   3.387  10.813  0.00  0.00    +0.000 A 
ATOM     23  N   UNL     1      44.016   2.445   9.856  0.00  0.00    +0.000 NA
ATOM     24  C   UNL     1      44.633   2.664   8.743  0.00  0.00    +0.000 A 
ATOM     25  N   UNL     1      45.428   3.750   8.492  0.00  0.00    +0.000 N 
ATOM     26  C   UNL     1      45.579   4.779   9.390  0.00  0.00    +0.000 A 
ATOM     27  O   UNL     1      46.139   5.819   9.065  0.00  0.00    +0.000 OA
ATOM     28  C   UNL     1      44.978   4.544  10.688  0.00  0.00    +0.000 A 
ATOM     29  H   UNL     1      45.849   3.889   7.586  0.00  0.00    +0.000 HD
ENDBRANCH  16  19
ENDBRANCH   1  15
BRANCH   1  30
ATOM     30  C   UNL     1      49.246   7.630  11.665  0.00  0.00    +0.000 C 
BRANCH  30  32
ATOM     31  C   UNL     1      48.802  10.096  11.374  0.00  0.00    +0.000 C 
ATOM     32  C   UNL     1      49.884   9.010  11.396  0.00  0.00    +0.000 C 
ATOM     33  C   UNL     1      50.966   9.394  12.412  0.00  0.00    +0.000 C 
ENDBRANCH  30  32
ENDBRANCH   1  30
TORSDOF 7
ENDMDL
MODEL 8
REMARK VINA RESULT:    -6.025      3.028      6.166
REMARK INTER + INTRA:         -10.105
REMARK INTER:                  -8.655
REMARK INTRA:                  -1.450
REMARK UNBOUND:                -1.615
REMARK  Name = 
REMARK  9 active torsions:
REMARK  status: ('A' for Active; 'I' for Inactive)
REMARK    1  A    between atoms: C_1  and  C_2
REMARK    2  A    between atoms: C_2  and  C_3
REMARK    3  A    between atoms: C_2  and  C_4
REMARK    4  A    between atoms: C_4  and  C_5
REMARK    5  A    between atoms: C_5  and  N_6
REMARK    6  A    between atoms: C_5  and  C_19
REMARK    7  A    between atoms: C_7  and  C_9
REMARK    8  A    between atoms: C_22  and  C_23
REMARK    9  A    between atoms: C_23  and  N_24
REMARK                            x       y       z     vdW  Elec       q    Type
REMARK                         _______ _______ _______ _____ _____    ______ ____
ROOT
ATOM      1  C   UNL     1      49.397   5.558  17.640  0.00  0.00    +0.000 C 
ENDROOT
BRANCH   1   2
ATOM      2  C   UNL     1      48.563   5.471  16.362  0.00  0.00    +0.000 A 
ATOM      3  C   UNL     1      48.749   6.438  15.363  0.00  0.00    +0.000 A 
ATOM      4  C   UNL     1      48.016   6.405  14.173  0.00  0.00    +0.000 A 
ATOM      5  C   UNL     1      47.084   5.385  13.927  0.00  0.00    +0.000 A 
ATOM      6  C   UNL     1      46.891   4.411  14.921  0.00  0.00    +0.000 A 
ATOM      7  C   UNL     1      47.614   4.459  16.131  0.00  0.00    +0.000 A 
BRANCH   5   8
ATOM      8  C   UNL     1      46.237   5.420  12.668  0.00  0.00    +0.000 C 
BRANCH   8   9
ATOM      9  N   UNL     1      45.064   4.555  12.548  0.00  0.00    +0.000 NA
ATOM     10  C   UNL     1      44.942   3.769  11.319  0.00  0.00    +0.000 C 
ATOM     11  C   UNL     1      44.134   4.449  10.203  0.00  0.00    +0.000 C 
ATOM     12  O   UNL     1      42.852   4.892  10.666  0.00  0.00    +0.000 OA
ATOM     13  C   UNL     1      42.989   5.777  11.785  0.00  0.00    +0.000 C 
ATOM     14  C   UNL     1      43.768   5.121  12.935  0.00  0.00    +0.000 C 
ENDBRANCH   8   9
ENDBRANCH   5   8
ENDBRANCH   1   2
BRANCH   1  15
ATOM     15  N   UNL     1      49.027   6.749  18.388  0.00  0.00    +0.000 N 
ATOM     16  C   UNL     1      47.863   6.855  19.104  0.00  0.00    +0.000 C 
ATOM     17  O   UNL     1      47.075   5.922  19.224  0.00  0.00    +0.000 OA
ATOM     18  H   UNL     1      49.596   7.574  18.240  0.00  0.00    +0.000 HD
BRANCH  16  19
ATOM     19  C   UNL     1      47.625   8.148  19.759  0.00  0.00    +0.000 A 
ATOM     20  C   UNL     1      47.378   8.199  21.124  0.00  0.00    +0.000 A 
ATOM     21  S   UNL     1      47.132   9.779  21.717  0.00  0.00    +0.000 S 
ATOM     22  C   UNL     1      47.283  10.448  20.158  0.00  0.00    +0.000 A 
ATOM     23  N   UNL     1      47.127  11.782  19.949  0.00  0.00    +0.000 NA
ATOM     24  C   UNL     1      47.208  12.142  18.712  0.00  0.00    +0.000 A 
ATOM     25  N   UNL     1      47.451  11.292  17.666  0.00  0.00    +0.000 N 
ATOM     26  C   UNL     1      47.726   9.959  17.846  0.00  0.00    +0.000 A 
ATOM     27  O   UNL     1      48.125   9.269  16.916  0.00  0.00    +0.000 OA
ATOM     28  C   UNL     1      47.564   9.484  19.207  0.00  0.00    +0.000 A 
ATOM     29  H   UNL     1      47.546  11.640  16.725  0.00  0.00    +0.000 HD
ENDBRANCH  16  19
ENDBRANCH   1  15
BRANCH   1  30
ATOM     30  C   UNL     1      50.923   5.514  17.399  0.00  0.00    +0.000 C 
BRANCH  30  32
ATOM     31  C   UNL     1      51.060   3.000  17.539  0.00  0.00    +0.000 C 
ATOM     32  C   UNL     1      51.660   4.318  18.040  0.00  0.00    +0.000 C 
ATOM     33  C   UNL     1      53.171   4.318  17.781  0.00  0.00    +0.000 C 
ENDBRANCH  30  32
ENDBRANCH   1  30
TORSDOF 7
ENDMDL
MODEL 9
REMARK VINA RESULT:    -6.005      4.070      6.541
REMARK INTER + INTRA:         -10.077
REMARK INTER:                  -9.396
REMARK INTRA:                  -0.681
REMARK UNBOUND:                -1.615
REMARK  Name = 
REMARK  9 active torsions:
REMARK  status: ('A' for Active; 'I' for Inactive)
REMARK    1  A    between atoms: C_1  and  C_2
REMARK    2  A    between atoms: C_2  and  C_3
REMARK    3  A    between atoms: C_2  and  C_4
REMARK    4  A    between atoms: C_4  and  C_5
REMARK    5  A    between atoms: C_5  and  N_6
REMARK    6  A    between atoms: C_5  and  C_19
REMARK    7  A    between atoms: C_7  and  C_9
REMARK    8  A    between atoms: C_22  and  C_23
REMARK    9  A    between atoms: C_23  and  N_24
REMARK                            x       y       z     vdW  Elec       q    Type
REMARK                         _______ _______ _______ _____ _____    ______ ____
ROOT
ATOM      1  C   UNL     1      45.458   5.808  12.939  0.00  0.00    +0.000 C 
ENDROOT
BRANCH   1   2
ATOM      2  C   UNL     1      45.061   7.170  12.368  0.00  0.00    +0.000 A 
ATOM      3  C   UNL     1      44.099   7.224  11.349  0.00  0.00    +0.000 A 
ATOM      4  C   UNL     1      43.697   8.442  10.793  0.00  0.00    +0.000 A 
ATOM      5  C   UNL     1      44.226   9.657  11.255  0.00  0.00    +0.000 A 
ATOM      6  C   UNL     1      45.190   9.613  12.275  0.00  0.00    +0.000 A 
ATOM      7  C   UNL     1      45.613   8.382  12.820  0.00  0.00    +0.000 A 
BRANCH   5   8
ATOM      8  C   UNL     1      43.841  10.958  10.576  0.00  0.00    +0.000 C 
BRANCH   8   9
ATOM      9  N   UNL     1      42.700  11.732  11.063  0.00  0.00    +0.000 NA
ATOM     10  C   UNL     1      41.598  10.981  11.668  0.00  0.00    +0.000 C 
ATOM     11  C   UNL     1      40.481  10.587  10.691  0.00  0.00    +0.000 C 
ATOM     12  O   UNL     1      39.996  11.715   9.952  0.00  0.00    +0.000 OA
ATOM     13  C   UNL     1      41.063  12.362   9.246  0.00  0.00    +0.000 C 
ATOM     14  C   UNL     1      42.188  12.797  10.195  0.00  0.00    +0.000 C 
ENDBRANCH   8   9
ENDBRANCH   5   8
ENDBRANCH   1   2
BRANCH   1  15
ATOM     15  N   UNL     1      46.477   5.982  13.963  0.00  0.00    +0.000 N 
ATOM     16  C   UNL     1      46.961   4.950  14.723  0.00  0.00    +0.000 C 
ATOM     17  O   UNL     1      46.618   3.784  14.548  0.00  0.00    +0.000 OA
ATOM     18  H   UNL     1      46.718   6.935  14.208  0.00  0.00    +0.000 HD
BRANCH  16  19
ATOM     19  C   UNL     1      47.951   5.312  15.746  0.00  0.00    +0.000 A 
ATOM     20  C   UNL     1      48.840   6.352  15.512  0.00  0.00    +0.000 A 
ATOM     21  S   UNL     1      49.912   6.641  16.808  0.00  0.00    +0.000 S 
ATOM     22  C   UNL     1      49.269   5.342  17.702  0.00  0.00    +0.000 A 
ATOM     23  N   UNL     1      49.782   5.004  18.915  0.00  0.00    +0.000 NA
ATOM     24  C   UNL     1      49.239   3.964  19.454  0.00  0.00    +0.000 A 
ATOM     25  N   UNL     1      48.215   3.242  18.899  0.00  0.00    +0.000 N 
ATOM     26  C   UNL     1      47.595   3.617  17.732  0.00  0.00    +0.000 A 
ATOM     27  O   UNL     1      46.565   3.065  17.364  0.00  0.00    +0.000 OA
ATOM     28  C   UNL     1      48.220   4.728  17.042  0.00  0.00    +0.000 A 
ATOM     29  H   UNL     1      47.803   2.464  19.389  0.00  0.00    +0.000 HD
ENDBRANCH  16  19
ENDBRANCH   1  15
BRANCH   1  30
ATOM     30  C   UNL     1      45.923   4.790  11.872  0.00  0.00    +0.000 C 
BRANCH  30  32
ATOM     31  C   UNL     1      43.745   3.705  12.539  0.00  0.00    +0.000 C 
ATOM     32  C   UNL     1      44.916   3.664  11.550  0.00  0.00    +0.000 C 
ATOM     33  C   UNL     1      44.372   3.718  10.119  0.00  0.00    +0.000 C 
ENDBRANCH  30  32
ENDBRANCH   1  30
TORSDOF 7
ENDMDL
