MODEL 1
REMARK VINA RESULT:    -7.474      0.000      0.000
REMARK INTER + INTRA:         -11.122
REMARK INTER:                 -10.314
REMARK INTRA:                  -0.808
REMARK UNBOUND:                -0.808
REMARK  Name = 
REMARK  7 active torsions:
REMARK  status: ('A' for Active; 'I' for Inactive)
REMARK    1  A    between atoms: N_1  and  C_2
REMARK    2  A    between atoms: C_2  and  C_3
REMARK    3  A    between atoms: C_7  and  C_8
REMARK    4  A    between atoms: C_8  and  C_9
REMARK    5  A    between atoms: C_9  and  N_10
REMARK    6  A    between atoms: N_10  and  C_11
REMARK    7  A    between atoms: C_14  and  C_15
REMARK                            x       y       z     vdW  Elec       q    Type
REMARK                         _______ _______ _______ _____ _____    ______ ____
ROOT
ATOM      1  N   UNL     1      43.704   3.577  10.531  0.00  0.00    +0.000 N 
ATOM      2  H   UNL     1      42.918   2.930  10.520  0.00  0.00    +0.000 HD
ENDROOT
BRANCH   1   3
ATOM      3  C   UNL     1      44.622   3.297   9.494  0.00  0.00    +0.000 A 
ATOM      4  C   UNL     1      45.191   4.302   8.703  0.00  0.00    +0.000 A 
ATOM      5  C   UNL     1      46.103   3.995   7.698  0.00  0.00    +0.000 A 
ATOM      6  C   UNL     1      46.474   2.674   7.533  0.00  0.00    +0.000 A 
ATOM      7  N   UNL     1      46.012   1.655   8.310  0.00  0.00    +0.000 NA
ATOM      8  C   UNL     1      45.119   2.004   9.275  0.00  0.00    +0.000 A 
BRANCH   6   9
ATOM      9  C   UNL     1      47.448   2.328   6.441  0.00  0.00    +0.000 C 
ATOM     10  N   UNL     1      47.471   3.187   5.385  0.00  0.00    +0.000 N 
ATOM     11  O   UNL     1      48.177   1.342   6.496  0.00  0.00    +0.000 OA
ATOM     12  H   UNL     1      46.844   3.984   5.373  0.00  0.00    +0.000 HD
ATOM     13  H   UNL     1      48.090   3.003   4.611  0.00  0.00    +0.000 HD
ENDBRANCH   6   9
ENDBRANCH   1   3
BRANCH   1  14
ATOM     14  C   UNL     1      43.274   4.986  10.613  0.00  0.00    +0.000 C 
BRANCH  14  15
ATOM     15  C   UNL     1      43.372   5.559  12.030  0.00  0.00    +0.000 C 
BRANCH  15  20
ATOM     16  C   UNL     1      46.686   5.125  13.915  0.00  0.00    +0.000 A 
ATOM     17  C   UNL     1      47.555   5.853  13.094  0.00  0.00    +0.000 A 
ATOM     18  C   UNL     1      47.071   6.513  11.964  0.00  0.00    +0.000 A 
ATOM     19  C   UNL     1      45.716   6.445  11.634  0.00  0.00    +0.000 A 
ATOM     20  C   UNL     1      44.826   5.717  12.433  0.00  0.00    +0.000 A 
ATOM     21  C   UNL     1      45.321   5.069  13.576  0.00  0.00    +0.000 A 
BRANCH  16  22
ATOM     22  C   UNL     1      47.204   4.425  15.146  0.00  0.00    +0.000 C 
BRANCH  22  23
ATOM     23  N   UNL     1      47.764   3.117  14.824  0.00  0.00    +0.000 NA
ATOM     24  H   UNL     1      48.780   3.184  14.811  0.00  0.00    +0.000 HD
ATOM     25  H   UNL     1      47.480   2.866  13.878  0.00  0.00    +0.000 HD
ENDBRANCH  22  23
ENDBRANCH  16  22
ENDBRANCH  15  20
ENDBRANCH  14  15
ENDBRANCH   1  14
TORSDOF 7
ENDMDL
MODEL 2
REMARK VINA RESULT:    -7.449      1.806      2.393
REMARK INTER + INTRA:         -11.088
REMARK INTER:                 -10.541
REMARK INTRA:                  -0.547
REMARK UNBOUND:                -0.808
REMARK  Name = 
REMARK  7 active torsions:
REMARK  status: ('A' for Active; 'I' for Inactive)
REMARK    1  A    between atoms: N_1  and  C_2
REMARK    2  A    between atoms: C_2  and  C_3
REMARK    3  A    between atoms: C_7  and  C_8
REMARK    4  A    between atoms: C_8  and  C_9
REMARK    5  A    between atoms: C_9  and  N_10
REMARK    6  A    between atoms: N_10  and  C_11
REMARK    7  A    between atoms: C_14  and  C_15
REMARK                            x       y       z     vdW  Elec       q    Type
REMARK                         _______ _______ _______ _____ _____    ______ ____
ROOT
ATOM      1  N   UNL     1      43.687   4.566  10.160  0.00  0.00    +0.000 N 
ATOM      2  H   UNL     1      44.020   5.500  10.390  0.00  0.00    +0.000 HD
ENDROOT
BRANCH   1   3
ATOM      3  C   UNL     1      44.605   3.876   9.336  0.00  0.00    +0.000 A 
ATOM      4  C   UNL     1      45.461   4.538   8.449  0.00  0.00    +0.000 A 
ATOM      5  C   UNL     1      46.365   3.832   7.660  0.00  0.00    +0.000 A 
ATOM      6  C   UNL     1      46.432   2.460   7.813  0.00  0.00    +0.000 A 
ATOM      7  N   UNL     1      45.677   1.760   8.705  0.00  0.00    +0.000 NA
ATOM      8  C   UNL     1      44.806   2.493   9.449  0.00  0.00    +0.000 A 
BRANCH   6   9
ATOM      9  C   UNL     1      47.393   1.685   6.956  0.00  0.00    +0.000 C 
ATOM     10  N   UNL     1      48.465   2.388   6.497  0.00  0.00    +0.000 N 
ATOM     11  O   UNL     1      47.230   0.498   6.689  0.00  0.00    +0.000 OA
ATOM     12  H   UNL     1      48.558   3.371   6.731  0.00  0.00    +0.000 HD
ATOM     13  H   UNL     1      49.139   1.931   5.903  0.00  0.00    +0.000 HD
ENDBRANCH   6   9
ENDBRANCH   1   3
BRANCH   1  14
ATOM     14  C   UNL     1      43.238   3.817  11.349  0.00  0.00    +0.000 C 
BRANCH  14  15
ATOM     15  C   UNL     1      43.256   4.660  12.628  0.00  0.00    +0.000 C 
BRANCH  15  20
ATOM     16  C   UNL     1      45.955   7.381  12.810  0.00  0.00    +0.000 A 
ATOM     17  C   UNL     1      47.050   6.637  13.264  0.00  0.00    +0.000 A 
ATOM     18  C   UNL     1      46.932   5.263  13.472  0.00  0.00    +0.000 A 
ATOM     19  C   UNL     1      45.717   4.616  13.239  0.00  0.00    +0.000 A 
ATOM     20  C   UNL     1      44.603   5.337  12.792  0.00  0.00    +0.000 A 
ATOM     21  C   UNL     1      44.737   6.718  12.573  0.00  0.00    +0.000 A 
BRANCH  16  22
ATOM     22  C   UNL     1      46.084   8.865  12.569  0.00  0.00    +0.000 C 
BRANCH  22  23
ATOM     23  N   UNL     1      44.825   9.560  12.809  0.00  0.00    +0.000 NA
ATOM     24  H   UNL     1      44.066   9.027  12.389  0.00  0.00    +0.000 HD
ATOM     25  H   UNL     1      44.850  10.455  12.322  0.00  0.00    +0.000 HD
ENDBRANCH  22  23
ENDBRANCH  16  22
ENDBRANCH  15  20
ENDBRANCH  14  15
ENDBRANCH   1  14
TORSDOF 7
ENDMDL
MODEL 3
REMARK VINA RESULT:    -7.277      2.858      6.513
REMARK INTER + INTRA:         -10.850
REMARK INTER:                 -10.143
REMARK INTRA:                  -0.707
REMARK UNBOUND:                -0.808
REMARK  Name = 
REMARK  7 active torsions:
REMARK  status: ('A' for Active; 'I' for Inactive)
REMARK    1  A    between atoms: N_1  and  C_2
REMARK    2  A    between atoms: C_2  and  C_3
REMARK    3  A    between atoms: C_7  and  C_8
REMARK    4  A    between atoms: C_8  and  C_9
REMARK    5  A    between atoms: C_9  and  N_10
REMARK    6  A    between atoms: N_10  and  C_11
REMARK    7  A    between atoms: C_14  and  C_15
REMARK                            x       y       z     vdW  Elec       q    Type
REMARK                         _______ _______ _______ _____ _____    ______ ____
ROOT
ATOM      1  N   UNL     1      45.113   3.109  12.521  0.00  0.00    +0.000 N 
ATOM      2  H   UNL     1      45.731   2.374  12.184  0.00  0.00    +0.000 HD
ENDROOT
BRANCH   1   3
ATOM      3  C   UNL     1      45.832   4.278  12.860  0.00  0.00    +0.000 A 
ATOM      4  C   UNL     1      45.493   5.540  12.358  0.00  0.00    +0.000 A 
ATOM      5  C   UNL     1      46.212   6.674  12.722  0.00  0.00    +0.000 A 
ATOM      6  C   UNL     1      47.242   6.531  13.634  0.00  0.00    +0.000 A 
ATOM      7  N   UNL     1      47.581   5.346  14.212  0.00  0.00    +0.000 NA
ATOM      8  C   UNL     1      46.853   4.265  13.822  0.00  0.00    +0.000 A 
BRANCH   6   9
ATOM      9  C   UNL     1      48.035   7.747  14.023  0.00  0.00    +0.000 C 
ATOM     10  N   UNL     1      47.332   8.726  14.656  0.00  0.00    +0.000 N 
ATOM     11  O   UNL     1      49.236   7.853  13.791  0.00  0.00    +0.000 OA
ATOM     12  H   UNL     1      46.338   8.604  14.820  0.00  0.00    +0.000 HD
ATOM     13  H   UNL     1      47.802   9.575  14.930  0.00  0.00    +0.000 HD
ENDBRANCH   6   9
ENDBRANCH   1   3
BRANCH   1  14
ATOM     14  C   UNL     1      43.959   3.330  11.629  0.00  0.00    +0.000 C 
BRANCH  14  15
ATOM     15  C   UNL     1      43.928   2.363  10.441  0.00  0.00    +0.000 C 
BRANCH  15  20
ATOM     16  C   UNL     1      46.556   2.193   7.650  0.00  0.00    +0.000 A 
ATOM     17  C   UNL     1      46.682   3.548   7.323  0.00  0.00    +0.000 A 
ATOM     18  C   UNL     1      45.958   4.513   8.022  0.00  0.00    +0.000 A 
ATOM     19  C   UNL     1      45.090   4.137   9.049  0.00  0.00    +0.000 A 
ATOM     20  C   UNL     1      44.938   2.788   9.392  0.00  0.00    +0.000 A 
ATOM     21  C   UNL     1      45.683   1.826   8.691  0.00  0.00    +0.000 A 
BRANCH  16  22
ATOM     22  C   UNL     1      47.350   1.149   6.905  0.00  0.00    +0.000 C 
BRANCH  22  23
ATOM     23  N   UNL     1      48.359   1.754   6.044  0.00  0.00    +0.000 NA
ATOM     24  H   UNL     1      49.207   1.191   6.078  0.00  0.00    +0.000 HD
ATOM     25  H   UNL     1      48.606   2.667   6.425  0.00  0.00    +0.000 HD
ENDBRANCH  22  23
ENDBRANCH  16  22
ENDBRANCH  15  20
ENDBRANCH  14  15
ENDBRANCH   1  14
TORSDOF 7
ENDMDL
MODEL 4
REMARK VINA RESULT:    -7.019      1.481      1.847
REMARK INTER + INTRA:         -10.495
REMARK INTER:                 -10.050
REMARK INTRA:                  -0.444
REMARK UNBOUND:                -0.808
REMARK  Name = 
REMARK  7 active torsions:
REMARK  status: ('A' for Active; 'I' for Inactive)
REMARK    1  A    between atoms: N_1  and  C_2
REMARK    2  A    between atoms: C_2  and  C_3
REMARK    3  A    between atoms: C_7  and  C_8
REMARK    4  A    between atoms: C_8  and  C_9
REMARK    5  A    between atoms: C_9  and  N_10
REMARK    6  A    between atoms: N_10  and  C_11
REMARK    7  A    between atoms: C_14  and  C_15
REMARK                            x       y       z     vdW  Elec       q    Type
REMARK                         _______ _______ _______ _____ _____    ______ ____
ROOT
ATOM      1  N   UNL     1      43.536   3.722  10.505  0.00  0.00    +0.000 N 
ATOM      2  H   UNL     1      43.297   4.709  10.435  0.00  0.00    +0.000 HD
ENDROOT
BRANCH   1   3
ATOM      3  C   UNL     1      44.511   3.355   9.550  0.00  0.00    +0.000 A 
ATOM      4  C   UNL     1      44.952   2.035   9.397  0.00  0.00    +0.000 A 
ATOM      5  C   UNL     1      45.903   1.702   8.438  0.00  0.00    +0.000 A 
ATOM      6  C   UNL     1      46.366   2.701   7.603  0.00  0.00    +0.000 A 
ATOM      7  N   UNL     1      45.931   3.991   7.651  0.00  0.00    +0.000 NA
ATOM      8  C   UNL     1      45.005   4.269   8.608  0.00  0.00    +0.000 A 
BRANCH   6   9
ATOM      9  C   UNL     1      47.405   2.357   6.572  0.00  0.00    +0.000 C 
ATOM     10  N   UNL     1      47.409   3.143   5.460  0.00  0.00    +0.000 N 
ATOM     11  O   UNL     1      48.199   1.432   6.720  0.00  0.00    +0.000 OA
ATOM     12  H   UNL     1      46.729   3.890   5.372  0.00  0.00    +0.000 HD
ATOM     13  H   UNL     1      48.071   2.954   4.724  0.00  0.00    +0.000 HD
ENDBRANCH   6   9
ENDBRANCH   1   3
BRANCH   1  14
ATOM     14  C   UNL     1      43.838   3.310  11.888  0.00  0.00    +0.000 C 
BRANCH  14  15
ATOM     15  C   UNL     1      43.584   4.422  12.912  0.00  0.00    +0.000 C 
BRANCH  15  20
ATOM     16  C   UNL     1      46.811   6.485  13.142  0.00  0.00    +0.000 A 
ATOM     17  C   UNL     1      46.522   7.528  12.254  0.00  0.00    +0.000 A 
ATOM     18  C   UNL     1      45.283   7.589  11.617  0.00  0.00    +0.000 A 
ATOM     19  C   UNL     1      44.321   6.604  11.849  0.00  0.00    +0.000 A 
ATOM     20  C   UNL     1      44.586   5.545  12.726  0.00  0.00    +0.000 A 
ATOM     21  C   UNL     1      45.832   5.501  13.374  0.00  0.00    +0.000 A 
BRANCH  16  22
ATOM     22  C   UNL     1      48.145   6.426  13.844  0.00  0.00    +0.000 C 
BRANCH  22  23
ATOM     23  N   UNL     1      49.253   6.499  12.899  0.00  0.00    +0.000 NA
ATOM     24  H   UNL     1      49.107   7.291  12.276  0.00  0.00    +0.000 HD
ATOM     25  H   UNL     1      49.236   5.666  12.313  0.00  0.00    +0.000 HD
ENDBRANCH  22  23
ENDBRANCH  16  22
ENDBRANCH  15  20
ENDBRANCH  14  15
ENDBRANCH   1  14
TORSDOF 7
ENDMDL
MODEL 5
REMARK VINA RESULT:    -6.094      4.057      7.779
REMARK INTER + INTRA:          -9.218
REMARK INTER:                  -8.821
REMARK INTRA:                  -0.396
REMARK UNBOUND:                -0.808
REMARK  Name = 
REMARK  7 active torsions:
REMARK  status: ('A' for Active; 'I' for Inactive)
REMARK    1  A    between atoms: N_1  and  C_2
REMARK    2  A    between atoms: C_2  and  C_3
REMARK    3  A    between atoms: C_7  and  C_8
REMARK    4  A    between atoms: C_8  and  C_9
REMARK    5  A    between atoms: C_9  and  N_10
REMARK    6  A    between atoms: N_10  and  C_11
REMARK    7  A    between atoms: C_14  and  C_15
REMARK                            x       y       z     vdW  Elec       q    Type
REMARK                         _______ _______ _______ _____ _____    ______ ____
ROOT
ATOM      1  N   UNL     1      47.290   4.420  16.433  0.00  0.00    +0.000 N 
ATOM      2  H   UNL     1      46.580   4.281  17.148  0.00  0.00    +0.000 HD
ENDROOT
BRANCH   1   3
ATOM      3  C   UNL     1      48.469   3.696  16.725  0.00  0.00    +0.000 A 
ATOM      4  C   UNL     1      49.441   4.171  17.613  0.00  0.00    +0.000 A 
ATOM      5  C   UNL     1      50.584   3.428  17.891  0.00  0.00    +0.000 A 
ATOM      6  C   UNL     1      50.713   2.183  17.306  0.00  0.00    +0.000 A 
ATOM      7  N   UNL     1      49.775   1.631  16.486  0.00  0.00    +0.000 NA
ATOM      8  C   UNL     1      48.678   2.396  16.241  0.00  0.00    +0.000 A 
BRANCH   6   9
ATOM      9  C   UNL     1      51.950   1.378  17.587  0.00  0.00    +0.000 C 
ATOM     10  N   UNL     1      51.736   0.144  18.123  0.00  0.00    +0.000 N 
ATOM     11  O   UNL     1      53.079   1.798  17.349  0.00  0.00    +0.000 OA
ATOM     12  H   UNL     1      50.789  -0.162  18.315  0.00  0.00    +0.000 HD
ATOM     13  H   UNL     1      52.526  -0.440  18.350  0.00  0.00    +0.000 HD
ENDBRANCH   6   9
ENDBRANCH   1   3
BRANCH   1  14
ATOM     14  C   UNL     1      46.765   4.223  15.069  0.00  0.00    +0.000 C 
BRANCH  14  15
ATOM     15  C   UNL     1      47.096   5.385  14.127  0.00  0.00    +0.000 C 
BRANCH  15  20
ATOM     16  C   UNL     1      44.616   4.112  11.490  0.00  0.00    +0.000 A 
ATOM     17  C   UNL     1      44.839   5.027  10.454  0.00  0.00    +0.000 A 
ATOM     18  C   UNL     1      45.808   6.021  10.587  0.00  0.00    +0.000 A 
ATOM     19  C   UNL     1      46.559   6.121  11.759  0.00  0.00    +0.000 A 
ATOM     20  C   UNL     1      46.352   5.225  12.815  0.00  0.00    +0.000 A 
ATOM     21  C   UNL     1      45.383   4.219  12.664  0.00  0.00    +0.000 A 
BRANCH  16  22
ATOM     22  C   UNL     1      43.580   3.026  11.341  0.00  0.00    +0.000 C 
BRANCH  22  23
ATOM     23  N   UNL     1      43.580   2.123  12.487  0.00  0.00    +0.000 NA
ATOM     24  H   UNL     1      44.542   1.928  12.756  0.00  0.00    +0.000 HD
ATOM     25  H   UNL     1      43.176   1.233  12.198  0.00  0.00    +0.000 HD
ENDBRANCH  22  23
ENDBRANCH  16  22
ENDBRANCH  15  20
ENDBRANCH  14  15
ENDBRANCH   1  14
TORSDOF 7
ENDMDL
MODEL 6
REMARK VINA RESULT:    -6.076      3.155      5.354
REMARK INTER + INTRA:          -9.193
REMARK INTER:                  -8.704
REMARK INTRA:                  -0.489
REMARK UNBOUND:                -0.808
REMARK  Name = 
REMARK  7 active torsions:
REMARK  status: ('A' for Active; 'I' for Inactive)
REMARK    1  A    between atoms: N_1  and  C_2
REMARK    2  A    between atoms: C_2  and  C_3
REMARK    3  A    between atoms: C_7  and  C_8
REMARK    4  A    between atoms: C_8  and  C_9
REMARK    5  A    between atoms: C_9  and  N_10
REMARK    6  A    between atoms: N_10  and  C_11
REMARK    7  A    between atoms: C_14  and  C_15
REMARK                            x       y       z     vdW  Elec       q    Type
REMARK                         _______ _______ _______ _____ _____    ______ ____
ROOT
ATOM      1  N   UNL     1      46.844   7.057  13.674  0.00  0.00    +0.000 N 
ATOM      2  H   UNL     1      46.747   7.951  13.197  0.00  0.00    +0.000 HD
ENDROOT
BRANCH   1   3
ATOM      3  C   UNL     1      46.129   6.035  13.010  0.00  0.00    +0.000 A 
ATOM      4  C   UNL     1      45.832   6.093  11.643  0.00  0.00    +0.000 A 
ATOM      5  C   UNL     1      45.139   5.063  11.014  0.00  0.00    +0.000 A 
ATOM      6  C   UNL     1      44.794   3.955  11.764  0.00  0.00    +0.000 A 
ATOM      7  N   UNL     1      45.110   3.802  13.080  0.00  0.00    +0.000 NA
ATOM      8  C   UNL     1      45.784   4.836  13.651  0.00  0.00    +0.000 A 
BRANCH   6   9
ATOM      9  C   UNL     1      44.032   2.842  11.099  0.00  0.00    +0.000 C 
ATOM     10  N   UNL     1      44.619   2.312   9.991  0.00  0.00    +0.000 N 
ATOM     11  O   UNL     1      42.955   2.435  11.524  0.00  0.00    +0.000 OA
ATOM     12  H   UNL     1      45.504   2.685   9.665  0.00  0.00    +0.000 HD
ATOM     13  H   UNL     1      44.151   1.574   9.488  0.00  0.00    +0.000 HD
ENDBRANCH   6   9
ENDBRANCH   1   3
BRANCH   1  14
ATOM     14  C   UNL     1      48.248   6.731  13.983  0.00  0.00    +0.000 C 
BRANCH  14  15
ATOM     15  C   UNL     1      48.719   7.315  15.318  0.00  0.00    +0.000 C 
BRANCH  15  20
ATOM     16  C   UNL     1      48.902   4.060  17.342  0.00  0.00    +0.000 A 
ATOM     17  C   UNL     1      50.244   4.071  17.740  0.00  0.00    +0.000 A 
ATOM     18  C   UNL     1      51.074   5.138  17.394  0.00  0.00    +0.000 A 
ATOM     19  C   UNL     1      50.577   6.201  16.637  0.00  0.00    +0.000 A 
ATOM     20  C   UNL     1      49.241   6.212  16.219  0.00  0.00    +0.000 A 
ATOM     21  C   UNL     1      48.411   5.140  16.585  0.00  0.00    +0.000 A 
BRANCH  16  22
ATOM     22  C   UNL     1      47.999   2.916  17.729  0.00  0.00    +0.000 C 
BRANCH  22  23
ATOM     23  N   UNL     1      46.596   3.234  17.491  0.00  0.00    +0.000 NA
ATOM     24  H   UNL     1      46.128   3.365  18.386  0.00  0.00    +0.000 HD
ATOM     25  H   UNL     1      46.151   2.430  17.049  0.00  0.00    +0.000 HD
ENDBRANCH  22  23
ENDBRANCH  16  22
ENDBRANCH  15  20
ENDBRANCH  14  15
ENDBRANCH   1  14
TORSDOF 7
ENDMDL
MODEL 7
REMARK VINA RESULT:    -5.982      3.080      7.239
REMARK INTER + INTRA:          -9.064
REMARK INTER:                  -8.618
REMARK INTRA:                  -0.446
REMARK UNBOUND:                -0.808
REMARK  Name = 
REMARK  7 active torsions:
REMARK  status: ('A' for Active; 'I' for Inactive)
REMARK    1  A    between atoms: N_1  and  C_2
REMARK    2  A    between atoms: C_2  and  C_3
REMARK    3  A    between atoms: C_7  and  C_8
REMARK    4  A    between atoms: C_8  and  C_9
REMARK    5  A    between atoms: C_9  and  N_10
REMARK    6  A    between atoms: N_10  and  C_11
REMARK    7  A    between atoms: C_14  and  C_15
REMARK                            x       y       z     vdW  Elec       q    Type
REMARK                         _______ _______ _______ _____ _____    ______ ____
ROOT
ATOM      1  N   UNL     1      46.985   6.214  12.657  0.00  0.00    +0.000 N 
ATOM      2  H   UNL     1      47.507   7.071  12.485  0.00  0.00    +0.000 HD
ENDROOT
BRANCH   1   3
ATOM      3  C   UNL     1      47.377   5.603  13.870  0.00  0.00    +0.000 A 
ATOM      4  C   UNL     1      48.112   6.281  14.849  0.00  0.00    +0.000 A 
ATOM      5  C   UNL     1      48.471   5.657  16.039  0.00  0.00    +0.000 A 
ATOM      6  C   UNL     1      48.038   4.361  16.253  0.00  0.00    +0.000 A 
ATOM      7  N   UNL     1      47.264   3.667  15.374  0.00  0.00    +0.000 NA
ATOM      8  C   UNL     1      46.943   4.317  14.224  0.00  0.00    +0.000 A 
BRANCH   6   9
ATOM      9  C   UNL     1      48.432   3.671  17.530  0.00  0.00    +0.000 C 
ATOM     10  N   UNL     1      47.731   4.044  18.636  0.00  0.00    +0.000 N 
ATOM     11  O   UNL     1      49.321   2.826  17.575  0.00  0.00    +0.000 OA
ATOM     12  H   UNL     1      47.012   4.754  18.559  0.00  0.00    +0.000 HD
ATOM     13  H   UNL     1      47.958   3.630  19.527  0.00  0.00    +0.000 HD
ENDBRANCH   6   9
ENDBRANCH   1   3
BRANCH   1  14
ATOM     14  C   UNL     1      45.531   6.397  12.497  0.00  0.00    +0.000 C 
BRANCH  14  15
ATOM     15  C   UNL     1      45.103   6.538  11.033  0.00  0.00    +0.000 C 
BRANCH  15  20
ATOM     16  C   UNL     1      45.344   3.578   8.603  0.00  0.00    +0.000 A 
ATOM     17  C   UNL     1      44.676   2.585   9.329  0.00  0.00    +0.000 A 
ATOM     18  C   UNL     1      44.116   2.876  10.573  0.00  0.00    +0.000 A 
ATOM     19  C   UNL     1      44.226   4.159  11.113  0.00  0.00    +0.000 A 
ATOM     20  C   UNL     1      44.897   5.169  10.412  0.00  0.00    +0.000 A 
ATOM     21  C   UNL     1      45.444   4.868   9.154  0.00  0.00    +0.000 A 
BRANCH  16  22
ATOM     22  C   UNL     1      45.936   3.269   7.251  0.00  0.00    +0.000 C 
BRANCH  22  23
ATOM     23  N   UNL     1      46.952   4.244   6.873  0.00  0.00    +0.000 NA
ATOM     24  H   UNL     1      47.874   3.841   7.028  0.00  0.00    +0.000 HD
ATOM     25  H   UNL     1      46.881   5.046   7.498  0.00  0.00    +0.000 HD
ENDBRANCH  22  23
ENDBRANCH  16  22
ENDBRANCH  15  20
ENDBRANCH  14  15
ENDBRANCH   1  14
TORSDOF 7
ENDMDL
MODEL 8
REMARK VINA RESULT:    -5.551      3.820      5.755
REMARK INTER + INTRA:          -8.468
REMARK INTER:                  -7.718
REMARK INTRA:                  -0.750
REMARK UNBOUND:                -0.808
REMARK  Name = 
REMARK  7 active torsions:
REMARK  status: ('A' for Active; 'I' for Inactive)
REMARK    1  A    between atoms: N_1  and  C_2
REMARK    2  A    between atoms: C_2  and  C_3
REMARK    3  A    between atoms: C_7  and  C_8
REMARK    4  A    between atoms: C_8  and  C_9
REMARK    5  A    between atoms: C_9  and  N_10
REMARK    6  A    between atoms: N_10  and  C_11
REMARK    7  A    between atoms: C_14  and  C_15
REMARK                            x       y       z     vdW  Elec       q    Type
REMARK                         _______ _______ _______ _____ _____    ______ ____
ROOT
ATOM      1  N   UNL     1      47.409   7.273  12.619  0.00  0.00    +0.000 N 
ATOM      2  H   UNL     1      48.194   6.904  13.151  0.00  0.00    +0.000 HD
ENDROOT
BRANCH   1   3
ATOM      3  C   UNL     1      46.549   6.240  12.179  0.00  0.00    +0.000 A 
ATOM      4  C   UNL     1      45.946   6.253  10.916  0.00  0.00    +0.000 A 
ATOM      5  C   UNL     1      45.115   5.215  10.506  0.00  0.00    +0.000 A 
ATOM      6  C   UNL     1      44.940   4.142  11.360  0.00  0.00    +0.000 A 
ATOM      7  N   UNL     1      45.550   4.033  12.573  0.00  0.00    +0.000 NA
ATOM      8  C   UNL     1      46.348   5.074  12.932  0.00  0.00    +0.000 A 
BRANCH   6   9
ATOM      9  C   UNL     1      44.034   3.021  10.934  0.00  0.00    +0.000 C 
ATOM     10  N   UNL     1      44.528   2.206   9.962  0.00  0.00    +0.000 N 
ATOM     11  O   UNL     1      42.924   2.847  11.428  0.00  0.00    +0.000 OA
ATOM     12  H   UNL     1      45.446   2.391   9.571  0.00  0.00    +0.000 HD
ATOM     13  H   UNL     1      43.963   1.445   9.620  0.00  0.00    +0.000 HD
ENDBRANCH   6   9
ENDBRANCH   1   3
BRANCH   1  14
ATOM     14  C   UNL     1      46.734   8.389  13.307  0.00  0.00    +0.000 C 
BRANCH  14  15
ATOM     15  C   UNL     1      47.209   9.763  12.825  0.00  0.00    +0.000 C 
BRANCH  15  20
ATOM     16  C   UNL     1      44.021  10.317  10.763  0.00  0.00    +0.000 A 
ATOM     17  C   UNL     1      44.375  11.456  10.029  0.00  0.00    +0.000 A 
ATOM     18  C   UNL     1      45.644  12.017  10.166  0.00  0.00    +0.000 A 
ATOM     19  C   UNL     1      46.572  11.456  11.046  0.00  0.00    +0.000 A 
ATOM     20  C   UNL     1      46.242  10.322  11.798  0.00  0.00    +0.000 A 
ATOM     21  C   UNL     1      44.966   9.757  11.642  0.00  0.00    +0.000 A 
BRANCH  16  22
ATOM     22  C   UNL     1      42.654   9.699  10.604  0.00  0.00    +0.000 C 
BRANCH  22  23
ATOM     23  N   UNL     1      42.662   8.281  10.945  0.00  0.00    +0.000 NA
ATOM     24  H   UNL     1      43.201   7.774  10.246  0.00  0.00    +0.000 HD
ATOM     25  H   UNL     1      41.709   7.927  10.884  0.00  0.00    +0.000 HD
ENDBRANCH  22  23
ENDBRANCH  16  22
ENDBRANCH  15  20
ENDBRANCH  14  15
ENDBRANCH   1  14
TORSDOF 7
ENDMDL
MODEL 9
REMARK VINA RESULT:    -5.507      3.132      5.512
REMARK INTER + INTRA:          -8.408
REMARK INTER:                  -7.776
REMARK INTRA:                  -0.633
REMARK UNBOUND:                -0.808
REMARK  Name = 
REMARK  7 active torsions:
REMARK  status: ('A' for Active; 'I' for Inactive)
REMARK    1  A    between atoms: N_1  and  C_2
REMARK    2  A    between atoms: C_2  and  C_3
REMARK    3  A    between atoms: C_7  and  C_8
REMARK    4  A    between atoms: C_8  and  C_9
REMARK    5  A    between atoms: C_9  and  N_10
REMARK    6  A    between atoms: N_10  and  C_11
REMARK    7  A    between atoms: C_14  and  C_15
REMARK                            x       y       z     vdW  Elec       q    Type
REMARK                         _______ _______ _______ _____ _____    ______ ____
ROOT
ATOM      1  N   UNL     1      47.260   7.119  13.821  0.00  0.00    +0.000 N 
ATOM      2  H   UNL     1      47.087   8.054  13.456  0.00  0.00    +0.000 HD
ENDROOT
BRANCH   1   3
ATOM      3  C   UNL     1      46.529   6.141  13.109  0.00  0.00    +0.000 A 
ATOM      4  C   UNL     1      46.232   4.885  13.651  0.00  0.00    +0.000 A 
ATOM      5  C   UNL     1      45.498   3.947  12.930  0.00  0.00    +0.000 A 
ATOM      6  C   UNL     1      45.025   4.307  11.682  0.00  0.00    +0.000 A 
ATOM      7  N   UNL     1      45.219   5.534  11.124  0.00  0.00    +0.000 NA
ATOM      8  C   UNL     1      45.945   6.414  11.864  0.00  0.00    +0.000 A 
BRANCH   6   9
ATOM      9  C   UNL     1      44.244   3.297  10.888  0.00  0.00    +0.000 C 
ATOM     10  N   UNL     1      43.522   2.407  11.624  0.00  0.00    +0.000 N 
ATOM     11  O   UNL     1      44.250   3.276   9.661  0.00  0.00    +0.000 OA
ATOM     12  H   UNL     1      43.552   2.452  12.636  0.00  0.00    +0.000 HD
ATOM     13  H   UNL     1      42.988   1.694  11.152  0.00  0.00    +0.000 HD
ENDBRANCH   6   9
ENDBRANCH   1   3
BRANCH   1  14
ATOM     14  C   UNL     1      48.697   6.829  13.974  0.00  0.00    +0.000 C 
BRANCH  14  15
ATOM     15  C   UNL     1      49.299   7.439  15.244  0.00  0.00    +0.000 C 
BRANCH  15  20
ATOM     16  C   UNL     1      48.177   4.643  17.621  0.00  0.00    +0.000 A 
ATOM     17  C   UNL     1      47.944   5.371  18.794  0.00  0.00    +0.000 A 
ATOM     18  C   UNL     1      48.107   6.756  18.809  0.00  0.00    +0.000 A 
ATOM     19  C   UNL     1      48.515   7.431  17.657  0.00  0.00    +0.000 A 
ATOM     20  C   UNL     1      48.764   6.726  16.472  0.00  0.00    +0.000 A 
ATOM     21  C   UNL     1      48.583   5.334  16.464  0.00  0.00    +0.000 A 
BRANCH  16  22
ATOM     22  C   UNL     1      47.986   3.147  17.598  0.00  0.00    +0.000 C 
BRANCH  22  23
ATOM     23  N   UNL     1      46.582   2.782  17.753  0.00  0.00    +0.000 NA
ATOM     24  H   UNL     1      46.001   3.556  17.439  0.00  0.00    +0.000 HD
ATOM     25  H   UNL     1      46.386   2.660  18.746  0.00  0.00    +0.000 HD
ENDBRANCH  22  23
ENDBRANCH  16  22
ENDBRANCH  15  20
ENDBRANCH  14  15
ENDBRANCH   1  14
TORSDOF 7
ENDMDL
