MODEL 1
REMARK VINA RESULT:    -7.553      0.000      0.000
REMARK INTER + INTRA:         -10.521
REMARK INTER:                  -9.760
REMARK INTRA:                  -0.761
REMARK UNBOUND:                -0.761
REMARK  Name = 
REMARK  6 active torsions:
REMARK  status: ('A' for Active; 'I' for Inactive)
REMARK    1  A    between atoms: C_1  and  O_2
REMARK    2  A    between atoms: O_2  and  C_3
REMARK    3  A    between atoms: C_7  and  N_8
REMARK    4  A    between atoms: N_8  and  C_9
REMARK    5  A    between atoms: C_9  and  C_10
REMARK    6  A    between atoms: C_14  and  C_15
REMARK                            x       y       z     vdW  Elec       q    Type
REMARK                         _______ _______ _______ _____ _____    ______ ____
ROOT
ATOM      1  C   UNL     1      44.059   5.087  11.757  0.00  0.00    +0.000 C 
ATOM      2  C   UNL     1      42.836   5.359  12.629  0.00  0.00    +0.000 C 
ATOM      3  C   UNL     1      43.093   6.214  11.438  0.00  0.00    +0.000 C 
ENDROOT
BRANCH   1   4
ATOM      4  C   UNL     1      45.433   5.509  12.275  0.00  0.00    +0.000 A 
ATOM      5  C   UNL     1      46.192   6.499  11.629  0.00  0.00    +0.000 A 
ATOM      6  C   UNL     1      47.404   6.945  12.148  0.00  0.00    +0.000 A 
ATOM      7  C   UNL     1      47.888   6.410  13.341  0.00  0.00    +0.000 A 
ATOM      8  C   UNL     1      47.178   5.415  14.031  0.00  0.00    +0.000 A 
ATOM      9  C   UNL     1      45.968   4.967  13.459  0.00  0.00    +0.000 A 
BRANCH   8  10
ATOM     10  C   UNL     1      47.641   4.891  15.332  0.00  0.00    +0.000 A 
ATOM     11  C   UNL     1      47.320   3.602  15.780  0.00  0.00    +0.000 A 
ATOM     12  C   UNL     1      47.733   3.161  17.037  0.00  0.00    +0.000 A 
ATOM     13  C   UNL     1      48.479   4.020  17.822  0.00  0.00    +0.000 A 
ATOM     14  N   UNL     1      48.825   5.265  17.441  0.00  0.00    +0.000 NA
ATOM     15  C   UNL     1      48.395   5.666  16.217  0.00  0.00    +0.000 A 
ENDBRANCH   8  10
ENDBRANCH   1   4
BRANCH   1  16
ATOM     16  N   UNL     1      44.020   3.774  11.081  0.00  0.00    +0.000 N 
ATOM     17  H   UNL     1      43.973   2.972  11.709  0.00  0.00    +0.000 HD
BRANCH  16  22
ATOM     18  C   UNL     1      45.895   1.992   8.390  0.00  0.00    +0.000 A 
ATOM     19  C   UNL     1      46.051   3.062   7.519  0.00  0.00    +0.000 A 
ATOM     20  N   UNL     1      45.566   4.300   7.754  0.00  0.00    +0.000 NA
ATOM     21  C   UNL     1      44.896   4.464   8.923  0.00  0.00    +0.000 A 
ATOM     22  C   UNL     1      44.670   3.463   9.874  0.00  0.00    +0.000 A 
ATOM     23  C   UNL     1      45.235   2.220   9.599  0.00  0.00    +0.000 A 
BRANCH  18  25
ATOM     24  C   UNL     1      47.457   0.899   7.026  0.00  0.00    +0.000 C 
ATOM     25  O   UNL     1      46.438   0.795   8.019  0.00  0.00    +0.000 OA
ENDBRANCH  18  25
ENDBRANCH  16  22
ENDBRANCH   1  16
TORSDOF 5
ENDMDL
MODEL 2
REMARK VINA RESULT:    -7.523      2.402      7.382
REMARK INTER + INTRA:         -10.483
REMARK INTER:                  -9.536
REMARK INTRA:                  -0.947
REMARK UNBOUND:                -0.761
REMARK  Name = 
REMARK  6 active torsions:
REMARK  status: ('A' for Active; 'I' for Inactive)
REMARK    1  A    between atoms: C_1  and  O_2
REMARK    2  A    between atoms: O_2  and  C_3
REMARK    3  A    between atoms: C_7  and  N_8
REMARK    4  A    between atoms: N_8  and  C_9
REMARK    5  A    between atoms: C_9  and  C_10
REMARK    6  A    between atoms: C_14  and  C_15
REMARK                            x       y       z     vdW  Elec       q    Type
REMARK                         _______ _______ _______ _____ _____    ______ ____
ROOT
ATOM      1  C   UNL     1      45.426   6.016  11.879  0.00  0.00    +0.000 C 
ATOM      2  C   UNL     1      44.887   7.318  11.290  0.00  0.00    +0.000 C 
ATOM      3  C   UNL     1      44.293   6.777  12.543  0.00  0.00    +0.000 C 
ENDROOT
BRANCH   1   4
ATOM      4  C   UNL     1      45.044   4.699  11.205  0.00  0.00    +0.000 A 
ATOM      5  C   UNL     1      43.947   3.939  11.645  0.00  0.00    +0.000 A 
ATOM      6  C   UNL     1      43.547   2.783  10.979  0.00  0.00    +0.000 A 
ATOM      7  C   UNL     1      44.236   2.361   9.845  0.00  0.00    +0.000 A 
ATOM      8  C   UNL     1      45.342   3.076   9.359  0.00  0.00    +0.000 A 
ATOM      9  C   UNL     1      45.737   4.225  10.077  0.00  0.00    +0.000 A 
BRANCH   8  10
ATOM     10  C   UNL     1      46.038   2.682   8.116  0.00  0.00    +0.000 A 
ATOM     11  C   UNL     1      46.186   3.554   7.029  0.00  0.00    +0.000 A 
ATOM     12  C   UNL     1      46.804   3.130   5.854  0.00  0.00    +0.000 A 
ATOM     13  C   UNL     1      47.281   1.833   5.794  0.00  0.00    +0.000 A 
ATOM     14  N   UNL     1      47.174   0.954   6.809  0.00  0.00    +0.000 NA
ATOM     15  C   UNL     1      46.556   1.397   7.933  0.00  0.00    +0.000 A 
ENDBRANCH   8  10
ENDBRANCH   1   4
BRANCH   1  16
ATOM     16  N   UNL     1      46.832   6.108  12.323  0.00  0.00    +0.000 N 
ATOM     17  H   UNL     1      47.523   5.938  11.594  0.00  0.00    +0.000 HD
BRANCH  16  22
ATOM     18  C   UNL     1      47.258   4.432  15.631  0.00  0.00    +0.000 A 
ATOM     19  C   UNL     1      48.251   5.258  16.142  0.00  0.00    +0.000 A 
ATOM     20  N   UNL     1      48.789   6.295  15.466  0.00  0.00    +0.000 NA
ATOM     21  C   UNL     1      48.298   6.510  14.218  0.00  0.00    +0.000 A 
ATOM     22  C   UNL     1      47.306   5.743  13.596  0.00  0.00    +0.000 A 
ATOM     23  C   UNL     1      46.757   4.718  14.361  0.00  0.00    +0.000 A 
BRANCH  18  25
ATOM     24  C   UNL     1      47.802   2.886  17.307  0.00  0.00    +0.000 C 
ATOM     25  O   UNL     1      46.810   3.419  16.430  0.00  0.00    +0.000 OA
ENDBRANCH  18  25
ENDBRANCH  16  22
ENDBRANCH   1  16
TORSDOF 5
ENDMDL
MODEL 3
REMARK VINA RESULT:    -7.447      2.452      3.821
REMARK INTER + INTRA:         -10.385
REMARK INTER:                  -9.672
REMARK INTRA:                  -0.713
REMARK UNBOUND:                -0.761
REMARK  Name = 
REMARK  6 active torsions:
REMARK  status: ('A' for Active; 'I' for Inactive)
REMARK    1  A    between atoms: C_1  and  O_2
REMARK    2  A    between atoms: O_2  and  C_3
REMARK    3  A    between atoms: C_7  and  N_8
REMARK    4  A    between atoms: N_8  and  C_9
REMARK    5  A    between atoms: C_9  and  C_10
REMARK    6  A    between atoms: C_14  and  C_15
REMARK                            x       y       z     vdW  Elec       q    Type
REMARK                         _______ _______ _______ _____ _____    ______ ____
ROOT
ATOM      1  C   UNL     1      43.677   5.399  11.178  0.00  0.00    +0.000 C 
ATOM      2  C   UNL     1      42.491   4.728  11.867  0.00  0.00    +0.000 C 
ATOM      3  C   UNL     1      42.516   6.210  11.726  0.00  0.00    +0.000 C 
ENDROOT
BRANCH   1   4
ATOM      4  C   UNL     1      44.994   5.514  11.943  0.00  0.00    +0.000 A 
ATOM      5  C   UNL     1      45.427   4.504  12.821  0.00  0.00    +0.000 A 
ATOM      6  C   UNL     1      46.665   4.568  13.452  0.00  0.00    +0.000 A 
ATOM      7  C   UNL     1      47.512   5.648  13.215  0.00  0.00    +0.000 A 
ATOM      8  C   UNL     1      47.135   6.690  12.353  0.00  0.00    +0.000 A 
ATOM      9  C   UNL     1      45.860   6.606  11.754  0.00  0.00    +0.000 A 
BRANCH   8  10
ATOM     10  C   UNL     1      48.051   7.805  12.034  0.00  0.00    +0.000 A 
ATOM     11  C   UNL     1      49.401   7.602  11.718  0.00  0.00    +0.000 A 
ATOM     12  C   UNL     1      50.247   8.683  11.472  0.00  0.00    +0.000 A 
ATOM     13  C   UNL     1      49.716   9.958  11.533  0.00  0.00    +0.000 A 
ATOM     14  N   UNL     1      48.425  10.214  11.823  0.00  0.00    +0.000 NA
ATOM     15  C   UNL     1      47.634   9.139  12.068  0.00  0.00    +0.000 A 
ENDBRANCH   8  10
ENDBRANCH   1   4
BRANCH   1  16
ATOM     16  N   UNL     1      43.810   5.041   9.752  0.00  0.00    +0.000 N 
ATOM     17  H   UNL     1      42.964   5.168   9.199  0.00  0.00    +0.000 HD
BRANCH  16  22
ATOM     18  C   UNL     1      46.409   3.142   7.862  0.00  0.00    +0.000 A 
ATOM     19  C   UNL     1      46.017   1.860   8.224  0.00  0.00    +0.000 A 
ATOM     20  N   UNL     1      44.984   1.595   9.053  0.00  0.00    +0.000 NA
ATOM     21  C   UNL     1      44.316   2.675   9.533  0.00  0.00    +0.000 A 
ATOM     22  C   UNL     1      44.621   4.010   9.246  0.00  0.00    +0.000 A 
ATOM     23  C   UNL     1      45.666   4.218   8.349  0.00  0.00    +0.000 A 
BRANCH  18  25
ATOM     24  C   UNL     1      48.032   2.010   6.605  0.00  0.00    +0.000 C 
ATOM     25  O   UNL     1      47.476   3.257   7.017  0.00  0.00    +0.000 OA
ENDBRANCH  18  25
ENDBRANCH  16  22
ENDBRANCH   1  16
TORSDOF 5
ENDMDL
MODEL 4
REMARK VINA RESULT:    -7.385      2.440      7.154
REMARK INTER + INTRA:         -10.305
REMARK INTER:                  -9.303
REMARK INTRA:                  -1.001
REMARK UNBOUND:                -0.761
REMARK  Name = 
REMARK  6 active torsions:
REMARK  status: ('A' for Active; 'I' for Inactive)
REMARK    1  A    between atoms: C_1  and  O_2
REMARK    2  A    between atoms: O_2  and  C_3
REMARK    3  A    between atoms: C_7  and  N_8
REMARK    4  A    between atoms: N_8  and  C_9
REMARK    5  A    between atoms: C_9  and  C_10
REMARK    6  A    between atoms: C_14  and  C_15
REMARK                            x       y       z     vdW  Elec       q    Type
REMARK                         _______ _______ _______ _____ _____    ______ ____
ROOT
ATOM      1  C   UNL     1      46.245   7.366  12.322  0.00  0.00    +0.000 C 
ATOM      2  C   UNL     1      46.320   8.793  11.784  0.00  0.00    +0.000 C 
ATOM      3  C   UNL     1      45.554   8.517  13.030  0.00  0.00    +0.000 C 
ENDROOT
BRANCH   1   4
ATOM      4  C   UNL     1      45.330   6.368  11.616  0.00  0.00    +0.000 A 
ATOM      5  C   UNL     1      43.932   6.423  11.755  0.00  0.00    +0.000 A 
ATOM      6  C   UNL     1      43.093   5.569  11.046  0.00  0.00    +0.000 A 
ATOM      7  C   UNL     1      43.636   4.634  10.166  0.00  0.00    +0.000 A 
ATOM      8  C   UNL     1      45.024   4.528   9.986  0.00  0.00    +0.000 A 
ATOM      9  C   UNL     1      45.844   5.390  10.745  0.00  0.00    +0.000 A 
BRANCH   8  10
ATOM     10  C   UNL     1      45.611   3.593   9.004  0.00  0.00    +0.000 A 
ATOM     11  C   UNL     1      46.228   4.032   7.824  0.00  0.00    +0.000 A 
ATOM     12  C   UNL     1      46.725   3.117   6.896  0.00  0.00    +0.000 A 
ATOM     13  C   UNL     1      46.609   1.768   7.177  0.00  0.00    +0.000 A 
ATOM     14  N   UNL     1      46.036   1.288   8.298  0.00  0.00    +0.000 NA
ATOM     15  C   UNL     1      45.552   2.206   9.173  0.00  0.00    +0.000 A 
ENDBRANCH   8  10
ENDBRANCH   1   4
BRANCH   1  16
ATOM     16  N   UNL     1      47.554   6.827  12.744  0.00  0.00    +0.000 N 
ATOM     17  H   UNL     1      48.105   6.408  11.995  0.00  0.00    +0.000 HD
BRANCH  16  22
ATOM     18  C   UNL     1      47.461   4.604  15.741  0.00  0.00    +0.000 A 
ATOM     19  C   UNL     1      48.365   5.303  16.531  0.00  0.00    +0.000 A 
ATOM     20  N   UNL     1      49.003   6.424  16.132  0.00  0.00    +0.000 NA
ATOM     21  C   UNL     1      48.711   6.860  14.879  0.00  0.00    +0.000 A 
ATOM     22  C   UNL     1      47.826   6.239  13.992  0.00  0.00    +0.000 A 
ATOM     23  C   UNL     1      47.163   5.115  14.477  0.00  0.00    +0.000 A 
BRANCH  18  25
ATOM     24  C   UNL     1      47.669   2.872  17.307  0.00  0.00    +0.000 C 
ATOM     25  O   UNL     1      46.894   3.484  16.278  0.00  0.00    +0.000 OA
ENDBRANCH  18  25
ENDBRANCH  16  22
ENDBRANCH   1  16
TORSDOF 5
ENDMDL
MODEL 5
REMARK VINA RESULT:    -7.147      3.936      7.400
REMARK INTER + INTRA:          -9.997
REMARK INTER:                  -8.964
REMARK INTRA:                  -1.033
REMARK UNBOUND:                -0.761
REMARK  Name = 
REMARK  6 active torsions:
REMARK  status: ('A' for Active; 'I' for Inactive)
REMARK    1  A    between atoms: C_1  and  O_2
REMARK    2  A    between atoms: O_2  and  C_3
REMARK    3  A    between atoms: C_7  and  N_8
REMARK    4  A    between atoms: N_8  and  C_9
REMARK    5  A    between atoms: C_9  and  C_10
REMARK    6  A    between atoms: C_14  and  C_15
REMARK                            x       y       z     vdW  Elec       q    Type
REMARK                         _______ _______ _______ _____ _____    ______ ____
ROOT
ATOM      1  C   UNL     1      45.870   7.364  12.228  0.00  0.00    +0.000 C 
ATOM      2  C   UNL     1      46.917   7.009  13.281  0.00  0.00    +0.000 C 
ATOM      3  C   UNL     1      47.354   7.410  11.915  0.00  0.00    +0.000 C 
ENDROOT
BRANCH   1   4
ATOM      4  C   UNL     1      45.082   6.231  11.573  0.00  0.00    +0.000 A 
ATOM      5  C   UNL     1      43.712   6.045  11.825  0.00  0.00    +0.000 A 
ATOM      6  C   UNL     1      42.974   5.066  11.165  0.00  0.00    +0.000 A 
ATOM      7  C   UNL     1      43.593   4.247  10.223  0.00  0.00    +0.000 A 
ATOM      8  C   UNL     1      44.960   4.381   9.931  0.00  0.00    +0.000 A 
ATOM      9  C   UNL     1      45.681   5.363  10.642  0.00  0.00    +0.000 A 
BRANCH   8  10
ATOM     10  C   UNL     1      45.614   3.569   8.884  0.00  0.00    +0.000 A 
ATOM     11  C   UNL     1      46.193   4.140   7.742  0.00  0.00    +0.000 A 
ATOM     12  C   UNL     1      46.756   3.338   6.751  0.00  0.00    +0.000 A 
ATOM     13  C   UNL     1      46.744   1.967   6.930  0.00  0.00    +0.000 A 
ATOM     14  N   UNL     1      46.211   1.363   8.010  0.00  0.00    +0.000 NA
ATOM     15  C   UNL     1      45.660   2.173   8.948  0.00  0.00    +0.000 A 
ENDBRANCH   8  10
ENDBRANCH   1   4
BRANCH   1  16
ATOM     16  N   UNL     1      45.078   8.564  12.565  0.00  0.00    +0.000 N 
ATOM     17  H   UNL     1      44.290   8.394  13.189  0.00  0.00    +0.000 HD
BRANCH  16  22
ATOM     18  C   UNL     1      43.792  10.725   9.807  0.00  0.00    +0.000 A 
ATOM     19  C   UNL     1      44.623  11.819  10.012  0.00  0.00    +0.000 A 
ATOM     20  N   UNL     1      45.544  11.890  10.996  0.00  0.00    +0.000 NA
ATOM     21  C   UNL     1      45.631  10.805  11.808  0.00  0.00    +0.000 A 
ATOM     22  C   UNL     1      44.845   9.652  11.705  0.00  0.00    +0.000 A 
ATOM     23  C   UNL     1      43.947   9.618  10.642  0.00  0.00    +0.000 A 
BRANCH  18  25
ATOM     24  C   UNL     1      43.512  10.978   7.493  0.00  0.00    +0.000 C 
ATOM     25  O   UNL     1      42.905  10.796   8.771  0.00  0.00    +0.000 OA
ENDBRANCH  18  25
ENDBRANCH  16  22
ENDBRANCH   1  16
TORSDOF 5
ENDMDL
MODEL 6
REMARK VINA RESULT:    -6.365      3.041      7.603
REMARK INTER + INTRA:          -8.987
REMARK INTER:                  -8.060
REMARK INTRA:                  -0.927
REMARK UNBOUND:                -0.761
REMARK  Name = 
REMARK  6 active torsions:
REMARK  status: ('A' for Active; 'I' for Inactive)
REMARK    1  A    between atoms: C_1  and  O_2
REMARK    2  A    between atoms: O_2  and  C_3
REMARK    3  A    between atoms: C_7  and  N_8
REMARK    4  A    between atoms: N_8  and  C_9
REMARK    5  A    between atoms: C_9  and  C_10
REMARK    6  A    between atoms: C_14  and  C_15
REMARK                            x       y       z     vdW  Elec       q    Type
REMARK                         _______ _______ _______ _____ _____    ______ ____
ROOT
ATOM      1  C   UNL     1      48.078   7.502  13.725  0.00  0.00    +0.000 C 
ATOM      2  C   UNL     1      49.196   8.407  13.212  0.00  0.00    +0.000 C 
ATOM      3  C   UNL     1      48.369   8.844  14.371  0.00  0.00    +0.000 C 
ENDROOT
BRANCH   1   4
ATOM      4  C   UNL     1      46.784   7.413  12.918  0.00  0.00    +0.000 A 
ATOM      5  C   UNL     1      45.899   8.501  12.823  0.00  0.00    +0.000 A 
ATOM      6  C   UNL     1      44.764   8.451  12.019  0.00  0.00    +0.000 A 
ATOM      7  C   UNL     1      44.487   7.303  11.279  0.00  0.00    +0.000 A 
ATOM      8  C   UNL     1      45.331   6.183  11.335  0.00  0.00    +0.000 A 
ATOM      9  C   UNL     1      46.456   6.259  12.183  0.00  0.00    +0.000 A 
BRANCH   8  10
ATOM     10  C   UNL     1      45.091   4.987  10.500  0.00  0.00    +0.000 A 
ATOM     11  C   UNL     1      45.571   4.877   9.188  0.00  0.00    +0.000 A 
ATOM     12  C   UNL     1      45.281   3.754   8.414  0.00  0.00    +0.000 A 
ATOM     13  C   UNL     1      44.522   2.746   8.979  0.00  0.00    +0.000 A 
ATOM     14  N   UNL     1      44.042   2.792  10.237  0.00  0.00    +0.000 NA
ATOM     15  C   UNL     1      44.333   3.904  10.957  0.00  0.00    +0.000 A 
ENDBRANCH   8  10
ENDBRANCH   1   4
BRANCH   1  16
ATOM     16  N   UNL     1      48.564   6.219  14.273  0.00  0.00    +0.000 N 
ATOM     17  H   UNL     1      48.827   5.528  13.572  0.00  0.00    +0.000 HD
BRANCH  16  22
ATOM     18  C   UNL     1      48.063   5.350  17.868  0.00  0.00    +0.000 A 
ATOM     19  C   UNL     1      47.250   4.238  17.689  0.00  0.00    +0.000 A 
ATOM     20  N   UNL     1      46.851   3.785  16.481  0.00  0.00    +0.000 NA
ATOM     21  C   UNL     1      47.296   4.485  15.407  0.00  0.00    +0.000 A 
ATOM     22  C   UNL     1      48.111   5.621  15.462  0.00  0.00    +0.000 A 
ATOM     23  C   UNL     1      48.528   6.012  16.731  0.00  0.00    +0.000 A 
BRANCH  18  25
ATOM     24  C   UNL     1      48.704   4.585  19.989  0.00  0.00    +0.000 C 
ATOM     25  O   UNL     1      48.384   5.693  19.151  0.00  0.00    +0.000 OA
ENDBRANCH  18  25
ENDBRANCH  16  22
ENDBRANCH   1  16
TORSDOF 5
ENDMDL
MODEL 7
REMARK VINA RESULT:    -6.361      3.550      7.401
REMARK INTER + INTRA:          -8.982
REMARK INTER:                  -8.125
REMARK INTRA:                  -0.857
REMARK UNBOUND:                -0.761
REMARK  Name = 
REMARK  6 active torsions:
REMARK  status: ('A' for Active; 'I' for Inactive)
REMARK    1  A    between atoms: C_1  and  O_2
REMARK    2  A    between atoms: O_2  and  C_3
REMARK    3  A    between atoms: C_7  and  N_8
REMARK    4  A    between atoms: N_8  and  C_9
REMARK    5  A    between atoms: C_9  and  C_10
REMARK    6  A    between atoms: C_14  and  C_15
REMARK                            x       y       z     vdW  Elec       q    Type
REMARK                         _______ _______ _______ _____ _____    ______ ____
ROOT
ATOM      1  C   UNL     1      46.148   6.399  12.873  0.00  0.00    +0.000 C 
ATOM      2  C   UNL     1      46.817   5.627  14.008  0.00  0.00    +0.000 C 
ATOM      3  C   UNL     1      47.626   6.057  12.835  0.00  0.00    +0.000 C 
ENDROOT
BRANCH   1   4
ATOM      4  C   UNL     1      45.257   5.633  11.897  0.00  0.00    +0.000 A 
ATOM      5  C   UNL     1      43.859   5.772  11.911  0.00  0.00    +0.000 A 
ATOM      6  C   UNL     1      43.053   5.141  10.968  0.00  0.00    +0.000 A 
ATOM      7  C   UNL     1      43.631   4.354   9.974  0.00  0.00    +0.000 A 
ATOM      8  C   UNL     1      45.022   4.174   9.909  0.00  0.00    +0.000 A 
ATOM      9  C   UNL     1      45.804   4.804  10.900  0.00  0.00    +0.000 A 
BRANCH   8  10
ATOM     10  C   UNL     1      45.656   3.403   8.819  0.00  0.00    +0.000 A 
ATOM     11  C   UNL     1      46.193   4.017   7.679  0.00  0.00    +0.000 A 
ATOM     12  C   UNL     1      46.738   3.252   6.648  0.00  0.00    +0.000 A 
ATOM     13  C   UNL     1      46.749   1.877   6.786  0.00  0.00    +0.000 A 
ATOM     14  N   UNL     1      46.256   1.233   7.862  0.00  0.00    +0.000 NA
ATOM     15  C   UNL     1      45.722   2.007   8.840  0.00  0.00    +0.000 A 
ENDBRANCH   8  10
ENDBRANCH   1   4
BRANCH   1  16
ATOM     16  N   UNL     1      45.635   7.722  13.284  0.00  0.00    +0.000 N 
ATOM     17  H   UNL     1      44.739   7.700  13.770  0.00  0.00    +0.000 HD
BRANCH  16  22
ATOM     18  C   UNL     1      47.186  10.670  11.600  0.00  0.00    +0.000 A 
ATOM     19  C   UNL     1      46.020  11.368  11.314  0.00  0.00    +0.000 A 
ATOM     20  N   UNL     1      44.782  10.922  11.619  0.00  0.00    +0.000 NA
ATOM     21  C   UNL     1      44.722   9.717  12.243  0.00  0.00    +0.000 A 
ATOM     22  C   UNL     1      45.823   8.921  12.575  0.00  0.00    +0.000 A 
ATOM     23  C   UNL     1      47.074   9.456  12.279  0.00  0.00    +0.000 A 
BRANCH  18  25
ATOM     24  C   UNL     1      49.508  10.408  11.417  0.00  0.00    +0.000 C 
ATOM     25  O   UNL     1      48.369  11.245  11.230  0.00  0.00    +0.000 OA
ENDBRANCH  18  25
ENDBRANCH  16  22
ENDBRANCH   1  16
TORSDOF 5
ENDMDL
MODEL 8
REMARK VINA RESULT:    -6.246      2.894      7.606
REMARK INTER + INTRA:          -8.833
REMARK INTER:                  -7.879
REMARK INTRA:                  -0.954
REMARK UNBOUND:                -0.761
REMARK  Name = 
REMARK  6 active torsions:
REMARK  status: ('A' for Active; 'I' for Inactive)
REMARK    1  A    between atoms: C_1  and  O_2
REMARK    2  A    between atoms: O_2  and  C_3
REMARK    3  A    between atoms: C_7  and  N_8
REMARK    4  A    between atoms: N_8  and  C_9
REMARK    5  A    between atoms: C_9  and  C_10
REMARK    6  A    between atoms: C_14  and  C_15
REMARK                            x       y       z     vdW  Elec       q    Type
REMARK                         _______ _______ _______ _____ _____    ______ ____
ROOT
ATOM      1  C   UNL     1      48.925   7.817  12.729  0.00  0.00    +0.000 C 
ATOM      2  C   UNL     1      49.858   8.132  11.562  0.00  0.00    +0.000 C 
ATOM      3  C   UNL     1      49.429   9.227  12.476  0.00  0.00    +0.000 C 
ENDROOT
BRANCH   1   4
ATOM      4  C   UNL     1      47.447   7.572  12.433  0.00  0.00    +0.000 A 
ATOM      5  C   UNL     1      46.459   8.505  12.792  0.00  0.00    +0.000 A 
ATOM      6  C   UNL     1      45.122   8.322  12.448  0.00  0.00    +0.000 A 
ATOM      7  C   UNL     1      44.739   7.195  11.724  0.00  0.00    +0.000 A 
ATOM      8  C   UNL     1      45.679   6.225  11.340  0.00  0.00    +0.000 A 
ATOM      9  C   UNL     1      47.019   6.429  11.733  0.00  0.00    +0.000 A 
BRANCH   8  10
ATOM     10  C   UNL     1      45.300   5.062  10.511  0.00  0.00    +0.000 A 
ATOM     11  C   UNL     1      45.593   4.989   9.141  0.00  0.00    +0.000 A 
ATOM     12  C   UNL     1      45.175   3.897   8.381  0.00  0.00    +0.000 A 
ATOM     13  C   UNL     1      44.480   2.884   9.014  0.00  0.00    +0.000 A 
ATOM     14  N   UNL     1      44.178   2.895  10.327  0.00  0.00    +0.000 NA
ATOM     15  C   UNL     1      44.589   3.978  11.034  0.00  0.00    +0.000 A 
ENDBRANCH   8  10
ENDBRANCH   1   4
BRANCH   1  16
ATOM     16  N   UNL     1      49.522   6.914  13.733  0.00  0.00    +0.000 N 
ATOM     17  H   UNL     1      49.738   5.978  13.391  0.00  0.00    +0.000 HD
BRANCH  16  22
ATOM     18  C   UNL     1      48.298   5.956  17.127  0.00  0.00    +0.000 A 
ATOM     19  C   UNL     1      48.572   7.152  17.778  0.00  0.00    +0.000 A 
ATOM     20  N   UNL     1      49.143   8.220  17.181  0.00  0.00    +0.000 NA
ATOM     21  C   UNL     1      49.447   8.074  15.866  0.00  0.00    +0.000 A 
ATOM     22  C   UNL     1      49.226   6.919  15.107  0.00  0.00    +0.000 A 
ATOM     23  C   UNL     1      48.592   5.868  15.765  0.00  0.00    +0.000 A 
BRANCH  18  25
ATOM     24  C   UNL     1      47.219   3.875  17.080  0.00  0.00    +0.000 C 
ATOM     25  O   UNL     1      47.720   4.959  17.860  0.00  0.00    +0.000 OA
ENDBRANCH  18  25
ENDBRANCH  16  22
ENDBRANCH   1  16
TORSDOF 5
ENDMDL
MODEL 9
REMARK VINA RESULT:    -6.078      1.646      2.301
REMARK INTER + INTRA:          -8.617
REMARK INTER:                  -7.582
REMARK INTRA:                  -1.035
REMARK UNBOUND:                -0.761
REMARK  Name = 
REMARK  6 active torsions:
REMARK  status: ('A' for Active; 'I' for Inactive)
REMARK    1  A    between atoms: C_1  and  O_2
REMARK    2  A    between atoms: O_2  and  C_3
REMARK    3  A    between atoms: C_7  and  N_8
REMARK    4  A    between atoms: N_8  and  C_9
REMARK    5  A    between atoms: C_9  and  C_10
REMARK    6  A    between atoms: C_14  and  C_15
REMARK                            x       y       z     vdW  Elec       q    Type
REMARK                         _______ _______ _______ _____ _____    ______ ____
ROOT
ATOM      1  C   UNL     1      45.172   7.364  11.876  0.00  0.00    +0.000 C 
ATOM      2  C   UNL     1      44.418   8.605  12.345  0.00  0.00    +0.000 C 
ATOM      3  C   UNL     1      45.109   8.620  11.026  0.00  0.00    +0.000 C 
ENDROOT
BRANCH   1   4
ATOM      4  C   UNL     1      46.526   7.051  12.510  0.00  0.00    +0.000 A 
ATOM      5  C   UNL     1      47.717   7.613  12.018  0.00  0.00    +0.000 A 
ATOM      6  C   UNL     1      48.940   7.398  12.647  0.00  0.00    +0.000 A 
ATOM      7  C   UNL     1      49.002   6.614  13.797  0.00  0.00    +0.000 A 
ATOM      8  C   UNL     1      47.848   6.022  14.334  0.00  0.00    +0.000 A 
ATOM      9  C   UNL     1      46.631   6.238  13.653  0.00  0.00    +0.000 A 
BRANCH   8  10
ATOM     10  C   UNL     1      47.885   5.249  15.593  0.00  0.00    +0.000 A 
ATOM     11  C   UNL     1      48.858   5.465  16.579  0.00  0.00    +0.000 A 
ATOM     12  C   UNL     1      48.891   4.680  17.732  0.00  0.00    +0.000 A 
ATOM     13  C   UNL     1      47.932   3.697  17.884  0.00  0.00    +0.000 A 
ATOM     14  N   UNL     1      46.968   3.450  16.975  0.00  0.00    +0.000 NA
ATOM     15  C   UNL     1      46.973   4.223  15.860  0.00  0.00    +0.000 A 
ENDBRANCH   8  10
ENDBRANCH   1   4
BRANCH   1  16
ATOM     16  N   UNL     1      44.300   6.193  11.654  0.00  0.00    +0.000 N 
ATOM     17  H   UNL     1      43.814   5.858  12.485  0.00  0.00    +0.000 HD
BRANCH  16  22
ATOM     18  C   UNL     1      45.511   4.246   8.709  0.00  0.00    +0.000 A 
ATOM     19  C   UNL     1      44.805   3.074   8.945  0.00  0.00    +0.000 A 
ATOM     20  N   UNL     1      43.991   2.887  10.006  0.00  0.00    +0.000 NA
ATOM     21  C   UNL     1      43.882   3.934  10.863  0.00  0.00    +0.000 A 
ATOM     22  C   UNL     1      44.548   5.158  10.734  0.00  0.00    +0.000 A 
ATOM     23  C   UNL     1      45.336   5.308   9.596  0.00  0.00    +0.000 A 
BRANCH  18  25
ATOM     24  C   UNL     1      46.774   3.015   7.163  0.00  0.00    +0.000 C 
ATOM     25  O   UNL     1      46.300   4.290   7.594  0.00  0.00    +0.000 OA
ENDBRANCH  18  25
ENDBRANCH  16  22
ENDBRANCH   1  16
TORSDOF 5
ENDMDL
