MODEL 1
REMARK VINA RESULT:    -8.139      0.000      0.000
REMARK INTER + INTRA:         -12.083
REMARK INTER:                 -11.470
REMARK INTRA:                  -0.613
REMARK UNBOUND:                -0.613
REMARK  Name = 
REMARK  9 active torsions:
REMARK  status: ('A' for Active; 'I' for Inactive)
REMARK    1  A    between atoms: C_1  and  C_2
REMARK    2  A    between atoms: C_5  and  N_6
REMARK    3  A    between atoms: N_6  and  C_7
REMARK    4  A    between atoms: C_7  and  C_8
REMARK    5  A    between atoms: C_8  and  C_9
REMARK    6  A    between atoms: C_13  and  N_14
REMARK    7  A    between atoms: N_14  and  C_15
REMARK    8  A    between atoms: N_17  and  C_18
REMARK    9  A    between atoms: C_22  and  C_23
REMARK                            x       y       z     vdW  Elec       q    Type
REMARK                         _______ _______ _______ _____ _____    ______ ____
ROOT
ATOM      1  C   UNL     1      43.576   4.736  10.607  0.00  0.00    +0.000 C 
ENDROOT
BRANCH   1   2
ATOM      2  N   UNL     1      44.053   4.664   9.247  0.00  0.00    +0.000 N 
ATOM      3  H   UNL     1      43.968   5.433   8.596  0.00  0.00    +0.000 HD
BRANCH   2   8
ATOM      4  C   UNL     1      46.798   0.012   7.601  0.00  0.00    +0.000 C 
ATOM      5  C   UNL     1      46.119   1.294   7.969  0.00  0.00    +0.000 A 
ATOM      6  C   UNL     1      45.072   1.287   8.882  0.00  0.00    +0.000 A 
ATOM      7  N   UNL     1      44.382   2.384   9.280  0.00  0.00    +0.000 NA
ATOM      8  C   UNL     1      44.753   3.574   8.786  0.00  0.00    +0.000 A 
ATOM      9  C   UNL     1      45.797   3.680   7.875  0.00  0.00    +0.000 A 
ATOM     10  C   UNL     1      46.473   2.537   7.440  0.00  0.00    +0.000 A 
BRANCH  10  11
ATOM     11  C   UNL     1      47.576   2.689   6.444  0.00  0.00    +0.000 C 
ATOM     12  N   UNL     1      47.247   3.158   5.203  0.00  0.00    +0.000 N 
ATOM     13  O   UNL     1      48.737   2.399   6.697  0.00  0.00    +0.000 OA
ATOM     14  H   UNL     1      46.300   3.226   4.855  0.00  0.00    +0.000 HD
ATOM     15  H   UNL     1      47.997   3.169   4.517  0.00  0.00    +0.000 HD
ENDBRANCH  10  11
ENDBRANCH   2   8
ENDBRANCH   1   2
BRANCH   1  16
ATOM     16  C   UNL     1      43.913   6.038  11.333  0.00  0.00    +0.000 C 
BRANCH  16  17
ATOM     17  C   UNL     1      45.224   5.975  12.100  0.00  0.00    +0.000 A 
ATOM     18  C   UNL     1      46.316   6.719  11.645  0.00  0.00    +0.000 A 
ATOM     19  C   UNL     1      47.535   6.679  12.333  0.00  0.00    +0.000 A 
ATOM     20  C   UNL     1      47.680   5.891  13.482  0.00  0.00    +0.000 A 
ATOM     21  C   UNL     1      46.608   5.148  13.962  0.00  0.00    +0.000 A 
ATOM     22  C   UNL     1      45.394   5.204  13.266  0.00  0.00    +0.000 A 
BRANCH  21  23
ATOM     23  N   UNL     1      46.656   4.347  15.123  0.00  0.00    +0.000 N 
ATOM     24  H   UNL     1      45.734   4.298  15.554  0.00  0.00    +0.000 HD
BRANCH  23  25
ATOM     25  C   UNL     1      47.736   4.282  16.069  0.00  0.00    +0.000 C 
ATOM     26  C   UNL     1      47.713   2.985  16.921  0.00  0.00    +0.000 C 
ATOM     27  N   UNL     1      47.970   3.795  18.138  0.00  0.00    +0.000 NA
ATOM     28  C   UNL     1      49.409   3.855  18.407  0.00  0.00    +0.000 C 
ATOM     29  C   UNL     1      47.518   5.009  17.411  0.00  0.00    +0.000 C 
ENDBRANCH  23  25
ENDBRANCH  21  23
ENDBRANCH  16  17
ENDBRANCH   1  16
TORSDOF 7
ENDMDL
MODEL 2
REMARK VINA RESULT:    -7.584      2.207      3.585
REMARK INTER + INTRA:         -11.301
REMARK INTER:                 -10.478
REMARK INTRA:                  -0.823
REMARK UNBOUND:                -0.613
REMARK  Name = 
REMARK  9 active torsions:
REMARK  status: ('A' for Active; 'I' for Inactive)
REMARK    1  A    between atoms: C_1  and  C_2
REMARK    2  A    between atoms: C_5  and  N_6
REMARK    3  A    between atoms: N_6  and  C_7
REMARK    4  A    between atoms: C_7  and  C_8
REMARK    5  A    between atoms: C_8  and  C_9
REMARK    6  A    between atoms: C_13  and  N_14
REMARK    7  A    between atoms: N_14  and  C_15
REMARK    8  A    between atoms: N_17  and  C_18
REMARK    9  A    between atoms: C_22  and  C_23
REMARK                            x       y       z     vdW  Elec       q    Type
REMARK                         _______ _______ _______ _____ _____    ______ ____
ROOT
ATOM      1  C   UNL     1      43.514   4.926  10.567  0.00  0.00    +0.000 C 
ENDROOT
BRANCH   1   2
ATOM      2  N   UNL     1      44.346   4.979   9.389  0.00  0.00    +0.000 N 
ATOM      3  H   UNL     1      44.586   5.845   8.926  0.00  0.00    +0.000 HD
BRANCH   2   8
ATOM      4  C   UNL     1      46.750   0.192   7.599  0.00  0.00    +0.000 C 
ATOM      5  C   UNL     1      46.152   1.506   7.997  0.00  0.00    +0.000 A 
ATOM      6  C   UNL     1      45.252   1.566   9.053  0.00  0.00    +0.000 A 
ATOM      7  N   UNL     1      44.645   2.696   9.491  0.00  0.00    +0.000 NA
ATOM      8  C   UNL     1      44.955   3.852   8.887  0.00  0.00    +0.000 A 
ATOM      9  C   UNL     1      45.853   3.890   7.827  0.00  0.00    +0.000 A 
ATOM     10  C   UNL     1      46.441   2.713   7.357  0.00  0.00    +0.000 A 
BRANCH  10  11
ATOM     11  C   UNL     1      47.386   2.792   6.203  0.00  0.00    +0.000 C 
ATOM     12  N   UNL     1      48.724   2.747   6.477  0.00  0.00    +0.000 N 
ATOM     13  O   UNL     1      47.005   2.910   5.047  0.00  0.00    +0.000 OA
ATOM     14  H   UNL     1      49.117   2.854   7.403  0.00  0.00    +0.000 HD
ATOM     15  H   UNL     1      49.346   2.891   5.687  0.00  0.00    +0.000 HD
ENDBRANCH  10  11
ENDBRANCH   2   8
ENDBRANCH   1   2
BRANCH   1  16
ATOM     16  C   UNL     1      43.836   5.981  11.623  0.00  0.00    +0.000 C 
BRANCH  16  17
ATOM     17  C   UNL     1      45.097   5.672  12.414  0.00  0.00    +0.000 A 
ATOM     18  C   UNL     1      45.289   4.381  12.914  0.00  0.00    +0.000 A 
ATOM     19  C   UNL     1      46.441   4.069  13.645  0.00  0.00    +0.000 A 
ATOM     20  C   UNL     1      47.415   5.044  13.892  0.00  0.00    +0.000 A 
ATOM     21  C   UNL     1      47.256   6.334  13.398  0.00  0.00    +0.000 A 
ATOM     22  C   UNL     1      46.101   6.628  12.663  0.00  0.00    +0.000 A 
BRANCH  21  23
ATOM     23  N   UNL     1      48.195   7.372  13.576  0.00  0.00    +0.000 N 
ATOM     24  H   UNL     1      47.717   8.266  13.671  0.00  0.00    +0.000 HD
BRANCH  23  25
ATOM     25  C   UNL     1      49.481   7.474  12.943  0.00  0.00    +0.000 C 
ATOM     26  C   UNL     1      50.153   8.855  13.165  0.00  0.00    +0.000 C 
ATOM     27  N   UNL     1      50.511   8.899  11.725  0.00  0.00    +0.000 NA
ATOM     28  C   UNL     1      51.859   8.361  11.526  0.00  0.00    +0.000 C 
ATOM     29  C   UNL     1      49.483   7.863  11.451  0.00  0.00    +0.000 C 
ENDBRANCH  23  25
ENDBRANCH  21  23
ENDBRANCH  16  17
ENDBRANCH   1  16
TORSDOF 7
ENDMDL
MODEL 3
REMARK VINA RESULT:    -7.329      1.696      2.053
REMARK INTER + INTRA:         -10.941
REMARK INTER:                 -10.489
REMARK INTRA:                  -0.452
REMARK UNBOUND:                -0.613
REMARK  Name = 
REMARK  9 active torsions:
REMARK  status: ('A' for Active; 'I' for Inactive)
REMARK    1  A    between atoms: C_1  and  C_2
REMARK    2  A    between atoms: C_5  and  N_6
REMARK    3  A    between atoms: N_6  and  C_7
REMARK    4  A    between atoms: C_7  and  C_8
REMARK    5  A    between atoms: C_8  and  C_9
REMARK    6  A    between atoms: C_13  and  N_14
REMARK    7  A    between atoms: N_14  and  C_15
REMARK    8  A    between atoms: N_17  and  C_18
REMARK    9  A    between atoms: C_22  and  C_23
REMARK                            x       y       z     vdW  Elec       q    Type
REMARK                         _______ _______ _______ _____ _____    ______ ____
ROOT
ATOM      1  C   UNL     1      43.669   4.987  10.522  0.00  0.00    +0.000 C 
ENDROOT
BRANCH   1   2
ATOM      2  N   UNL     1      43.931   4.761   9.121  0.00  0.00    +0.000 N 
ATOM      3  H   UNL     1      43.663   5.418   8.402  0.00  0.00    +0.000 HD
BRANCH   2   8
ATOM      4  C   UNL     1      46.849   0.162   7.627  0.00  0.00    +0.000 C 
ATOM      5  C   UNL     1      46.114   1.427   7.947  0.00  0.00    +0.000 A 
ATOM      6  C   UNL     1      45.154   1.436   8.951  0.00  0.00    +0.000 A 
ATOM      7  N   UNL     1      44.426   2.519   9.317  0.00  0.00    +0.000 NA
ATOM      8  C   UNL     1      44.665   3.681   8.692  0.00  0.00    +0.000 A 
ATOM      9  C   UNL     1      45.615   3.769   7.681  0.00  0.00    +0.000 A 
ATOM     10  C   UNL     1      46.330   2.637   7.283  0.00  0.00    +0.000 A 
BRANCH  10  11
ATOM     11  C   UNL     1      47.328   2.768   6.180  0.00  0.00    +0.000 C 
ATOM     12  N   UNL     1      48.652   2.741   6.517  0.00  0.00    +0.000 N 
ATOM     13  O   UNL     1      47.002   2.911   5.009  0.00  0.00    +0.000 OA
ATOM     14  H   UNL     1      48.998   2.829   7.464  0.00  0.00    +0.000 HD
ATOM     15  H   UNL     1      49.309   2.920   5.763  0.00  0.00    +0.000 HD
ENDBRANCH  10  11
ENDBRANCH   2   8
ENDBRANCH   1   2
BRANCH   1  16
ATOM     16  C   UNL     1      44.555   6.047  11.174  0.00  0.00    +0.000 C 
BRANCH  16  17
ATOM     17  C   UNL     1      45.555   5.468  12.162  0.00  0.00    +0.000 A 
ATOM     18  C   UNL     1      45.467   4.117  12.509  0.00  0.00    +0.000 A 
ATOM     19  C   UNL     1      46.375   3.558  13.415  0.00  0.00    +0.000 A 
ATOM     20  C   UNL     1      47.382   4.343  13.992  0.00  0.00    +0.000 A 
ATOM     21  C   UNL     1      47.500   5.687  13.658  0.00  0.00    +0.000 A 
ATOM     22  C   UNL     1      46.587   6.229  12.745  0.00  0.00    +0.000 A 
BRANCH  21  23
ATOM     23  N   UNL     1      48.496   6.546  14.169  0.00  0.00    +0.000 N 
ATOM     24  H   UNL     1      49.370   6.411  13.663  0.00  0.00    +0.000 HD
BRANCH  23  25
ATOM     25  C   UNL     1      48.681   6.910  15.547  0.00  0.00    +0.000 C 
ATOM     26  C   UNL     1      50.173   7.124  15.918  0.00  0.00    +0.000 C 
ATOM     27  N   UNL     1      49.967   6.330  17.154  0.00  0.00    +0.000 NA
ATOM     28  C   UNL     1      49.640   7.217  18.273  0.00  0.00    +0.000 C 
ATOM     29  C   UNL     1      48.734   5.751  16.562  0.00  0.00    +0.000 C 
ENDBRANCH  23  25
ENDBRANCH  21  23
ENDBRANCH  16  17
ENDBRANCH   1  16
TORSDOF 7
ENDMDL
MODEL 4
REMARK VINA RESULT:    -7.249      3.514      7.956
REMARK INTER + INTRA:         -10.828
REMARK INTER:                  -9.872
REMARK INTRA:                  -0.956
REMARK UNBOUND:                -0.613
REMARK  Name = 
REMARK  9 active torsions:
REMARK  status: ('A' for Active; 'I' for Inactive)
REMARK    1  A    between atoms: C_1  and  C_2
REMARK    2  A    between atoms: C_5  and  N_6
REMARK    3  A    between atoms: N_6  and  C_7
REMARK    4  A    between atoms: C_7  and  C_8
REMARK    5  A    between atoms: C_8  and  C_9
REMARK    6  A    between atoms: C_13  and  N_14
REMARK    7  A    between atoms: N_14  and  C_15
REMARK    8  A    between atoms: N_17  and  C_18
REMARK    9  A    between atoms: C_22  and  C_23
REMARK                            x       y       z     vdW  Elec       q    Type
REMARK                         _______ _______ _______ _____ _____    ______ ____
ROOT
ATOM      1  C   UNL     1      47.390   5.894  13.461  0.00  0.00    +0.000 C 
ENDROOT
BRANCH   1   2
ATOM      2  N   UNL     1      46.995   7.162  14.026  0.00  0.00    +0.000 N 
ATOM      3  H   UNL     1      46.920   7.317  15.022  0.00  0.00    +0.000 HD
BRANCH   2   8
ATOM      4  C   UNL     1      46.506  11.820  10.871  0.00  0.00    +0.000 C 
ATOM      5  C   UNL     1      46.543  10.566  11.688  0.00  0.00    +0.000 A 
ATOM      6  C   UNL     1      47.749  10.109  12.202  0.00  0.00    +0.000 A 
ATOM      7  N   UNL     1      47.900   8.985  12.945  0.00  0.00    +0.000 NA
ATOM      8  C   UNL     1      46.802   8.272  13.238  0.00  0.00    +0.000 A 
ATOM      9  C   UNL     1      45.550   8.659  12.775  0.00  0.00    +0.000 A 
ATOM     10  C   UNL     1      45.413   9.796  11.975  0.00  0.00    +0.000 A 
BRANCH  10  11
ATOM     11  C   UNL     1      44.054  10.168  11.480  0.00  0.00    +0.000 C 
ATOM     12  N   UNL     1      43.592   9.532  10.362  0.00  0.00    +0.000 N 
ATOM     13  O   UNL     1      43.363  11.018  12.026  0.00  0.00    +0.000 OA
ATOM     14  H   UNL     1      44.171   8.976   9.746  0.00  0.00    +0.000 HD
ATOM     15  H   UNL     1      42.705   9.863   9.995  0.00  0.00    +0.000 HD
ENDBRANCH  10  11
ENDBRANCH   2   8
ENDBRANCH   1   2
BRANCH   1  16
ATOM     16  C   UNL     1      46.521   4.710  13.881  0.00  0.00    +0.000 C 
BRANCH  16  17
ATOM     17  C   UNL     1      45.325   4.489  12.969  0.00  0.00    +0.000 A 
ATOM     18  C   UNL     1      44.189   5.286  13.130  0.00  0.00    +0.000 A 
ATOM     19  C   UNL     1      43.074   5.105  12.302  0.00  0.00    +0.000 A 
ATOM     20  C   UNL     1      43.078   4.120  11.307  0.00  0.00    +0.000 A 
ATOM     21  C   UNL     1      44.198   3.319  11.117  0.00  0.00    +0.000 A 
ATOM     22  C   UNL     1      45.307   3.518  11.949  0.00  0.00    +0.000 A 
BRANCH  21  23
ATOM     23  N   UNL     1      44.300   2.321  10.125  0.00  0.00    +0.000 N 
ATOM     24  H   UNL     1      44.639   1.451  10.535  0.00  0.00    +0.000 HD
BRANCH  23  25
ATOM     25  C   UNL     1      44.717   2.513   8.764  0.00  0.00    +0.000 C 
ATOM     26  C   UNL     1      46.080   1.841   8.450  0.00  0.00    +0.000 C 
ATOM     27  N   UNL     1      46.512   3.074   7.746  0.00  0.00    +0.000 NA
ATOM     28  C   UNL     1      46.216   2.965   6.315  0.00  0.00    +0.000 C 
ATOM     29  C   UNL     1      45.446   3.833   8.449  0.00  0.00    +0.000 C 
ENDBRANCH  23  25
ENDBRANCH  21  23
ENDBRANCH  16  17
ENDBRANCH   1  16
TORSDOF 7
ENDMDL
MODEL 5
REMARK VINA RESULT:    -7.166      2.696      3.323
REMARK INTER + INTRA:         -10.712
REMARK INTER:                 -10.370
REMARK INTRA:                  -0.341
REMARK UNBOUND:                -0.613
REMARK  Name = 
REMARK  9 active torsions:
REMARK  status: ('A' for Active; 'I' for Inactive)
REMARK    1  A    between atoms: C_1  and  C_2
REMARK    2  A    between atoms: C_5  and  N_6
REMARK    3  A    between atoms: N_6  and  C_7
REMARK    4  A    between atoms: C_7  and  C_8
REMARK    5  A    between atoms: C_8  and  C_9
REMARK    6  A    between atoms: C_13  and  N_14
REMARK    7  A    between atoms: N_14  and  C_15
REMARK    8  A    between atoms: N_17  and  C_18
REMARK    9  A    between atoms: C_22  and  C_23
REMARK                            x       y       z     vdW  Elec       q    Type
REMARK                         _______ _______ _______ _____ _____    ______ ____
ROOT
ATOM      1  C   UNL     1      43.715   5.032  10.672  0.00  0.00    +0.000 C 
ENDROOT
BRANCH   1   2
ATOM      2  N   UNL     1      44.357   4.982   9.380  0.00  0.00    +0.000 N 
ATOM      3  H   UNL     1      44.481   5.799   8.798  0.00  0.00    +0.000 HD
BRANCH   2   8
ATOM      4  C   UNL     1      46.614   0.084   7.705  0.00  0.00    +0.000 C 
ATOM      5  C   UNL     1      46.065   1.426   8.078  0.00  0.00    +0.000 A 
ATOM      6  C   UNL     1      45.067   1.524   9.039  0.00  0.00    +0.000 A 
ATOM      7  N   UNL     1      44.494   2.682   9.446  0.00  0.00    +0.000 NA
ATOM      8  C   UNL     1      44.939   3.828   8.910  0.00  0.00    +0.000 A 
ATOM      9  C   UNL     1      45.941   3.828   7.947  0.00  0.00    +0.000 A 
ATOM     10  C   UNL     1      46.495   2.624   7.505  0.00  0.00    +0.000 A 
BRANCH  10  11
ATOM     11  C   UNL     1      47.556   2.665   6.454  0.00  0.00    +0.000 C 
ATOM     12  N   UNL     1      47.200   3.111   5.212  0.00  0.00    +0.000 N 
ATOM     13  O   UNL     1      48.706   2.303   6.664  0.00  0.00    +0.000 OA
ATOM     14  H   UNL     1      46.244   3.233   4.907  0.00  0.00    +0.000 HD
ATOM     15  H   UNL     1      47.915   3.046   4.493  0.00  0.00    +0.000 HD
ENDBRANCH  10  11
ENDBRANCH   2   8
ENDBRANCH   1   2
BRANCH   1  16
ATOM     16  C   UNL     1      44.662   5.273  11.845  0.00  0.00    +0.000 C 
BRANCH  16  17
ATOM     17  C   UNL     1      44.993   6.742  12.057  0.00  0.00    +0.000 A 
ATOM     18  C   UNL     1      44.369   7.704  11.257  0.00  0.00    +0.000 A 
ATOM     19  C   UNL     1      44.654   9.063  11.432  0.00  0.00    +0.000 A 
ATOM     20  C   UNL     1      45.572   9.480  12.405  0.00  0.00    +0.000 A 
ATOM     21  C   UNL     1      46.200   8.547  13.221  0.00  0.00    +0.000 A 
ATOM     22  C   UNL     1      45.898   7.192  13.038  0.00  0.00    +0.000 A 
BRANCH  21  23
ATOM     23  N   UNL     1      47.117   8.877  14.241  0.00  0.00    +0.000 N 
ATOM     24  H   UNL     1      46.738   9.618  14.828  0.00  0.00    +0.000 HD
BRANCH  23  25
ATOM     25  C   UNL     1      48.548   8.917  14.119  0.00  0.00    +0.000 C 
ATOM     26  C   UNL     1      49.030   8.831  12.646  0.00  0.00    +0.000 C 
ATOM     27  N   UNL     1      50.053   7.836  13.051  0.00  0.00    +0.000 NA
ATOM     28  C   UNL     1      51.320   8.510  13.345  0.00  0.00    +0.000 C 
ATOM     29  C   UNL     1      49.291   7.578  14.299  0.00  0.00    +0.000 C 
ENDBRANCH  23  25
ENDBRANCH  21  23
ENDBRANCH  16  17
ENDBRANCH   1  16
TORSDOF 7
ENDMDL
MODEL 6
REMARK VINA RESULT:    -7.003      2.751      8.504
REMARK INTER + INTRA:         -10.482
REMARK INTER:                  -9.756
REMARK INTRA:                  -0.726
REMARK UNBOUND:                -0.613
REMARK  Name = 
REMARK  9 active torsions:
REMARK  status: ('A' for Active; 'I' for Inactive)
REMARK    1  A    between atoms: C_1  and  C_2
REMARK    2  A    between atoms: C_5  and  N_6
REMARK    3  A    between atoms: N_6  and  C_7
REMARK    4  A    between atoms: C_7  and  C_8
REMARK    5  A    between atoms: C_8  and  C_9
REMARK    6  A    between atoms: C_13  and  N_14
REMARK    7  A    between atoms: N_14  and  C_15
REMARK    8  A    between atoms: N_17  and  C_18
REMARK    9  A    between atoms: C_22  and  C_23
REMARK                            x       y       z     vdW  Elec       q    Type
REMARK                         _______ _______ _______ _____ _____    ______ ____
ROOT
ATOM      1  C   UNL     1      47.929   6.403  12.744  0.00  0.00    +0.000 C 
ENDROOT
BRANCH   1   2
ATOM      2  N   UNL     1      48.398   7.144  13.890  0.00  0.00    +0.000 N 
ATOM      3  H   UNL     1      48.662   8.118  13.842  0.00  0.00    +0.000 HD
BRANCH   2   8
ATOM      4  C   UNL     1      48.627   5.126  19.160  0.00  0.00    +0.000 C 
ATOM      5  C   UNL     1      48.521   5.579  17.737  0.00  0.00    +0.000 A 
ATOM      6  C   UNL     1      48.883   6.875  17.394  0.00  0.00    +0.000 A 
ATOM      7  N   UNL     1      48.821   7.392  16.143  0.00  0.00    +0.000 NA
ATOM      8  C   UNL     1      48.410   6.590  15.149  0.00  0.00    +0.000 A 
ATOM      9  C   UNL     1      48.036   5.275  15.397  0.00  0.00    +0.000 A 
ATOM     10  C   UNL     1      48.066   4.766  16.697  0.00  0.00    +0.000 A 
BRANCH  10  11
ATOM     11  C   UNL     1      47.637   3.353  16.926  0.00  0.00    +0.000 C 
ATOM     12  N   UNL     1      48.543   2.366  16.656  0.00  0.00    +0.000 N 
ATOM     13  O   UNL     1      46.519   3.060  17.325  0.00  0.00    +0.000 OA
ATOM     14  H   UNL     1      49.401   2.509  16.140  0.00  0.00    +0.000 HD
ATOM     15  H   UNL     1      48.201   1.412  16.735  0.00  0.00    +0.000 HD
ENDBRANCH  10  11
ENDBRANCH   2   8
ENDBRANCH   1   2
BRANCH   1  16
ATOM     16  C   UNL     1      46.548   6.816  12.239  0.00  0.00    +0.000 C 
BRANCH  16  17
ATOM     17  C   UNL     1      45.694   5.639  11.797  0.00  0.00    +0.000 A 
ATOM     18  C   UNL     1      45.202   4.753  12.760  0.00  0.00    +0.000 A 
ATOM     19  C   UNL     1      44.413   3.661  12.379  0.00  0.00    +0.000 A 
ATOM     20  C   UNL     1      44.110   3.435  11.031  0.00  0.00    +0.000 A 
ATOM     21  C   UNL     1      44.578   4.305  10.052  0.00  0.00    +0.000 A 
ATOM     22  C   UNL     1      45.360   5.396  10.450  0.00  0.00    +0.000 A 
BRANCH  21  23
ATOM     23  N   UNL     1      44.302   4.170   8.675  0.00  0.00    +0.000 N 
ATOM     24  H   UNL     1      43.296   4.148   8.519  0.00  0.00    +0.000 HD
BRANCH  23  25
ATOM     25  C   UNL     1      45.047   3.384   7.731  0.00  0.00    +0.000 C 
ATOM     26  C   UNL     1      45.786   2.190   8.392  0.00  0.00    +0.000 C 
ATOM     27  N   UNL     1      47.003   2.528   7.613  0.00  0.00    +0.000 NA
ATOM     28  C   UNL     1      47.033   1.757   6.367  0.00  0.00    +0.000 C 
ATOM     29  C   UNL     1      46.460   3.890   7.378  0.00  0.00    +0.000 C 
ENDBRANCH  23  25
ENDBRANCH  21  23
ENDBRANCH  16  17
ENDBRANCH   1  16
TORSDOF 7
ENDMDL
MODEL 7
REMARK VINA RESULT:    -6.959      3.075      9.231
REMARK INTER + INTRA:         -10.420
REMARK INTER:                  -9.803
REMARK INTRA:                  -0.618
REMARK UNBOUND:                -0.613
REMARK  Name = 
REMARK  9 active torsions:
REMARK  status: ('A' for Active; 'I' for Inactive)
REMARK    1  A    between atoms: C_1  and  C_2
REMARK    2  A    between atoms: C_5  and  N_6
REMARK    3  A    between atoms: N_6  and  C_7
REMARK    4  A    between atoms: C_7  and  C_8
REMARK    5  A    between atoms: C_8  and  C_9
REMARK    6  A    between atoms: C_13  and  N_14
REMARK    7  A    between atoms: N_14  and  C_15
REMARK    8  A    between atoms: N_17  and  C_18
REMARK    9  A    between atoms: C_22  and  C_23
REMARK                            x       y       z     vdW  Elec       q    Type
REMARK                         _______ _______ _______ _____ _____    ______ ____
ROOT
ATOM      1  C   UNL     1      47.292   3.923  14.155  0.00  0.00    +0.000 C 
ENDROOT
BRANCH   1   2
ATOM      2  N   UNL     1      47.162   3.301  15.451  0.00  0.00    +0.000 N 
ATOM      3  H   UNL     1      46.619   2.462  15.603  0.00  0.00    +0.000 HD
BRANCH   2   8
ATOM      4  C   UNL     1      50.267   4.926  19.880  0.00  0.00    +0.000 C 
ATOM      5  C   UNL     1      49.378   4.563  18.730  0.00  0.00    +0.000 A 
ATOM      6  C   UNL     1      49.820   3.660  17.772  0.00  0.00    +0.000 A 
ATOM      7  N   UNL     1      49.106   3.267  16.689  0.00  0.00    +0.000 NA
ATOM      8  C   UNL     1      47.866   3.756  16.541  0.00  0.00    +0.000 A 
ATOM      9  C   UNL     1      47.336   4.658  17.456  0.00  0.00    +0.000 A 
ATOM     10  C   UNL     1      48.098   5.088  18.546  0.00  0.00    +0.000 A 
BRANCH  10  11
ATOM     11  C   UNL     1      47.500   6.073  19.496  0.00  0.00    +0.000 C 
ATOM     12  N   UNL     1      46.938   5.586  20.642  0.00  0.00    +0.000 N 
ATOM     13  O   UNL     1      47.487   7.276  19.276  0.00  0.00    +0.000 OA
ATOM     14  H   UNL     1      46.730   4.609  20.801  0.00  0.00    +0.000 HD
ATOM     15  H   UNL     1      46.461   6.264  21.229  0.00  0.00    +0.000 HD
ENDBRANCH  10  11
ENDBRANCH   2   8
ENDBRANCH   1   2
BRANCH   1  16
ATOM     16  C   UNL     1      46.314   5.067  13.896  0.00  0.00    +0.000 C 
BRANCH  16  17
ATOM     17  C   UNL     1      45.227   4.710  12.893  0.00  0.00    +0.000 A 
ATOM     18  C   UNL     1      44.024   5.421  12.910  0.00  0.00    +0.000 A 
ATOM     19  C   UNL     1      43.008   5.114  11.998  0.00  0.00    +0.000 A 
ATOM     20  C   UNL     1      43.177   4.087  11.060  0.00  0.00    +0.000 A 
ATOM     21  C   UNL     1      44.367   3.370  11.014  0.00  0.00    +0.000 A 
ATOM     22  C   UNL     1      45.376   3.694  11.929  0.00  0.00    +0.000 A 
BRANCH  21  23
ATOM     23  N   UNL     1      44.634   2.338  10.090  0.00  0.00    +0.000 N 
ATOM     24  H   UNL     1      45.147   1.583  10.544  0.00  0.00    +0.000 HD
BRANCH  23  25
ATOM     25  C   UNL     1      44.968   2.503   8.702  0.00  0.00    +0.000 C 
ATOM     26  C   UNL     1      46.193   1.653   8.272  0.00  0.00    +0.000 C 
ATOM     27  N   UNL     1      46.742   2.830   7.553  0.00  0.00    +0.000 NA
ATOM     28  C   UNL     1      46.324   2.799   6.148  0.00  0.00    +0.000 C 
ATOM     29  C   UNL     1      45.853   3.715   8.348  0.00  0.00    +0.000 C 
ENDBRANCH  23  25
ENDBRANCH  21  23
ENDBRANCH  16  17
ENDBRANCH   1  16
TORSDOF 7
ENDMDL
MODEL 8
REMARK VINA RESULT:    -6.543      3.290      9.203
REMARK INTER + INTRA:          -9.834
REMARK INTER:                  -9.123
REMARK INTRA:                  -0.710
REMARK UNBOUND:                -0.613
REMARK  Name = 
REMARK  9 active torsions:
REMARK  status: ('A' for Active; 'I' for Inactive)
REMARK    1  A    between atoms: C_1  and  C_2
REMARK    2  A    between atoms: C_5  and  N_6
REMARK    3  A    between atoms: N_6  and  C_7
REMARK    4  A    between atoms: C_7  and  C_8
REMARK    5  A    between atoms: C_8  and  C_9
REMARK    6  A    between atoms: C_13  and  N_14
REMARK    7  A    between atoms: N_14  and  C_15
REMARK    8  A    between atoms: N_17  and  C_18
REMARK    9  A    between atoms: C_22  and  C_23
REMARK                            x       y       z     vdW  Elec       q    Type
REMARK                         _______ _______ _______ _____ _____    ______ ____
ROOT
ATOM      1  C   UNL     1      47.314   4.374  14.461  0.00  0.00    +0.000 C 
ENDROOT
BRANCH   1   2
ATOM      2  N   UNL     1      46.950   3.986  15.802  0.00  0.00    +0.000 N 
ATOM      3  H   UNL     1      46.147   3.408  16.006  0.00  0.00    +0.000 HD
BRANCH   2   8
ATOM      4  C   UNL     1      50.435   5.022  20.124  0.00  0.00    +0.000 C 
ATOM      5  C   UNL     1      49.447   4.808  19.019  0.00  0.00    +0.000 A 
ATOM      6  C   UNL     1      49.813   4.080  17.895  0.00  0.00    +0.000 A 
ATOM      7  N   UNL     1      49.005   3.832  16.835  0.00  0.00    +0.000 NA
ATOM      8  C   UNL     1      47.746   4.293  16.881  0.00  0.00    +0.000 A 
ATOM      9  C   UNL     1      47.290   5.025  17.970  0.00  0.00    +0.000 A 
ATOM     10  C   UNL     1      48.144   5.309  19.038  0.00  0.00    +0.000 A 
BRANCH  10  11
ATOM     11  C   UNL     1      47.622   6.115  20.182  0.00  0.00    +0.000 C 
ATOM     12  N   UNL     1      47.023   5.441  21.210  0.00  0.00    +0.000 N 
ATOM     13  O   UNL     1      47.699   7.335  20.218  0.00  0.00    +0.000 OA
ATOM     14  H   UNL     1      46.742   4.471  21.164  0.00  0.00    +0.000 HD
ATOM     15  H   UNL     1      46.598   6.015  21.932  0.00  0.00    +0.000 HD
ENDBRANCH  10  11
ENDBRANCH   2   8
ENDBRANCH   1   2
BRANCH   1  16
ATOM     16  C   UNL     1      47.540   5.873  14.269  0.00  0.00    +0.000 C 
BRANCH  16  17
ATOM     17  C   UNL     1      46.615   6.491  13.234  0.00  0.00    +0.000 A 
ATOM     18  C   UNL     1      46.368   7.866  13.275  0.00  0.00    +0.000 A 
ATOM     19  C   UNL     1      45.520   8.462  12.333  0.00  0.00    +0.000 A 
ATOM     20  C   UNL     1      44.904   7.690  11.340  0.00  0.00    +0.000 A 
ATOM     21  C   UNL     1      45.139   6.322  11.268  0.00  0.00    +0.000 A 
ATOM     22  C   UNL     1      45.994   5.743  12.214  0.00  0.00    +0.000 A 
BRANCH  21  23
ATOM     23  N   UNL     1      44.582   5.472  10.290  0.00  0.00    +0.000 N 
ATOM     24  H   UNL     1      43.566   5.460  10.372  0.00  0.00    +0.000 HD
BRANCH  23  25
ATOM     25  C   UNL     1      45.134   4.230   9.827  0.00  0.00    +0.000 C 
ATOM     26  C   UNL     1      44.757   3.913   8.355  0.00  0.00    +0.000 C 
ATOM     27  N   UNL     1      44.439   2.518   8.749  0.00  0.00    +0.000 NA
ATOM     28  C   UNL     1      45.611   1.661   8.551  0.00  0.00    +0.000 C 
ATOM     29  C   UNL     1      44.337   2.955  10.165  0.00  0.00    +0.000 C 
ENDBRANCH  23  25
ENDBRANCH  21  23
ENDBRANCH  16  17
ENDBRANCH   1  16
TORSDOF 7
ENDMDL
MODEL 9
REMARK VINA RESULT:    -6.408      4.042      8.092
REMARK INTER + INTRA:          -9.643
REMARK INTER:                  -8.429
REMARK INTRA:                  -1.214
REMARK UNBOUND:                -0.613
REMARK  Name = 
REMARK  9 active torsions:
REMARK  status: ('A' for Active; 'I' for Inactive)
REMARK    1  A    between atoms: C_1  and  C_2
REMARK    2  A    between atoms: C_5  and  N_6
REMARK    3  A    between atoms: N_6  and  C_7
REMARK    4  A    between atoms: C_7  and  C_8
REMARK    5  A    between atoms: C_8  and  C_9
REMARK    6  A    between atoms: C_13  and  N_14
REMARK    7  A    between atoms: N_14  and  C_15
REMARK    8  A    between atoms: N_17  and  C_18
REMARK    9  A    between atoms: C_22  and  C_23
REMARK                            x       y       z     vdW  Elec       q    Type
REMARK                         _______ _______ _______ _____ _____    ______ ____
ROOT
ATOM      1  C   UNL     1      48.436   8.731  16.522  0.00  0.00    +0.000 C 
ENDROOT
BRANCH   1   2
ATOM      2  N   UNL     1      49.115   8.049  17.597  0.00  0.00    +0.000 N 
ATOM      3  H   UNL     1      49.360   8.504  18.466  0.00  0.00    +0.000 HD
BRANCH   2   8
ATOM      4  C   UNL     1      50.489   2.574  17.415  0.00  0.00    +0.000 C 
ATOM      5  C   UNL     1      50.033   4.000  17.443  0.00  0.00    +0.000 A 
ATOM      6  C   UNL     1      50.905   4.998  17.860  0.00  0.00    +0.000 A 
ATOM      7  N   UNL     1      50.597   6.316  17.933  0.00  0.00    +0.000 NA
ATOM      8  C   UNL     1      49.372   6.699  17.544  0.00  0.00    +0.000 A 
ATOM      9  C   UNL     1      48.436   5.771  17.103  0.00  0.00    +0.000 A 
ATOM     10  C   UNL     1      48.751   4.410  17.072  0.00  0.00    +0.000 A 
BRANCH  10  11
ATOM     11  C   UNL     1      47.712   3.442  16.610  0.00  0.00    +0.000 C 
ATOM     12  N   UNL     1      46.873   2.916  17.553  0.00  0.00    +0.000 N 
ATOM     13  O   UNL     1      47.602   3.100  15.440  0.00  0.00    +0.000 OA
ATOM     14  H   UNL     1      47.026   2.988  18.550  0.00  0.00    +0.000 HD
ATOM     15  H   UNL     1      46.234   2.195  17.230  0.00  0.00    +0.000 HD
ENDBRANCH  10  11
ENDBRANCH   2   8
ENDBRANCH   1   2
BRANCH   1  16
ATOM     16  C   UNL     1      49.260   8.887  15.245  0.00  0.00    +0.000 C 
BRANCH  16  17
ATOM     17  C   UNL     1      48.610   8.245  14.030  0.00  0.00    +0.000 A 
ATOM     18  C   UNL     1      49.357   8.092  12.859  0.00  0.00    +0.000 A 
ATOM     19  C   UNL     1      48.783   7.503  11.726  0.00  0.00    +0.000 A 
ATOM     20  C   UNL     1      47.453   7.064  11.745  0.00  0.00    +0.000 A 
ATOM     21  C   UNL     1      46.689   7.195  12.900  0.00  0.00    +0.000 A 
ATOM     22  C   UNL     1      47.280   7.780  14.026  0.00  0.00    +0.000 A 
BRANCH  21  23
ATOM     23  N   UNL     1      45.352   6.760  13.018  0.00  0.00    +0.000 N 
ATOM     24  H   UNL     1      45.002   6.954  13.955  0.00  0.00    +0.000 HD
BRANCH  23  25
ATOM     25  C   UNL     1      44.785   5.580  12.427  0.00  0.00    +0.000 C 
ATOM     26  C   UNL     1      43.400   5.214  13.023  0.00  0.00    +0.000 C 
ATOM     27  N   UNL     1      43.827   3.796  13.115  0.00  0.00    +0.000 NA
ATOM     28  C   UNL     1      43.417   3.068  11.912  0.00  0.00    +0.000 C 
ATOM     29  C   UNL     1      45.244   4.230  13.012  0.00  0.00    +0.000 C 
ENDBRANCH  23  25
ENDBRANCH  21  23
ENDBRANCH  16  17
ENDBRANCH   1  16
TORSDOF 7
ENDMDL
