MODEL 1
REMARK VINA RESULT:    -8.155      0.000      0.000
REMARK INTER + INTRA:         -12.159
REMARK INTER:                 -11.254
REMARK INTRA:                  -0.905
REMARK UNBOUND:                -0.905
REMARK  Name = 
REMARK  7 active torsions:
REMARK  status: ('A' for Active; 'I' for Inactive)
REMARK    1  A    between atoms: C_2  and  C_20
REMARK    2  A    between atoms: N_3  and  C_4
REMARK    3  A    between atoms: C_4  and  C_5
REMARK    4  A    between atoms: C_8  and  C_9
REMARK    5  A    between atoms: C_9  and  C_10
REMARK    6  A    between atoms: C_10  and  N_11
REMARK    7  A    between atoms: C_14  and  O_15
REMARK                            x       y       z     vdW  Elec       q    Type
REMARK                         _______ _______ _______ _____ _____    ______ ____
ROOT
ATOM      1  C   UNL     1      46.671   7.840  13.273  0.00  0.00    +0.000 C 
ENDROOT
BRANCH   1   2
ATOM      2  C   UNL     1      46.030   6.857  12.330  0.00  0.00    +0.000 A 
ATOM      3  C   UNL     1      46.508   6.710  11.019  0.00  0.00    +0.000 A 
ATOM      4  C   UNL     1      45.955   5.759  10.160  0.00  0.00    +0.000 A 
ATOM      5  C   UNL     1      44.918   4.927  10.604  0.00  0.00    +0.000 A 
ATOM      6  C   UNL     1      44.448   5.072  11.915  0.00  0.00    +0.000 A 
ATOM      7  C   UNL     1      44.989   6.033  12.767  0.00  0.00    +0.000 A 
BRANCH   5   8
ATOM      8  C   UNL     1      44.245   3.921   9.696  0.00  0.00    +0.000 C 
BRANCH   8   9
ATOM      9  C   UNL     1      45.019   2.600   9.520  0.00  0.00    +0.000 C 
BRANCH   9  10
ATOM     10  N   UNL     1      45.540   2.356   8.157  0.00  0.00    +0.000 NA
ATOM     11  C   UNL     1      46.519   1.261   8.085  0.00  0.00    +0.000 C 
ATOM     12  C   UNL     1      46.950   0.999   6.641  0.00  0.00    +0.000 C 
ATOM     13  C   UNL     1      47.478   2.262   5.970  0.00  0.00    +0.000 C 
ATOM     14  C   UNL     1      46.497   3.418   6.136  0.00  0.00    +0.000 C 
ATOM     15  C   UNL     1      46.082   3.606   7.595  0.00  0.00    +0.000 C 
BRANCH  13  16
ATOM     16  O   UNL     1      48.758   2.610   6.499  0.00  0.00    +0.000 OA
ATOM     17  H   UNL     1      49.176   3.255   5.904  0.00  0.00    +0.000 HD
ENDBRANCH  13  16
ENDBRANCH   9  10
ENDBRANCH   8   9
ENDBRANCH   5   8
ENDBRANCH   1   2
BRANCH   1  20
ATOM     18  O   UNL     1      49.214   6.735  13.391  0.00  0.00    +0.000 OA
ATOM     19  C   UNL     1      48.514   6.729  14.412  0.00  0.00    +0.000 C 
ATOM     20  N   UNL     1      47.245   7.227  14.435  0.00  0.00    +0.000 N 
ATOM     21  H   UNL     1      46.781   7.411  15.326  0.00  0.00    +0.000 HD
BRANCH  19  22
ATOM     22  C   UNL     1      49.007   6.160  15.652  0.00  0.00    +0.000 A 
ATOM     23  C   UNL     1      50.089   6.690  16.337  0.00  0.00    +0.000 A 
ATOM     24  S   UNL     1      50.391   5.890  17.820  0.00  0.00    +0.000 S 
ATOM     25  C   UNL     1      49.087   4.820  17.570  0.00  0.00    +0.000 A 
ATOM     26  N   UNL     1      48.752   3.874  18.489  0.00  0.00    +0.000 NA
ATOM     27  C   UNL     1      47.727   3.161  18.164  0.00  0.00    +0.000 A 
ATOM     28  N   UNL     1      47.005   3.288  17.007  0.00  0.00    +0.000 N 
ATOM     29  C   UNL     1      47.354   4.161  16.016  0.00  0.00    +0.000 A 
ATOM     30  O   UNL     1      46.798   4.120  14.918  0.00  0.00    +0.000 OA
ATOM     31  C   UNL     1      48.460   5.041  16.361  0.00  0.00    +0.000 A 
ATOM     32  H   UNL     1      46.253   2.663  16.782  0.00  0.00    +0.000 HD
ENDBRANCH  19  22
ENDBRANCH   1  20
TORSDOF 7
ENDMDL
MODEL 2
REMARK VINA RESULT:    -7.875      1.966      2.718
REMARK INTER + INTRA:         -11.772
REMARK INTER:                 -10.958
REMARK INTRA:                  -0.813
REMARK UNBOUND:                -0.905
REMARK  Name = 
REMARK  7 active torsions:
REMARK  status: ('A' for Active; 'I' for Inactive)
REMARK    1  A    between atoms: C_2  and  C_20
REMARK    2  A    between atoms: N_3  and  C_4
REMARK    3  A    between atoms: C_4  and  C_5
REMARK    4  A    between atoms: C_8  and  C_9
REMARK    5  A    between atoms: C_9  and  C_10
REMARK    6  A    between atoms: C_10  and  N_11
REMARK    7  A    between atoms: C_14  and  O_15
REMARK                            x       y       z     vdW  Elec       q    Type
REMARK                         _______ _______ _______ _____ _____    ______ ____
ROOT
ATOM      1  C   UNL     1      45.806   4.251  14.828  0.00  0.00    +0.000 C 
ENDROOT
BRANCH   1   2
ATOM      2  C   UNL     1      45.777   4.410  13.331  0.00  0.00    +0.000 A 
ATOM      3  C   UNL     1      45.134   3.457  12.526  0.00  0.00    +0.000 A 
ATOM      4  C   UNL     1      45.054   3.630  11.143  0.00  0.00    +0.000 A 
ATOM      5  C   UNL     1      45.607   4.768  10.542  0.00  0.00    +0.000 A 
ATOM      6  C   UNL     1      46.244   5.719  11.350  0.00  0.00    +0.000 A 
ATOM      7  C   UNL     1      46.338   5.538  12.728  0.00  0.00    +0.000 A 
BRANCH   5   8
ATOM      8  C   UNL     1      45.600   4.975   9.043  0.00  0.00    +0.000 C 
BRANCH   8   9
ATOM      9  C   UNL     1      44.730   3.969   8.264  0.00  0.00    +0.000 C 
BRANCH   9  10
ATOM     10  N   UNL     1      45.479   3.028   7.402  0.00  0.00    +0.000 NA
ATOM     11  C   UNL     1      46.275   2.045   8.151  0.00  0.00    +0.000 C 
ATOM     12  C   UNL     1      46.950   1.046   7.210  0.00  0.00    +0.000 C 
ATOM     13  C   UNL     1      47.789   1.749   6.148  0.00  0.00    +0.000 C 
ATOM     14  C   UNL     1      46.981   2.833   5.445  0.00  0.00    +0.000 C 
ATOM     15  C   UNL     1      46.307   3.777   6.440  0.00  0.00    +0.000 C 
BRANCH  13  16
ATOM     16  O   UNL     1      48.970   2.301   6.731  0.00  0.00    +0.000 OA
ATOM     17  H   UNL     1      48.914   2.210   7.697  0.00  0.00    +0.000 HD
ENDBRANCH  13  16
ENDBRANCH   9  10
ENDBRANCH   8   9
ENDBRANCH   5   8
ENDBRANCH   1   2
BRANCH   1  20
ATOM     18  O   UNL     1      46.617   3.453  17.360  0.00  0.00    +0.000 OA
ATOM     19  C   UNL     1      47.410   4.090  16.654  0.00  0.00    +0.000 C 
ATOM     20  N   UNL     1      47.084   4.544  15.409  0.00  0.00    +0.000 N 
ATOM     21  H   UNL     1      47.814   4.865  14.771  0.00  0.00    +0.000 HD
BRANCH  19  22
ATOM     22  C   UNL     1      48.740   4.416  17.131  0.00  0.00    +0.000 A 
ATOM     23  C   UNL     1      49.068   5.667  17.630  0.00  0.00    +0.000 A 
ATOM     24  S   UNL     1      50.672   5.746  18.220  0.00  0.00    +0.000 S 
ATOM     25  C   UNL     1      50.958   4.115  17.816  0.00  0.00    +0.000 A 
ATOM     26  N   UNL     1      52.147   3.509  18.085  0.00  0.00    +0.000 NA
ATOM     27  C   UNL     1      52.197   2.267  17.742  0.00  0.00    +0.000 A 
ATOM     28  N   UNL     1      51.183   1.566  17.146  0.00  0.00    +0.000 N 
ATOM     29  C   UNL     1      50.004   2.150  16.777  0.00  0.00    +0.000 A 
ATOM     30  O   UNL     1      49.192   1.540  16.081  0.00  0.00    +0.000 OA
ATOM     31  C   UNL     1      49.867   3.533  17.206  0.00  0.00    +0.000 A 
ATOM     32  H   UNL     1      51.302   0.615  16.847  0.00  0.00    +0.000 HD
ENDBRANCH  19  22
ENDBRANCH   1  20
TORSDOF 7
ENDMDL
MODEL 3
REMARK VINA RESULT:    -7.503      1.683      2.105
REMARK INTER + INTRA:         -11.259
REMARK INTER:                 -10.618
REMARK INTRA:                  -0.641
REMARK UNBOUND:                -0.905
REMARK  Name = 
REMARK  7 active torsions:
REMARK  status: ('A' for Active; 'I' for Inactive)
REMARK    1  A    between atoms: C_2  and  C_20
REMARK    2  A    between atoms: N_3  and  C_4
REMARK    3  A    between atoms: C_4  and  C_5
REMARK    4  A    between atoms: C_8  and  C_9
REMARK    5  A    between atoms: C_9  and  C_10
REMARK    6  A    between atoms: C_10  and  N_11
REMARK    7  A    between atoms: C_14  and  O_15
REMARK                            x       y       z     vdW  Elec       q    Type
REMARK                         _______ _______ _______ _____ _____    ______ ____
ROOT
ATOM      1  C   UNL     1      48.101   6.841  13.364  0.00  0.00    +0.000 C 
ENDROOT
BRANCH   1   2
ATOM      2  C   UNL     1      46.980   6.113  12.672  0.00  0.00    +0.000 A 
ATOM      3  C   UNL     1      46.377   6.656  11.527  0.00  0.00    +0.000 A 
ATOM      4  C   UNL     1      45.377   5.958  10.848  0.00  0.00    +0.000 A 
ATOM      5  C   UNL     1      44.970   4.695  11.298  0.00  0.00    +0.000 A 
ATOM      6  C   UNL     1      45.578   4.154  12.438  0.00  0.00    +0.000 A 
ATOM      7  C   UNL     1      46.564   4.858  13.125  0.00  0.00    +0.000 A 
BRANCH   5   8
ATOM      8  C   UNL     1      43.850   3.923  10.634  0.00  0.00    +0.000 C 
BRANCH   8   9
ATOM      9  C   UNL     1      44.301   2.642   9.906  0.00  0.00    +0.000 C 
BRANCH   9  10
ATOM     10  N   UNL     1      45.503   2.793   9.057  0.00  0.00    +0.000 NA
ATOM     11  C   UNL     1      45.415   3.902   8.097  0.00  0.00    +0.000 C 
ATOM     12  C   UNL     1      46.720   4.063   7.315  0.00  0.00    +0.000 C 
ATOM     13  C   UNL     1      47.131   2.765   6.630  0.00  0.00    +0.000 C 
ATOM     14  C   UNL     1      47.125   1.602   7.615  0.00  0.00    +0.000 C 
ATOM     15  C   UNL     1      45.808   1.517   8.386  0.00  0.00    +0.000 C 
BRANCH  13  16
ATOM     16  O   UNL     1      46.270   2.490   5.523  0.00  0.00    +0.000 OA
ATOM     17  H   UNL     1      45.407   2.202   5.864  0.00  0.00    +0.000 HD
ENDBRANCH  13  16
ENDBRANCH   9  10
ENDBRANCH   8   9
ENDBRANCH   5   8
ENDBRANCH   1   2
BRANCH   1  20
ATOM     18  O   UNL     1      50.212   6.808  15.167  0.00  0.00    +0.000 OA
ATOM     19  C   UNL     1      49.056   6.887  15.604  0.00  0.00    +0.000 C 
ATOM     20  N   UNL     1      47.961   6.882  14.790  0.00  0.00    +0.000 N 
ATOM     21  H   UNL     1      47.050   7.169  15.153  0.00  0.00    +0.000 HD
BRANCH  19  22
ATOM     22  C   UNL     1      48.801   6.964  17.030  0.00  0.00    +0.000 A 
ATOM     23  C   UNL     1      48.391   8.133  17.652  0.00  0.00    +0.000 A 
ATOM     24  S   UNL     1      48.061   7.918  19.317  0.00  0.00    +0.000 S 
ATOM     25  C   UNL     1      48.464   6.263  19.238  0.00  0.00    +0.000 A 
ATOM     26  N   UNL     1      48.369   5.450  20.326  0.00  0.00    +0.000 NA
ATOM     27  C   UNL     1      48.684   4.221  20.096  0.00  0.00    +0.000 A 
ATOM     28  N   UNL     1      49.097   3.718  18.891  0.00  0.00    +0.000 N 
ATOM     29  C   UNL     1      49.291   4.507  17.794  0.00  0.00    +0.000 A 
ATOM     30  O   UNL     1      49.836   4.057  16.785  0.00  0.00    +0.000 OA
ATOM     31  C   UNL     1      48.881   5.891  17.977  0.00  0.00    +0.000 A 
ATOM     32  H   UNL     1      49.386   2.762  18.789  0.00  0.00    +0.000 HD
ENDBRANCH  19  22
ENDBRANCH   1  20
TORSDOF 7
ENDMDL
MODEL 4
REMARK VINA RESULT:    -7.365      2.364      3.015
REMARK INTER + INTRA:         -11.069
REMARK INTER:                 -10.111
REMARK INTRA:                  -0.958
REMARK UNBOUND:                -0.905
REMARK  Name = 
REMARK  7 active torsions:
REMARK  status: ('A' for Active; 'I' for Inactive)
REMARK    1  A    between atoms: C_2  and  C_20
REMARK    2  A    between atoms: N_3  and  C_4
REMARK    3  A    between atoms: C_4  and  C_5
REMARK    4  A    between atoms: C_8  and  C_9
REMARK    5  A    between atoms: C_9  and  C_10
REMARK    6  A    between atoms: C_10  and  N_11
REMARK    7  A    between atoms: C_14  and  O_15
REMARK                            x       y       z     vdW  Elec       q    Type
REMARK                         _______ _______ _______ _____ _____    ______ ____
ROOT
ATOM      1  C   UNL     1      48.100   6.632  13.832  0.00  0.00    +0.000 C 
ENDROOT
BRANCH   1   2
ATOM      2  C   UNL     1      47.062   5.985  12.954  0.00  0.00    +0.000 A 
ATOM      3  C   UNL     1      46.489   4.756  13.314  0.00  0.00    +0.000 A 
ATOM      4  C   UNL     1      45.484   4.182  12.533  0.00  0.00    +0.000 A 
ATOM      5  C   UNL     1      45.027   4.834  11.381  0.00  0.00    +0.000 A 
ATOM      6  C   UNL     1      45.598   6.063  11.027  0.00  0.00    +0.000 A 
ATOM      7  C   UNL     1      46.612   6.628  11.798  0.00  0.00    +0.000 A 
BRANCH   5   8
ATOM      8  C   UNL     1      43.984   4.227  10.469  0.00  0.00    +0.000 C 
BRANCH   8   9
ATOM      9  C   UNL     1      44.366   2.853   9.886  0.00  0.00    +0.000 C 
BRANCH   9  10
ATOM     10  N   UNL     1      45.579   2.847   9.039  0.00  0.00    +0.000 NA
ATOM     11  C   UNL     1      45.610   3.925   8.040  0.00  0.00    +0.000 C 
ATOM     12  C   UNL     1      46.926   3.920   7.261  0.00  0.00    +0.000 C 
ATOM     13  C   UNL     1      47.200   2.563   6.623  0.00  0.00    +0.000 C 
ATOM     14  C   UNL     1      47.070   1.443   7.649  0.00  0.00    +0.000 C 
ATOM     15  C   UNL     1      45.750   1.523   8.414  0.00  0.00    +0.000 C 
BRANCH  13  16
ATOM     16  O   UNL     1      46.318   2.341   5.523  0.00  0.00    +0.000 OA
ATOM     17  H   UNL     1      45.657   1.677   5.781  0.00  0.00    +0.000 HD
ENDBRANCH  13  16
ENDBRANCH   9  10
ENDBRANCH   8   9
ENDBRANCH   5   8
ENDBRANCH   1   2
BRANCH   1  20
ATOM     18  O   UNL     1      50.149   6.443  15.695  0.00  0.00    +0.000 OA
ATOM     19  C   UNL     1      48.979   6.311  16.080  0.00  0.00    +0.000 C 
ATOM     20  N   UNL     1      47.915   6.363  15.227  0.00  0.00    +0.000 N 
ATOM     21  H   UNL     1      46.968   6.474  15.594  0.00  0.00    +0.000 HD
BRANCH  19  22
ATOM     22  C   UNL     1      48.676   6.064  17.476  0.00  0.00    +0.000 A 
ATOM     23  C   UNL     1      48.813   4.814  18.060  0.00  0.00    +0.000 A 
ATOM     24  S   UNL     1      48.490   4.828  19.741  0.00  0.00    +0.000 S 
ATOM     25  C   UNL     1      48.157   6.500  19.717  0.00  0.00    +0.000 A 
ATOM     26  N   UNL     1      47.837   7.182  20.851  0.00  0.00    +0.000 NA
ATOM     27  C   UNL     1      47.639   8.444  20.671  0.00  0.00    +0.000 A 
ATOM     28  N   UNL     1      47.716   9.097  19.470  0.00  0.00    +0.000 N 
ATOM     29  C   UNL     1      47.947   8.444  18.293  0.00  0.00    +0.000 A 
ATOM     30  O   UNL     1      47.826   9.029  17.216  0.00  0.00    +0.000 OA
ATOM     31  C   UNL     1      48.249   7.029  18.447  0.00  0.00    +0.000 A 
ATOM     32  H   UNL     1      47.492  10.071  19.383  0.00  0.00    +0.000 HD
ENDBRANCH  19  22
ENDBRANCH   1  20
TORSDOF 7
ENDMDL
MODEL 5
REMARK VINA RESULT:    -7.075      2.683      4.552
REMARK INTER + INTRA:         -10.668
REMARK INTER:                  -9.494
REMARK INTRA:                  -1.174
REMARK UNBOUND:                -0.905
REMARK  Name = 
REMARK  7 active torsions:
REMARK  status: ('A' for Active; 'I' for Inactive)
REMARK    1  A    between atoms: C_2  and  C_20
REMARK    2  A    between atoms: N_3  and  C_4
REMARK    3  A    between atoms: C_4  and  C_5
REMARK    4  A    between atoms: C_8  and  C_9
REMARK    5  A    between atoms: C_9  and  C_10
REMARK    6  A    between atoms: C_10  and  N_11
REMARK    7  A    between atoms: C_14  and  O_15
REMARK                            x       y       z     vdW  Elec       q    Type
REMARK                         _______ _______ _______ _____ _____    ______ ____
ROOT
ATOM      1  C   UNL     1      47.506   5.499  14.476  0.00  0.00    +0.000 C 
ENDROOT
BRANCH   1   2
ATOM      2  C   UNL     1      46.621   4.981  13.374  0.00  0.00    +0.000 A 
ATOM      3  C   UNL     1      46.311   3.615  13.291  0.00  0.00    +0.000 A 
ATOM      4  C   UNL     1      45.444   3.139  12.307  0.00  0.00    +0.000 A 
ATOM      5  C   UNL     1      44.861   4.026  11.392  0.00  0.00    +0.000 A 
ATOM      6  C   UNL     1      45.169   5.389  11.480  0.00  0.00    +0.000 A 
ATOM      7  C   UNL     1      46.048   5.862  12.453  0.00  0.00    +0.000 A 
BRANCH   5   8
ATOM      8  C   UNL     1      43.962   3.554  10.270  0.00  0.00    +0.000 C 
BRANCH   8   9
ATOM      9  C   UNL     1      44.477   2.310   9.518  0.00  0.00    +0.000 C 
BRANCH   9  10
ATOM     10  N   UNL     1      45.717   2.518   8.738  0.00  0.00    +0.000 NA
ATOM     11  C   UNL     1      45.665   3.681   7.841  0.00  0.00    +0.000 C 
ATOM     12  C   UNL     1      47.004   3.895   7.134  0.00  0.00    +0.000 C 
ATOM     13  C   UNL     1      47.459   2.641   6.395  0.00  0.00    +0.000 C 
ATOM     14  C   UNL     1      47.416   1.423   7.310  0.00  0.00    +0.000 C 
ATOM     15  C   UNL     1      46.064   1.285   8.010  0.00  0.00    +0.000 C 
BRANCH  13  16
ATOM     16  O   UNL     1      46.655   2.426   5.234  0.00  0.00    +0.000 OA
ATOM     17  H   UNL     1      46.179   1.584   5.336  0.00  0.00    +0.000 HD
ENDBRANCH  13  16
ENDBRANCH   9  10
ENDBRANCH   8   9
ENDBRANCH   5   8
ENDBRANCH   1   2
BRANCH   1  20
ATOM     18  O   UNL     1      49.873   6.778  15.162  0.00  0.00    +0.000 OA
ATOM     19  C   UNL     1      48.923   7.460  14.753  0.00  0.00    +0.000 C 
ATOM     20  N   UNL     1      47.718   6.916  14.420  0.00  0.00    +0.000 N 
ATOM     21  H   UNL     1      47.039   7.460  13.884  0.00  0.00    +0.000 HD
BRANCH  19  22
ATOM     22  C   UNL     1      49.038   8.901  14.630  0.00  0.00    +0.000 A 
ATOM     23  C   UNL     1      49.161   9.736  15.730  0.00  0.00    +0.000 A 
ATOM     24  S   UNL     1      49.384  11.376  15.295  0.00  0.00    +0.000 S 
ATOM     25  C   UNL     1      49.315  11.001  13.633  0.00  0.00    +0.000 A 
ATOM     26  N   UNL     1      49.472  11.957  12.677  0.00  0.00    +0.000 NA
ATOM     27  C   UNL     1      49.419  11.509  11.469  0.00  0.00    +0.000 A 
ATOM     28  N   UNL     1      49.214  10.202  11.114  0.00  0.00    +0.000 N 
ATOM     29  C   UNL     1      48.966   9.222  12.032  0.00  0.00    +0.000 A 
ATOM     30  O   UNL     1      48.605   8.101  11.672  0.00  0.00    +0.000 OA
ATOM     31  C   UNL     1      49.085   9.659  13.414  0.00  0.00    +0.000 A 
ATOM     32  H   UNL     1      49.124   9.923  10.154  0.00  0.00    +0.000 HD
ENDBRANCH  19  22
ENDBRANCH   1  20
TORSDOF 7
ENDMDL
MODEL 6
REMARK VINA RESULT:    -6.946      2.986      8.600
REMARK INTER + INTRA:         -10.490
REMARK INTER:                  -9.397
REMARK INTRA:                  -1.093
REMARK UNBOUND:                -0.905
REMARK  Name = 
REMARK  7 active torsions:
REMARK  status: ('A' for Active; 'I' for Inactive)
REMARK    1  A    between atoms: C_2  and  C_20
REMARK    2  A    between atoms: N_3  and  C_4
REMARK    3  A    between atoms: C_4  and  C_5
REMARK    4  A    between atoms: C_8  and  C_9
REMARK    5  A    between atoms: C_9  and  C_10
REMARK    6  A    between atoms: C_10  and  N_11
REMARK    7  A    between atoms: C_14  and  O_15
REMARK                            x       y       z     vdW  Elec       q    Type
REMARK                         _______ _______ _______ _____ _____    ______ ____
ROOT
ATOM      1  C   UNL     1      47.300   7.888  12.108  0.00  0.00    +0.000 C 
ENDROOT
BRANCH   1   2
ATOM      2  C   UNL     1      48.109   8.035  13.369  0.00  0.00    +0.000 A 
ATOM      3  C   UNL     1      47.648   8.840  14.423  0.00  0.00    +0.000 A 
ATOM      4  C   UNL     1      48.366   8.933  15.616  0.00  0.00    +0.000 A 
ATOM      5  C   UNL     1      49.555   8.211  15.782  0.00  0.00    +0.000 A 
ATOM      6  C   UNL     1      50.009   7.404  14.730  0.00  0.00    +0.000 A 
ATOM      7  C   UNL     1      49.301   7.325  13.533  0.00  0.00    +0.000 A 
BRANCH   5   8
ATOM      8  C   UNL     1      50.400   8.322  17.031  0.00  0.00    +0.000 C 
BRANCH   8   9
ATOM      9  C   UNL     1      49.944   7.421  18.195  0.00  0.00    +0.000 C 
BRANCH   9  10
ATOM     10  N   UNL     1      49.329   6.138  17.789  0.00  0.00    +0.000 NA
ATOM     11  C   UNL     1      47.995   5.913  18.364  0.00  0.00    +0.000 C 
ATOM     12  C   UNL     1      47.376   4.617  17.837  0.00  0.00    +0.000 C 
ATOM     13  C   UNL     1      48.291   3.419  18.067  0.00  0.00    +0.000 C 
ATOM     14  C   UNL     1      49.698   3.701  17.553  0.00  0.00    +0.000 C 
ATOM     15  C   UNL     1      50.245   5.023  18.091  0.00  0.00    +0.000 C 
BRANCH  13  16
ATOM     16  O   UNL     1      48.321   3.074  19.452  0.00  0.00    +0.000 OA
ATOM     17  H   UNL     1      48.794   2.230  19.553  0.00  0.00    +0.000 HD
ENDBRANCH  13  16
ENDBRANCH   9  10
ENDBRANCH   8   9
ENDBRANCH   5   8
ENDBRANCH   1   2
BRANCH   1  20
ATOM     18  O   UNL     1      44.615   7.463  11.548  0.00  0.00    +0.000 OA
ATOM     19  C   UNL     1      45.361   6.482  11.670  0.00  0.00    +0.000 C 
ATOM     20  N   UNL     1      46.686   6.600  11.970  0.00  0.00    +0.000 N 
ATOM     21  H   UNL     1      47.314   5.804  11.846  0.00  0.00    +0.000 HD
BRANCH  19  22
ATOM     22  C   UNL     1      44.850   5.133  11.521  0.00  0.00    +0.000 A 
ATOM     23  C   UNL     1      44.188   4.469  12.542  0.00  0.00    +0.000 A 
ATOM     24  S   UNL     1      43.600   2.934  12.063  0.00  0.00    +0.000 S 
ATOM     25  C   UNL     1      44.225   3.126  10.489  0.00  0.00    +0.000 A 
ATOM     26  N   UNL     1      44.048   2.178   9.528  0.00  0.00    +0.000 NA
ATOM     27  C   UNL     1      44.558   2.484   8.384  0.00  0.00    +0.000 A 
ATOM     28  N   UNL     1      45.239   3.638   8.099  0.00  0.00    +0.000 N 
ATOM     29  C   UNL     1      45.518   4.579   9.049  0.00  0.00    +0.000 A 
ATOM     30  O   UNL     1      46.286   5.509   8.805  0.00  0.00    +0.000 OA
ATOM     31  C   UNL     1      44.904   4.318  10.342  0.00  0.00    +0.000 A 
ATOM     32  H   UNL     1      45.665   3.793   7.204  0.00  0.00    +0.000 HD
ENDBRANCH  19  22
ENDBRANCH   1  20
TORSDOF 7
ENDMDL
MODEL 7
REMARK VINA RESULT:    -6.935      1.908      2.809
REMARK INTER + INTRA:         -10.475
REMARK INTER:                  -9.711
REMARK INTRA:                  -0.763
REMARK UNBOUND:                -0.905
REMARK  Name = 
REMARK  7 active torsions:
REMARK  status: ('A' for Active; 'I' for Inactive)
REMARK    1  A    between atoms: C_2  and  C_20
REMARK    2  A    between atoms: N_3  and  C_4
REMARK    3  A    between atoms: C_4  and  C_5
REMARK    4  A    between atoms: C_8  and  C_9
REMARK    5  A    between atoms: C_9  and  C_10
REMARK    6  A    between atoms: C_10  and  N_11
REMARK    7  A    between atoms: C_14  and  O_15
REMARK                            x       y       z     vdW  Elec       q    Type
REMARK                         _______ _______ _______ _____ _____    ______ ____
ROOT
ATOM      1  C   UNL     1      47.668   7.007  13.737  0.00  0.00    +0.000 C 
ENDROOT
BRANCH   1   2
ATOM      2  C   UNL     1      46.730   6.237  12.847  0.00  0.00    +0.000 A 
ATOM      3  C   UNL     1      46.279   4.961  13.220  0.00  0.00    +0.000 A 
ATOM      4  C   UNL     1      45.363   4.268  12.427  0.00  0.00    +0.000 A 
ATOM      5  C   UNL     1      44.872   4.846  11.249  0.00  0.00    +0.000 A 
ATOM      6  C   UNL     1      45.320   6.121  10.882  0.00  0.00    +0.000 A 
ATOM      7  C   UNL     1      46.247   6.806  11.666  0.00  0.00    +0.000 A 
BRANCH   5   8
ATOM      8  C   UNL     1      43.925   4.114  10.324  0.00  0.00    +0.000 C 
BRANCH   8   9
ATOM      9  C   UNL     1      44.434   2.742   9.842  0.00  0.00    +0.000 C 
BRANCH   9  10
ATOM     10  N   UNL     1      45.623   2.788   8.963  0.00  0.00    +0.000 NA
ATOM     11  C   UNL     1      45.617   3.912   8.017  0.00  0.00    +0.000 C 
ATOM     12  C   UNL     1      46.911   3.958   7.202  0.00  0.00    +0.000 C 
ATOM     13  C   UNL     1      47.178   2.635   6.493  0.00  0.00    +0.000 C 
ATOM     14  C   UNL     1      47.087   1.466   7.467  0.00  0.00    +0.000 C 
ATOM     15  C   UNL     1      45.787   1.497   8.271  0.00  0.00    +0.000 C 
BRANCH  13  16
ATOM     16  O   UNL     1      46.267   2.457   5.407  0.00  0.00    +0.000 OA
ATOM     17  H   UNL     1      46.031   3.331   5.051  0.00  0.00    +0.000 HD
ENDBRANCH  13  16
ENDBRANCH   9  10
ENDBRANCH   8   9
ENDBRANCH   5   8
ENDBRANCH   1   2
BRANCH   1  20
ATOM     18  O   UNL     1      48.743   8.096  16.053  0.00  0.00    +0.000 OA
ATOM     19  C   UNL     1      48.644   6.864  15.964  0.00  0.00    +0.000 C 
ATOM     20  N   UNL     1      48.153   6.246  14.851  0.00  0.00    +0.000 N 
ATOM     21  H   UNL     1      47.877   5.263  14.889  0.00  0.00    +0.000 HD
BRANCH  19  22
ATOM     22  C   UNL     1      49.076   6.000  17.045  0.00  0.00    +0.000 A 
ATOM     23  C   UNL     1      48.185   5.395  17.917  0.00  0.00    +0.000 A 
ATOM     24  S   UNL     1      48.956   4.346  19.030  0.00  0.00    +0.000 S 
ATOM     25  C   UNL     1      50.490   4.686  18.370  0.00  0.00    +0.000 A 
ATOM     26  N   UNL     1      51.619   4.086  18.838  0.00  0.00    +0.000 NA
ATOM     27  C   UNL     1      52.696   4.429  18.217  0.00  0.00    +0.000 A 
ATOM     28  N   UNL     1      52.766   5.321  17.179  0.00  0.00    +0.000 N 
ATOM     29  C   UNL     1      51.677   6.013  16.732  0.00  0.00    +0.000 A 
ATOM     30  O   UNL     1      51.807   6.936  15.928  0.00  0.00    +0.000 OA
ATOM     31  C   UNL     1      50.423   5.611  17.349  0.00  0.00    +0.000 A 
ATOM     32  H   UNL     1      53.643   5.593  16.775  0.00  0.00    +0.000 HD
ENDBRANCH  19  22
ENDBRANCH   1  20
TORSDOF 7
ENDMDL
MODEL 8
REMARK VINA RESULT:    -6.850      3.739      7.817
REMARK INTER + INTRA:         -10.358
REMARK INTER:                  -8.882
REMARK INTRA:                  -1.476
REMARK UNBOUND:                -0.905
REMARK  Name = 
REMARK  7 active torsions:
REMARK  status: ('A' for Active; 'I' for Inactive)
REMARK    1  A    between atoms: C_2  and  C_20
REMARK    2  A    between atoms: N_3  and  C_4
REMARK    3  A    between atoms: C_4  and  C_5
REMARK    4  A    between atoms: C_8  and  C_9
REMARK    5  A    between atoms: C_9  and  C_10
REMARK    6  A    between atoms: C_10  and  N_11
REMARK    7  A    between atoms: C_14  and  O_15
REMARK                            x       y       z     vdW  Elec       q    Type
REMARK                         _______ _______ _______ _____ _____    ______ ____
ROOT
ATOM      1  C   UNL     1      47.871   9.105  13.938  0.00  0.00    +0.000 C 
ENDROOT
BRANCH   1   2
ATOM      2  C   UNL     1      48.642   8.447  15.052  0.00  0.00    +0.000 A 
ATOM      3  C   UNL     1      48.421   8.818  16.387  0.00  0.00    +0.000 A 
ATOM      4  C   UNL     1      49.091   8.170  17.427  0.00  0.00    +0.000 A 
ATOM      5  C   UNL     1      49.986   7.129  17.148  0.00  0.00    +0.000 A 
ATOM      6  C   UNL     1      50.199   6.758  15.814  0.00  0.00    +0.000 A 
ATOM      7  C   UNL     1      49.544   7.416  14.776  0.00  0.00    +0.000 A 
BRANCH   5   8
ATOM      8  C   UNL     1      50.780   6.434  18.232  0.00  0.00    +0.000 C 
BRANCH   8   9
ATOM      9  C   UNL     1      49.931   5.607  19.217  0.00  0.00    +0.000 C 
BRANCH   9  10
ATOM     10  N   UNL     1      49.466   4.301  18.700  0.00  0.00    +0.000 NA
ATOM     11  C   UNL     1      50.345   3.724  17.673  0.00  0.00    +0.000 C 
ATOM     12  C   UNL     1      49.862   2.337  17.246  0.00  0.00    +0.000 C 
ATOM     13  C   UNL     1      48.408   2.362  16.786  0.00  0.00    +0.000 C 
ATOM     14  C   UNL     1      47.522   3.050  17.817  0.00  0.00    +0.000 C 
ATOM     15  C   UNL     1      48.076   4.415  18.224  0.00  0.00    +0.000 C 
BRANCH  13  16
ATOM     16  O   UNL     1      48.298   3.008  15.517  0.00  0.00    +0.000 OA
ATOM     17  H   UNL     1      48.057   2.345  14.849  0.00  0.00    +0.000 HD
ENDBRANCH  13  16
ENDBRANCH   9  10
ENDBRANCH   8   9
ENDBRANCH   5   8
ENDBRANCH   1   2
BRANCH   1  20
ATOM     18  O   UNL     1      47.768   7.408  11.744  0.00  0.00    +0.000 OA
ATOM     19  C   UNL     1      46.757   7.533  12.449  0.00  0.00    +0.000 C 
ATOM     20  N   UNL     1      46.714   8.365  13.529  0.00  0.00    +0.000 N 
ATOM     21  H   UNL     1      45.959   8.281  14.212  0.00  0.00    +0.000 HD
BRANCH  19  22
ATOM     22  C   UNL     1      45.539   6.807  12.143  0.00  0.00    +0.000 A 
ATOM     23  C   UNL     1      44.430   7.417  11.580  0.00  0.00    +0.000 A 
ATOM     24  S   UNL     1      43.172   6.311  11.228  0.00  0.00    +0.000 S 
ATOM     25  C   UNL     1      44.084   5.001  11.826  0.00  0.00    +0.000 A 
ATOM     26  N   UNL     1      43.610   3.725  11.795  0.00  0.00    +0.000 NA
ATOM     27  C   UNL     1      44.430   2.845  12.261  0.00  0.00    +0.000 A 
ATOM     28  N   UNL     1      45.675   3.108  12.766  0.00  0.00    +0.000 N 
ATOM     29  C   UNL     1      46.161   4.377  12.899  0.00  0.00    +0.000 A 
ATOM     30  O   UNL     1      47.201   4.590  13.523  0.00  0.00    +0.000 OA
ATOM     31  C   UNL     1      45.306   5.404  12.322  0.00  0.00    +0.000 A 
ATOM     32  H   UNL     1      46.244   2.387  13.170  0.00  0.00    +0.000 HD
ENDBRANCH  19  22
ENDBRANCH   1  20
TORSDOF 7
ENDMDL
MODEL 9
REMARK VINA RESULT:    -6.841      4.706      7.346
REMARK INTER + INTRA:         -10.345
REMARK INTER:                  -9.329
REMARK INTRA:                  -1.016
REMARK UNBOUND:                -0.905
REMARK  Name = 
REMARK  7 active torsions:
REMARK  status: ('A' for Active; 'I' for Inactive)
REMARK    1  A    between atoms: C_2  and  C_20
REMARK    2  A    between atoms: N_3  and  C_4
REMARK    3  A    between atoms: C_4  and  C_5
REMARK    4  A    between atoms: C_8  and  C_9
REMARK    5  A    between atoms: C_9  and  C_10
REMARK    6  A    between atoms: C_10  and  N_11
REMARK    7  A    between atoms: C_14  and  O_15
REMARK                            x       y       z     vdW  Elec       q    Type
REMARK                         _______ _______ _______ _____ _____    ______ ____
ROOT
ATOM      1  C   UNL     1      46.411   8.271  12.511  0.00  0.00    +0.000 C 
ENDROOT
BRANCH   1   2
ATOM      2  C   UNL     1      47.844   8.533  12.131  0.00  0.00    +0.000 A 
ATOM      3  C   UNL     1      48.759   7.474  12.023  0.00  0.00    +0.000 A 
ATOM      4  C   UNL     1      50.073   7.706  11.614  0.00  0.00    +0.000 A 
ATOM      5  C   UNL     1      50.493   9.003  11.293  0.00  0.00    +0.000 A 
ATOM      6  C   UNL     1      49.576  10.057  11.396  0.00  0.00    +0.000 A 
ATOM      7  C   UNL     1      48.269   9.828  11.821  0.00  0.00    +0.000 A 
BRANCH   5   8
ATOM      8  C   UNL     1      51.921   9.316  10.901  0.00  0.00    +0.000 C 
BRANCH   8   9
ATOM      9  C   UNL     1      52.902   8.139  11.068  0.00  0.00    +0.000 C 
BRANCH   9  10
ATOM     10  N   UNL     1      53.431   7.581   9.804  0.00  0.00    +0.000 NA
ATOM     11  C   UNL     1      52.974   8.295   8.603  0.00  0.00    +0.000 C 
ATOM     12  C   UNL     1      53.626   7.729   7.340  0.00  0.00    +0.000 C 
ATOM     13  C   UNL     1      53.402   6.227   7.214  0.00  0.00    +0.000 C 
ATOM     14  C   UNL     1      53.788   5.507   8.500  0.00  0.00    +0.000 C 
ATOM     15  C   UNL     1      53.130   6.140   9.726  0.00  0.00    +0.000 C 
BRANCH  13  16
ATOM     16  O   UNL     1      52.042   5.952   6.874  0.00  0.00    +0.000 OA
ATOM     17  H   UNL     1      51.508   5.965   7.687  0.00  0.00    +0.000 HD
ENDBRANCH  13  16
ENDBRANCH   9  10
ENDBRANCH   8   9
ENDBRANCH   5   8
ENDBRANCH   1   2
BRANCH   1  20
ATOM     18  O   UNL     1      44.044   7.480  11.298  0.00  0.00    +0.000 OA
ATOM     19  C   UNL     1      44.836   6.609  11.685  0.00  0.00    +0.000 C 
ATOM     20  N   UNL     1      46.008   6.910  12.314  0.00  0.00    +0.000 N 
ATOM     21  H   UNL     1      46.732   6.198  12.420  0.00  0.00    +0.000 HD
BRANCH  19  22
ATOM     22  C   UNL     1      44.540   5.200  11.509  0.00  0.00    +0.000 A 
ATOM     23  C   UNL     1      43.858   4.457  12.460  0.00  0.00    +0.000 A 
ATOM     24  S   UNL     1      43.554   2.851  11.952  0.00  0.00    +0.000 S 
ATOM     25  C   UNL     1      44.331   3.118  10.459  0.00  0.00    +0.000 A 
ATOM     26  N   UNL     1      44.406   2.148   9.507  0.00  0.00    +0.000 NA
ATOM     27  C   UNL     1      45.003   2.514   8.424  0.00  0.00    +0.000 A 
ATOM     28  N   UNL     1      45.545   3.751   8.195  0.00  0.00    +0.000 N 
ATOM     29  C   UNL     1      45.573   4.729   9.148  0.00  0.00    +0.000 A 
ATOM     30  O   UNL     1      46.228   5.757   8.974  0.00  0.00    +0.000 OA
ATOM     31  C   UNL     1      44.849   4.393  10.365  0.00  0.00    +0.000 A 
ATOM     32  H   UNL     1      46.051   3.959   7.353  0.00  0.00    +0.000 HD
ENDBRANCH  19  22
ENDBRANCH   1  20
TORSDOF 7
ENDMDL
