MODEL 1
REMARK VINA RESULT:    -6.997      0.000      0.000
REMARK INTER + INTRA:         -11.418
REMARK INTER:                  -9.860
REMARK INTRA:                  -1.558
REMARK UNBOUND:                -1.558
REMARK  Name = 
REMARK  8 active torsions:
REMARK  status: ('A' for Active; 'I' for Inactive)
REMARK    1  A    between atoms: C_1  and  N_2
REMARK    2  A    between atoms: N_2  and  C_3
REMARK    3  A    between atoms: N_2  and  C_24
REMARK    4  A    between atoms: C_3  and  C_4
REMARK    5  A    between atoms: C_7  and  C_8
REMARK    6  A    between atoms: C_8  and  N_9
REMARK    7  A    between atoms: C_10  and  C_12
REMARK    8  A    between atoms: C_24  and  C_25
REMARK                            x       y       z     vdW  Elec       q    Type
REMARK                         _______ _______ _______ _____ _____    ______ ____
ROOT
ATOM      1  C   UNL     1      49.413   7.909  16.155  0.00  0.00    +0.000 A 
ATOM      2  C   UNL     1      48.442   8.836  15.759  0.00  0.00    +0.000 A 
ATOM      3  C   UNL     1      47.867   8.747  14.496  0.00  0.00    +0.000 A 
ATOM      4  C   UNL     1      48.298   7.748  13.632  0.00  0.00    +0.000 A 
ATOM      5  N   UNL     1      49.216   6.815  13.999  0.00  0.00    +0.000 NA
ATOM      6  C   UNL     1      49.738   6.910  15.246  0.00  0.00    +0.000 A 
ENDROOT
BRANCH   1   7
ATOM      7  C   UNL     1      50.064   7.980  17.517  0.00  0.00    +0.000 C 
BRANCH   7   9
ATOM      8  C   UNL     1      49.214   8.372  19.765  0.00  0.00    +0.000 C 
ATOM      9  N   UNL     1      49.231   7.452  18.616  0.00  0.00    +0.000 NA
BRANCH   9  10
ATOM     10  C   UNL     1      49.739   6.127  19.047  0.00  0.00    +0.000 C 
BRANCH  10  11
ATOM     11  C   UNL     1      49.185   4.988  18.221  0.00  0.00    +0.000 A 
ATOM     12  C   UNL     1      47.797   4.823  18.098  0.00  0.00    +0.000 A 
ATOM     13  C   UNL     1      47.280   3.735  17.401  0.00  0.00    +0.000 A 
ATOM     14  C   UNL     1      48.168   2.839  16.833  0.00  0.00    +0.000 A 
ATOM     15  N   UNL     1      49.508   2.964  16.911  0.00  0.00    +0.000 NA
ATOM     16  C   UNL     1      49.982   4.029  17.598  0.00  0.00    +0.000 A 
ATOM     17 CL   UNL     1      51.702   4.047  17.654  0.00  0.00    +0.000 Cl
ENDBRANCH  10  11
ENDBRANCH   9  10
ENDBRANCH   7   9
ENDBRANCH   1   7
BRANCH   4  18
ATOM     18  C   UNL     1      47.742   7.671  12.232  0.00  0.00    +0.000 C 
BRANCH  18  19
ATOM     19  N   UNL     1      46.981   6.467  12.010  0.00  0.00    +0.000 N 
ATOM     20  C   UNL     1      45.628   6.381  12.184  0.00  0.00    +0.000 C 
ATOM     21  O   UNL     1      44.943   7.334  12.544  0.00  0.00    +0.000 OA
ATOM     22  H   UNL     1      47.536   5.617  12.016  0.00  0.00    +0.000 HD
BRANCH  20  23
ATOM     23  C   UNL     1      45.032   5.090  11.817  0.00  0.00    +0.000 A 
ATOM     24  C   UNL     1      44.349   4.337  12.763  0.00  0.00    +0.000 A 
ATOM     25  S   UNL     1      43.649   2.917  12.123  0.00  0.00    +0.000 S 
ATOM     26  C   UNL     1      44.282   3.232  10.574  0.00  0.00    +0.000 A 
ATOM     27  N   UNL     1      44.062   2.384   9.532  0.00  0.00    +0.000 NA
ATOM     28  C   UNL     1      44.618   2.742   8.427  0.00  0.00    +0.000 A 
ATOM     29  N   UNL     1      45.376   3.868   8.258  0.00  0.00    +0.000 N 
ATOM     30  C   UNL     1      45.594   4.771   9.267  0.00  0.00    +0.000 A 
ATOM     31  O   UNL     1      46.221   5.806   9.064  0.00  0.00    +0.000 OA
ATOM     32  C   UNL     1      45.003   4.412  10.542  0.00  0.00    +0.000 A 
ATOM     33  H   UNL     1      45.773   4.105   7.362  0.00  0.00    +0.000 HD
ENDBRANCH  20  23
ENDBRANCH  18  19
ENDBRANCH   4  18
TORSDOF 7
ENDMDL
MODEL 2
REMARK VINA RESULT:    -6.927      3.843      9.267
REMARK INTER + INTRA:         -11.319
REMARK INTER:                 -10.972
REMARK INTRA:                  -0.348
REMARK UNBOUND:                -1.558
REMARK  Name = 
REMARK  8 active torsions:
REMARK  status: ('A' for Active; 'I' for Inactive)
REMARK    1  A    between atoms: C_1  and  N_2
REMARK    2  A    between atoms: N_2  and  C_3
REMARK    3  A    between atoms: N_2  and  C_24
REMARK    4  A    between atoms: C_3  and  C_4
REMARK    5  A    between atoms: C_7  and  C_8
REMARK    6  A    between atoms: C_8  and  N_9
REMARK    7  A    between atoms: C_10  and  C_12
REMARK    8  A    between atoms: C_24  and  C_25
REMARK                            x       y       z     vdW  Elec       q    Type
REMARK                         _______ _______ _______ _____ _____    ______ ____
ROOT
ATOM      1  C   UNL     1      45.920   4.101  12.605  0.00  0.00    +0.000 A 
ATOM      2  C   UNL     1      45.999   5.464  12.299  0.00  0.00    +0.000 A 
ATOM      3  C   UNL     1      46.849   6.294  13.023  0.00  0.00    +0.000 A 
ATOM      4  C   UNL     1      47.585   5.750  14.069  0.00  0.00    +0.000 A 
ATOM      5  N   UNL     1      47.551   4.425  14.371  0.00  0.00    +0.000 NA
ATOM      6  C   UNL     1      46.735   3.637  13.629  0.00  0.00    +0.000 A 
ENDROOT
BRANCH   1   7
ATOM      7  C   UNL     1      45.001   3.173  11.843  0.00  0.00    +0.000 C 
BRANCH   7   9
ATOM      8  C   UNL     1      43.388   4.486  10.578  0.00  0.00    +0.000 C 
ATOM      9  N   UNL     1      44.609   3.668  10.509  0.00  0.00    +0.000 NA
BRANCH   9  10
ATOM     10  C   UNL     1      44.390   2.526   9.588  0.00  0.00    +0.000 C 
BRANCH  10  11
ATOM     11  C   UNL     1      45.524   2.340   8.604  0.00  0.00    +0.000 A 
ATOM     12  C   UNL     1      45.934   1.047   8.245  0.00  0.00    +0.000 A 
ATOM     13  C   UNL     1      47.024   0.868   7.397  0.00  0.00    +0.000 A 
ATOM     14  C   UNL     1      47.673   1.991   6.920  0.00  0.00    +0.000 A 
ATOM     15  N   UNL     1      47.307   3.252   7.224  0.00  0.00    +0.000 NA
ATOM     16  C   UNL     1      46.247   3.396   8.054  0.00  0.00    +0.000 A 
ATOM     17 CL   UNL     1      45.911   5.051   8.391  0.00  0.00    +0.000 Cl
ENDBRANCH  10  11
ENDBRANCH   9  10
ENDBRANCH   7   9
ENDBRANCH   1   7
BRANCH   4  18
ATOM     18  C   UNL     1      48.461   6.640  14.915  0.00  0.00    +0.000 C 
BRANCH  18  19
ATOM     19  N   UNL     1      48.265   6.420  16.326  0.00  0.00    +0.000 N 
ATOM     20  C   UNL     1      49.200   5.844  17.141  0.00  0.00    +0.000 C 
ATOM     21  O   UNL     1      50.295   5.467  16.733  0.00  0.00    +0.000 OA
ATOM     22  H   UNL     1      47.294   6.433  16.619  0.00  0.00    +0.000 HD
BRANCH  20  23
ATOM     23  C   UNL     1      48.841   5.794  18.564  0.00  0.00    +0.000 A 
ATOM     24  C   UNL     1      49.047   4.635  19.301  0.00  0.00    +0.000 A 
ATOM     25  S   UNL     1      48.656   4.805  20.955  0.00  0.00    +0.000 S 
ATOM     26  C   UNL     1      48.146   6.413  20.731  0.00  0.00    +0.000 A 
ATOM     27  N   UNL     1      47.671   7.157  21.767  0.00  0.00    +0.000 NA
ATOM     28  C   UNL     1      47.305   8.349  21.444  0.00  0.00    +0.000 A 
ATOM     29  N   UNL     1      47.366   8.875  20.182  0.00  0.00    +0.000 N 
ATOM     30  C   UNL     1      47.872   8.177  19.115  0.00  0.00    +0.000 A 
ATOM     31  O   UNL     1      47.977   8.702  18.010  0.00  0.00    +0.000 OA
ATOM     32  C   UNL     1      48.288   6.821  19.416  0.00  0.00    +0.000 A 
ATOM     33  H   UNL     1      47.079   9.822  19.993  0.00  0.00    +0.000 HD
ENDBRANCH  20  23
ENDBRANCH  18  19
ENDBRANCH   4  18
TORSDOF 7
ENDMDL
MODEL 3
REMARK VINA RESULT:    -6.827      2.004      2.919
REMARK INTER + INTRA:         -11.179
REMARK INTER:                 -10.502
REMARK INTRA:                  -0.677
REMARK UNBOUND:                -1.558
REMARK  Name = 
REMARK  8 active torsions:
REMARK  status: ('A' for Active; 'I' for Inactive)
REMARK    1  A    between atoms: C_1  and  N_2
REMARK    2  A    between atoms: N_2  and  C_3
REMARK    3  A    between atoms: N_2  and  C_24
REMARK    4  A    between atoms: C_3  and  C_4
REMARK    5  A    between atoms: C_7  and  C_8
REMARK    6  A    between atoms: C_8  and  N_9
REMARK    7  A    between atoms: C_10  and  C_12
REMARK    8  A    between atoms: C_24  and  C_25
REMARK                            x       y       z     vdW  Elec       q    Type
REMARK                         _______ _______ _______ _____ _____    ______ ____
ROOT
ATOM      1  C   UNL     1      48.879   6.758  16.851  0.00  0.00    +0.000 A 
ATOM      2  C   UNL     1      49.114   8.047  16.364  0.00  0.00    +0.000 A 
ATOM      3  C   UNL     1      48.942   8.325  15.012  0.00  0.00    +0.000 A 
ATOM      4  C   UNL     1      48.567   7.293  14.159  0.00  0.00    +0.000 A 
ATOM      5  N   UNL     1      48.301   6.038  14.608  0.00  0.00    +0.000 NA
ATOM      6  C   UNL     1      48.451   5.806  15.935  0.00  0.00    +0.000 A 
ENDROOT
BRANCH   1   7
ATOM      7  C   UNL     1      49.063   6.420  18.313  0.00  0.00    +0.000 C 
BRANCH   7   9
ATOM      8  C   UNL     1      50.014   4.916  19.975  0.00  0.00    +0.000 C 
ATOM      9  N   UNL     1      49.653   5.089  18.560  0.00  0.00    +0.000 NA
BRANCH   9  10
ATOM     10  C   UNL     1      50.857   4.903  17.713  0.00  0.00    +0.000 C 
BRANCH  10  11
ATOM     11  C   UNL     1      51.377   3.482  17.735  0.00  0.00    +0.000 A 
ATOM     12  C   UNL     1      52.691   3.224  18.153  0.00  0.00    +0.000 A 
ATOM     13  C   UNL     1      53.200   1.930  18.106  0.00  0.00    +0.000 A 
ATOM     14  C   UNL     1      52.374   0.918  17.649  0.00  0.00    +0.000 A 
ATOM     15  N   UNL     1      51.101   1.114  17.253  0.00  0.00    +0.000 NA
ATOM     16  C   UNL     1      50.635   2.384  17.305  0.00  0.00    +0.000 A 
ATOM     17 CL   UNL     1      49.015   2.500  16.735  0.00  0.00    +0.000 Cl
ENDBRANCH  10  11
ENDBRANCH   9  10
ENDBRANCH   7   9
ENDBRANCH   1   7
BRANCH   4  18
ATOM     18  C   UNL     1      48.440   7.550  12.678  0.00  0.00    +0.000 C 
BRANCH  18  19
ATOM     19  N   UNL     1      47.607   6.573  12.022  0.00  0.00    +0.000 N 
ATOM     20  C   UNL     1      46.315   6.810  11.642  0.00  0.00    +0.000 C 
ATOM     21  O   UNL     1      45.755   7.886  11.828  0.00  0.00    +0.000 OA
ATOM     22  H   UNL     1      47.923   5.615  12.132  0.00  0.00    +0.000 HD
BRANCH  20  23
ATOM     23  C   UNL     1      45.671   5.714  10.907  0.00  0.00    +0.000 A 
ATOM     24  C   UNL     1      45.827   5.602   9.532  0.00  0.00    +0.000 A 
ATOM     25  S   UNL     1      45.081   4.212   8.876  0.00  0.00    +0.000 S 
ATOM     26  C   UNL     1      44.477   3.745  10.398  0.00  0.00    +0.000 A 
ATOM     27  N   UNL     1      43.725   2.620  10.547  0.00  0.00    +0.000 NA
ATOM     28  C   UNL     1      43.323   2.404  11.752  0.00  0.00    +0.000 A 
ATOM     29  N   UNL     1      43.598   3.204  12.827  0.00  0.00    +0.000 N 
ATOM     30  C   UNL     1      44.383   4.325  12.733  0.00  0.00    +0.000 A 
ATOM     31  O   UNL     1      44.668   4.982  13.730  0.00  0.00    +0.000 OA
ATOM     32  C   UNL     1      44.854   4.627  11.395  0.00  0.00    +0.000 A 
ATOM     33  H   UNL     1      43.268   2.974  13.751  0.00  0.00    +0.000 HD
ENDBRANCH  20  23
ENDBRANCH  18  19
ENDBRANCH   4  18
TORSDOF 7
ENDMDL
MODEL 4
REMARK VINA RESULT:    -6.790      3.955      8.819
REMARK INTER + INTRA:         -11.126
REMARK INTER:                 -11.022
REMARK INTRA:                  -0.105
REMARK UNBOUND:                -1.558
REMARK  Name = 
REMARK  8 active torsions:
REMARK  status: ('A' for Active; 'I' for Inactive)
REMARK    1  A    between atoms: C_1  and  N_2
REMARK    2  A    between atoms: N_2  and  C_3
REMARK    3  A    between atoms: N_2  and  C_24
REMARK    4  A    between atoms: C_3  and  C_4
REMARK    5  A    between atoms: C_7  and  C_8
REMARK    6  A    between atoms: C_8  and  N_9
REMARK    7  A    between atoms: C_10  and  C_12
REMARK    8  A    between atoms: C_24  and  C_25
REMARK                            x       y       z     vdW  Elec       q    Type
REMARK                         _______ _______ _______ _____ _____    ______ ____
ROOT
ATOM      1  C   UNL     1      46.011   4.405  13.127  0.00  0.00    +0.000 A 
ATOM      2  C   UNL     1      46.230   5.698  12.640  0.00  0.00    +0.000 A 
ATOM      3  C   UNL     1      47.148   6.534  13.267  0.00  0.00    +0.000 A 
ATOM      4  C   UNL     1      47.811   6.072  14.398  0.00  0.00    +0.000 A 
ATOM      5  N   UNL     1      47.642   4.811  14.876  0.00  0.00    +0.000 NA
ATOM      6  C   UNL     1      46.762   4.010  14.226  0.00  0.00    +0.000 A 
ENDROOT
BRANCH   1   7
ATOM      7  C   UNL     1      45.016   3.474  12.474  0.00  0.00    +0.000 C 
BRANCH   7   9
ATOM      8  C   UNL     1      43.199   4.623  11.331  0.00  0.00    +0.000 C 
ATOM      9  N   UNL     1      44.499   3.951  11.176  0.00  0.00    +0.000 NA
BRANCH   9  10
ATOM     10  C   UNL     1      44.361   2.813  10.235  0.00  0.00    +0.000 C 
BRANCH  10  11
ATOM     11  C   UNL     1      45.313   2.901   9.062  0.00  0.00    +0.000 A 
ATOM     12  C   UNL     1      45.784   1.728   8.454  0.00  0.00    +0.000 A 
ATOM     13  C   UNL     1      46.717   1.799   7.423  0.00  0.00    +0.000 A 
ATOM     14  C   UNL     1      47.150   3.049   7.018  0.00  0.00    +0.000 A 
ATOM     15  N   UNL     1      46.716   4.203   7.562  0.00  0.00    +0.000 NA
ATOM     16  C   UNL     1      45.812   4.103   8.565  0.00  0.00    +0.000 A 
ATOM     17 CL   UNL     1      45.372   5.644   9.194  0.00  0.00    +0.000 Cl
ENDBRANCH  10  11
ENDBRANCH   9  10
ENDBRANCH   7   9
ENDBRANCH   1   7
BRANCH   4  18
ATOM     18  C   UNL     1      48.760   6.981  15.138  0.00  0.00    +0.000 C 
BRANCH  18  19
ATOM     19  N   UNL     1      49.847   6.258  15.749  0.00  0.00    +0.000 N 
ATOM     20  C   UNL     1      49.848   5.849  17.054  0.00  0.00    +0.000 C 
ATOM     21  O   UNL     1      48.911   6.065  17.818  0.00  0.00    +0.000 OA
ATOM     22  H   UNL     1      50.729   6.336  15.254  0.00  0.00    +0.000 HD
BRANCH  20  23
ATOM     23  C   UNL     1      51.011   5.048  17.456  0.00  0.00    +0.000 A 
ATOM     24  C   UNL     1      52.160   5.666  17.930  0.00  0.00    +0.000 A 
ATOM     25  S   UNL     1      53.364   4.564  18.435  0.00  0.00    +0.000 S 
ATOM     26  C   UNL     1      52.412   3.227  17.985  0.00  0.00    +0.000 A 
ATOM     27  N   UNL     1      52.861   1.951  18.144  0.00  0.00    +0.000 NA
ATOM     28  C   UNL     1      52.040   1.043  17.742  0.00  0.00    +0.000 A 
ATOM     29  N   UNL     1      50.810   1.283  17.195  0.00  0.00    +0.000 N 
ATOM     30  C   UNL     1      50.299   2.548  17.050  0.00  0.00    +0.000 A 
ATOM     31  O   UNL     1      49.164   2.725  16.619  0.00  0.00    +0.000 OA
ATOM     32  C   UNL     1      51.187   3.615  17.473  0.00  0.00    +0.000 A 
ATOM     33  H   UNL     1      50.204   0.529  16.913  0.00  0.00    +0.000 HD
ENDBRANCH  20  23
ENDBRANCH  18  19
ENDBRANCH   4  18
TORSDOF 7
ENDMDL
MODEL 5
REMARK VINA RESULT:    -6.738      1.633      2.227
REMARK INTER + INTRA:         -11.054
REMARK INTER:                  -9.716
REMARK INTRA:                  -1.337
REMARK UNBOUND:                -1.558
REMARK  Name = 
REMARK  8 active torsions:
REMARK  status: ('A' for Active; 'I' for Inactive)
REMARK    1  A    between atoms: C_1  and  N_2
REMARK    2  A    between atoms: N_2  and  C_3
REMARK    3  A    between atoms: N_2  and  C_24
REMARK    4  A    between atoms: C_3  and  C_4
REMARK    5  A    between atoms: C_7  and  C_8
REMARK    6  A    between atoms: C_8  and  N_9
REMARK    7  A    between atoms: C_10  and  C_12
REMARK    8  A    between atoms: C_24  and  C_25
REMARK                            x       y       z     vdW  Elec       q    Type
REMARK                         _______ _______ _______ _____ _____    ______ ____
ROOT
ATOM      1  C   UNL     1      50.398   7.236  15.530  0.00  0.00    +0.000 A 
ATOM      2  C   UNL     1      49.141   6.666  15.302  0.00  0.00    +0.000 A 
ATOM      3  C   UNL     1      48.477   6.897  14.102  0.00  0.00    +0.000 A 
ATOM      4  C   UNL     1      49.070   7.727  13.157  0.00  0.00    +0.000 A 
ATOM      5  N   UNL     1      50.303   8.270  13.337  0.00  0.00    +0.000 NA
ATOM      6  C   UNL     1      50.937   8.003  14.505  0.00  0.00    +0.000 A 
ENDROOT
BRANCH   1   7
ATOM      7  C   UNL     1      51.144   7.012  16.825  0.00  0.00    +0.000 C 
BRANCH   7   9
ATOM      8  C   UNL     1      50.317   7.675  19.017  0.00  0.00    +0.000 C 
ATOM      9  N   UNL     1      50.282   6.645  17.967  0.00  0.00    +0.000 NA
BRANCH   9  10
ATOM     10  C   UNL     1      50.713   5.343  18.531  0.00  0.00    +0.000 C 
BRANCH  10  11
ATOM     11  C   UNL     1      50.141   4.160  17.783  0.00  0.00    +0.000 A 
ATOM     12  C   UNL     1      48.782   4.143  17.433  0.00  0.00    +0.000 A 
ATOM     13  C   UNL     1      48.233   3.025  16.810  0.00  0.00    +0.000 A 
ATOM     14  C   UNL     1      49.062   1.951  16.543  0.00  0.00    +0.000 A 
ATOM     15  N   UNL     1      50.375   1.927  16.846  0.00  0.00    +0.000 NA
ATOM     16  C   UNL     1      50.881   3.025  17.455  0.00  0.00    +0.000 A 
ATOM     17 CL   UNL     1      52.553   2.848  17.821  0.00  0.00    +0.000 Cl
ENDBRANCH  10  11
ENDBRANCH   9  10
ENDBRANCH   7   9
ENDBRANCH   1   7
BRANCH   4  18
ATOM     18  C   UNL     1      48.341   8.050  11.877  0.00  0.00    +0.000 C 
BRANCH  18  19
ATOM     19  N   UNL     1      47.565   6.936  11.392  0.00  0.00    +0.000 N 
ATOM     20  C   UNL     1      46.199   6.931  11.333  0.00  0.00    +0.000 C 
ATOM     21  O   UNL     1      45.516   7.887  11.690  0.00  0.00    +0.000 OA
ATOM     22  H   UNL     1      48.064   6.053  11.385  0.00  0.00    +0.000 HD
BRANCH  20  23
ATOM     23  C   UNL     1      45.605   5.736  10.723  0.00  0.00    +0.000 A 
ATOM     24  C   UNL     1      45.804   5.460   9.377  0.00  0.00    +0.000 A 
ATOM     25  S   UNL     1      45.114   3.979   8.879  0.00  0.00    +0.000 S 
ATOM     26  C   UNL     1      44.479   3.685  10.430  0.00  0.00    +0.000 A 
ATOM     27  N   UNL     1      43.752   2.565  10.699  0.00  0.00    +0.000 NA
ATOM     28  C   UNL     1      43.321   2.486  11.910  0.00  0.00    +0.000 A 
ATOM     29  N   UNL     1      43.544   3.419  12.885  0.00  0.00    +0.000 N 
ATOM     30  C   UNL     1      44.301   4.543  12.673  0.00  0.00    +0.000 A 
ATOM     31  O   UNL     1      44.540   5.326  13.588  0.00  0.00    +0.000 OA
ATOM     32  C   UNL     1      44.803   4.693  11.320  0.00  0.00    +0.000 A 
ATOM     33  H   UNL     1      43.193   3.295  13.821  0.00  0.00    +0.000 HD
ENDBRANCH  20  23
ENDBRANCH  18  19
ENDBRANCH   4  18
TORSDOF 7
ENDMDL
MODEL 6
REMARK VINA RESULT:    -6.577      4.024      8.684
REMARK INTER + INTRA:         -10.826
REMARK INTER:                 -10.244
REMARK INTRA:                  -0.582
REMARK UNBOUND:                -1.558
REMARK  Name = 
REMARK  8 active torsions:
REMARK  status: ('A' for Active; 'I' for Inactive)
REMARK    1  A    between atoms: C_1  and  N_2
REMARK    2  A    between atoms: N_2  and  C_3
REMARK    3  A    between atoms: N_2  and  C_24
REMARK    4  A    between atoms: C_3  and  C_4
REMARK    5  A    between atoms: C_7  and  C_8
REMARK    6  A    between atoms: C_8  and  N_9
REMARK    7  A    between atoms: C_10  and  C_12
REMARK    8  A    between atoms: C_24  and  C_25
REMARK                            x       y       z     vdW  Elec       q    Type
REMARK                         _______ _______ _______ _____ _____    ______ ____
ROOT
ATOM      1  C   UNL     1      47.177   5.792  12.922  0.00  0.00    +0.000 A 
ATOM      2  C   UNL     1      48.002   6.893  12.669  0.00  0.00    +0.000 A 
ATOM      3  C   UNL     1      48.870   7.355  13.652  0.00  0.00    +0.000 A 
ATOM      4  C   UNL     1      48.875   6.726  14.891  0.00  0.00    +0.000 A 
ATOM      5  N   UNL     1      48.108   5.635  15.157  0.00  0.00    +0.000 NA
ATOM      6  C   UNL     1      47.293   5.191  14.169  0.00  0.00    +0.000 A 
ENDROOT
BRANCH   1   7
ATOM      7  C   UNL     1      46.217   5.268  11.878  0.00  0.00    +0.000 C 
BRANCH   7   9
ATOM      8  C   UNL     1      44.632   6.971  12.595  0.00  0.00    +0.000 C 
ATOM      9  N   UNL     1      45.196   6.244  11.447  0.00  0.00    +0.000 NA
BRANCH   9  10
ATOM     10  C   UNL     1      44.109   5.552  10.713  0.00  0.00    +0.000 C 
BRANCH  10  11
ATOM     11  C   UNL     1      44.602   4.367   9.912  0.00  0.00    +0.000 A 
ATOM     12  C   UNL     1      45.382   4.574   8.764  0.00  0.00    +0.000 A 
ATOM     13  C   UNL     1      45.777   3.493   7.981  0.00  0.00    +0.000 A 
ATOM     14  C   UNL     1      45.389   2.225   8.373  0.00  0.00    +0.000 A 
ATOM     15  N   UNL     1      44.654   1.975   9.475  0.00  0.00    +0.000 NA
ATOM     16  C   UNL     1      44.280   3.046  10.215  0.00  0.00    +0.000 A 
ATOM     17 CL   UNL     1      43.316   2.592  11.566  0.00  0.00    +0.000 Cl
ENDBRANCH  10  11
ENDBRANCH   9  10
ENDBRANCH   7   9
ENDBRANCH   1   7
BRANCH   4  18
ATOM     18  C   UNL     1      49.756   7.249  15.998  0.00  0.00    +0.000 C 
BRANCH  18  19
ATOM     19  N   UNL     1      50.698   6.262  16.461  0.00  0.00    +0.000 N 
ATOM     20  C   UNL     1      51.008   6.068  17.779  0.00  0.00    +0.000 C 
ATOM     21  O   UNL     1      50.500   6.725  18.684  0.00  0.00    +0.000 OA
ATOM     22  H   UNL     1      51.340   5.933  15.749  0.00  0.00    +0.000 HD
BRANCH  20  23
ATOM     23  C   UNL     1      51.923   4.953  18.047  0.00  0.00    +0.000 A 
ATOM     24  C   UNL     1      53.173   5.187  18.605  0.00  0.00    +0.000 A 
ATOM     25  S   UNL     1      54.051   3.757  18.928  0.00  0.00    +0.000 S 
ATOM     26  C   UNL     1      52.814   2.782  18.282  0.00  0.00    +0.000 A 
ATOM     27  N   UNL     1      52.928   1.426  18.241  0.00  0.00    +0.000 NA
ATOM     28  C   UNL     1      51.923   0.821  17.709  0.00  0.00    +0.000 A 
ATOM     29  N   UNL     1      50.809   1.439  17.211  0.00  0.00    +0.000 N 
ATOM     30  C   UNL     1      50.631   2.798  17.265  0.00  0.00    +0.000 A 
ATOM     31  O   UNL     1      49.590   3.315  16.872  0.00  0.00    +0.000 OA
ATOM     32  C   UNL     1      51.740   3.535  17.842  0.00  0.00    +0.000 A 
ATOM     33  H   UNL     1      50.046   0.911  16.819  0.00  0.00    +0.000 HD
ENDBRANCH  20  23
ENDBRANCH  18  19
ENDBRANCH   4  18
TORSDOF 7
ENDMDL
MODEL 7
REMARK VINA RESULT:    -6.293      1.662      2.024
REMARK INTER + INTRA:         -10.427
REMARK INTER:                  -9.379
REMARK INTRA:                  -1.048
REMARK UNBOUND:                -1.558
REMARK  Name = 
REMARK  8 active torsions:
REMARK  status: ('A' for Active; 'I' for Inactive)
REMARK    1  A    between atoms: C_1  and  N_2
REMARK    2  A    between atoms: N_2  and  C_3
REMARK    3  A    between atoms: N_2  and  C_24
REMARK    4  A    between atoms: C_3  and  C_4
REMARK    5  A    between atoms: C_7  and  C_8
REMARK    6  A    between atoms: C_8  and  N_9
REMARK    7  A    between atoms: C_10  and  C_12
REMARK    8  A    between atoms: C_24  and  C_25
REMARK                            x       y       z     vdW  Elec       q    Type
REMARK                         _______ _______ _______ _____ _____    ______ ____
ROOT
ATOM      1  C   UNL     1      50.073   7.146  16.283  0.00  0.00    +0.000 A 
ATOM      2  C   UNL     1      50.312   8.242  15.447  0.00  0.00    +0.000 A 
ATOM      3  C   UNL     1      49.604   8.380  14.258  0.00  0.00    +0.000 A 
ATOM      4  C   UNL     1      48.687   7.396  13.906  0.00  0.00    +0.000 A 
ATOM      5  N   UNL     1      48.412   6.337  14.712  0.00  0.00    +0.000 NA
ATOM      6  C   UNL     1      49.097   6.244  15.878  0.00  0.00    +0.000 A 
ENDROOT
BRANCH   1   7
ATOM      7  C   UNL     1      50.830   6.961  17.579  0.00  0.00    +0.000 C 
BRANCH   7   9
ATOM      8  C   UNL     1      49.640   5.951  19.447  0.00  0.00    +0.000 C 
ATOM      9  N   UNL     1      50.517   5.706  18.292  0.00  0.00    +0.000 NA
BRANCH   9  10
ATOM     10  C   UNL     1      51.769   5.055  18.747  0.00  0.00    +0.000 C 
BRANCH  10  11
ATOM     11  C   UNL     1      51.874   3.611  18.308  0.00  0.00    +0.000 A 
ATOM     12  C   UNL     1      50.866   3.046  17.512  0.00  0.00    +0.000 A 
ATOM     13  C   UNL     1      50.918   1.699  17.167  0.00  0.00    +0.000 A 
ATOM     14  C   UNL     1      51.988   0.948  17.620  0.00  0.00    +0.000 A 
ATOM     15  N   UNL     1      52.986   1.449  18.374  0.00  0.00    +0.000 NA
ATOM     16  C   UNL     1      52.907   2.761  18.698  0.00  0.00    +0.000 A 
ATOM     17 CL   UNL     1      54.220   3.261  19.692  0.00  0.00    +0.000 Cl
ENDBRANCH  10  11
ENDBRANCH   9  10
ENDBRANCH   7   9
ENDBRANCH   1   7
BRANCH   4  18
ATOM     18  C   UNL     1      47.956   7.485  12.590  0.00  0.00    +0.000 C 
BRANCH  18  19
ATOM     19  N   UNL     1      47.125   6.333  12.346  0.00  0.00    +0.000 N 
ATOM     20  C   UNL     1      45.763   6.389  12.241  0.00  0.00    +0.000 C 
ATOM     21  O   UNL     1      45.131   7.437  12.344  0.00  0.00    +0.000 OA
ATOM     22  H   UNL     1      47.568   5.446  12.560  0.00  0.00    +0.000 HD
BRANCH  20  23
ATOM     23  C   UNL     1      45.110   5.119  11.901  0.00  0.00    +0.000 A 
ATOM     24  C   UNL     1      44.418   4.403  12.869  0.00  0.00    +0.000 A 
ATOM     25  S   UNL     1      43.650   3.004  12.258  0.00  0.00    +0.000 S 
ATOM     26  C   UNL     1      44.264   3.278  10.694  0.00  0.00    +0.000 A 
ATOM     27  N   UNL     1      43.990   2.429   9.666  0.00  0.00    +0.000 NA
ATOM     28  C   UNL     1      44.538   2.753   8.546  0.00  0.00    +0.000 A 
ATOM     29  N   UNL     1      45.336   3.846   8.350  0.00  0.00    +0.000 N 
ATOM     30  C   UNL     1      45.608   4.750   9.344  0.00  0.00    +0.000 A 
ATOM     31  O   UNL     1      46.271   5.758   9.117  0.00  0.00    +0.000 OA
ATOM     32  C   UNL     1      45.029   4.429  10.635  0.00  0.00    +0.000 A 
ATOM     33  H   UNL     1      45.724   4.057   7.444  0.00  0.00    +0.000 HD
ENDBRANCH  20  23
ENDBRANCH  18  19
ENDBRANCH   4  18
TORSDOF 7
ENDMDL
MODEL 8
REMARK VINA RESULT:    -6.181      3.128      4.909
REMARK INTER + INTRA:         -10.268
REMARK INTER:                  -8.893
REMARK INTRA:                  -1.375
REMARK UNBOUND:                -1.558
REMARK  Name = 
REMARK  8 active torsions:
REMARK  status: ('A' for Active; 'I' for Inactive)
REMARK    1  A    between atoms: C_1  and  N_2
REMARK    2  A    between atoms: N_2  and  C_3
REMARK    3  A    between atoms: N_2  and  C_24
REMARK    4  A    between atoms: C_3  and  C_4
REMARK    5  A    between atoms: C_7  and  C_8
REMARK    6  A    between atoms: C_8  and  N_9
REMARK    7  A    between atoms: C_10  and  C_12
REMARK    8  A    between atoms: C_24  and  C_25
REMARK                            x       y       z     vdW  Elec       q    Type
REMARK                         _______ _______ _______ _____ _____    ______ ____
ROOT
ATOM      1  C   UNL     1      49.546   5.550  19.618  0.00  0.00    +0.000 A 
ATOM      2  C   UNL     1      48.160   5.705  19.507  0.00  0.00    +0.000 A 
ATOM      3  C   UNL     1      47.462   5.037  18.506  0.00  0.00    +0.000 A 
ATOM      4  C   UNL     1      48.170   4.247  17.608  0.00  0.00    +0.000 A 
ATOM      5  N   UNL     1      49.511   4.054  17.710  0.00  0.00    +0.000 NA
ATOM      6  C   UNL     1      50.160   4.695  18.712  0.00  0.00    +0.000 A 
ENDROOT
BRANCH   1   7
ATOM      7  C   UNL     1      50.337   6.267  20.689  0.00  0.00    +0.000 C 
BRANCH   7   9
ATOM      8  C   UNL     1      52.512   7.356  20.599  0.00  0.00    +0.000 C 
ATOM      9  N   UNL     1      51.098   7.435  20.202  0.00  0.00    +0.000 NA
BRANCH   9  10
ATOM     10  C   UNL     1      50.502   8.686  20.731  0.00  0.00    +0.000 C 
BRANCH  10  11
ATOM     11  C   UNL     1      49.417   9.244  19.837  0.00  0.00    +0.000 A 
ATOM     12  C   UNL     1      49.754   9.814  18.600  0.00  0.00    +0.000 A 
ATOM     13  C   UNL     1      48.770  10.396  17.805  0.00  0.00    +0.000 A 
ATOM     14  C   UNL     1      47.465  10.384  18.265  0.00  0.00    +0.000 A 
ATOM     15  N   UNL     1      47.091   9.835  19.438  0.00  0.00    +0.000 NA
ATOM     16  C   UNL     1      48.070   9.281  20.191  0.00  0.00    +0.000 A 
ATOM     17 CL   UNL     1      47.464   8.653  21.676  0.00  0.00    +0.000 Cl
ENDBRANCH  10  11
ENDBRANCH   9  10
ENDBRANCH   7   9
ENDBRANCH   1   7
BRANCH   4  18
ATOM     18  C   UNL     1      47.447   3.568  16.472  0.00  0.00    +0.000 C 
BRANCH  18  19
ATOM     19  N   UNL     1      46.908   4.510  15.524  0.00  0.00    +0.000 N 
ATOM     20  C   UNL     1      46.768   4.247  14.189  0.00  0.00    +0.000 C 
ATOM     21  O   UNL     1      47.091   3.174  13.686  0.00  0.00    +0.000 OA
ATOM     22  H   UNL     1      46.925   5.474  15.839  0.00  0.00    +0.000 HD
BRANCH  20  23
ATOM     23  C   UNL     1      46.115   5.306  13.410  0.00  0.00    +0.000 A 
ATOM     24  C   UNL     1      46.768   6.508  13.171  0.00  0.00    +0.000 A 
ATOM     25  S   UNL     1      45.885   7.573  12.168  0.00  0.00    +0.000 S 
ATOM     26  C   UNL     1      44.578   6.487  12.066  0.00  0.00    +0.000 A 
ATOM     27  N   UNL     1      43.460   6.788  11.350  0.00  0.00    +0.000 NA
ATOM     28  C   UNL     1      42.548   5.879  11.378  0.00  0.00    +0.000 A 
ATOM     29  N   UNL     1      42.641   4.693  12.054  0.00  0.00    +0.000 N 
ATOM     30  C   UNL     1      43.761   4.329  12.756  0.00  0.00    +0.000 A 
ATOM     31  O   UNL     1      43.839   3.229  13.294  0.00  0.00    +0.000 OA
ATOM     32  C   UNL     1      44.819   5.321  12.772  0.00  0.00    +0.000 A 
ATOM     33  H   UNL     1      41.898   4.013  12.027  0.00  0.00    +0.000 HD
ENDBRANCH  20  23
ENDBRANCH  18  19
ENDBRANCH   4  18
TORSDOF 7
ENDMDL
MODEL 9
REMARK VINA RESULT:    -6.039      3.770      8.827
REMARK INTER + INTRA:         -10.069
REMARK INTER:                  -9.385
REMARK INTRA:                  -0.683
REMARK UNBOUND:                -1.558
REMARK  Name = 
REMARK  8 active torsions:
REMARK  status: ('A' for Active; 'I' for Inactive)
REMARK    1  A    between atoms: C_1  and  N_2
REMARK    2  A    between atoms: N_2  and  C_3
REMARK    3  A    between atoms: N_2  and  C_24
REMARK    4  A    between atoms: C_3  and  C_4
REMARK    5  A    between atoms: C_7  and  C_8
REMARK    6  A    between atoms: C_8  and  N_9
REMARK    7  A    between atoms: C_10  and  C_12
REMARK    8  A    between atoms: C_24  and  C_25
REMARK                            x       y       z     vdW  Elec       q    Type
REMARK                         _______ _______ _______ _____ _____    ______ ____
ROOT
ATOM      1  C   UNL     1      47.306   5.815  13.230  0.00  0.00    +0.000 A 
ATOM      2  C   UNL     1      46.727   4.692  13.831  0.00  0.00    +0.000 A 
ATOM      3  C   UNL     1      47.078   4.338  15.130  0.00  0.00    +0.000 A 
ATOM      4  C   UNL     1      48.030   5.098  15.798  0.00  0.00    +0.000 A 
ATOM      5  N   UNL     1      48.586   6.212  15.251  0.00  0.00    +0.000 NA
ATOM      6  C   UNL     1      48.204   6.548  13.995  0.00  0.00    +0.000 A 
ENDROOT
BRANCH   1   7
ATOM      7  C   UNL     1      46.954   6.224  11.817  0.00  0.00    +0.000 C 
BRANCH   7   9
ATOM      8  C   UNL     1      45.387   7.859  12.711  0.00  0.00    +0.000 C 
ATOM      9  N   UNL     1      45.618   6.837  11.678  0.00  0.00    +0.000 NA
BRANCH   9  10
ATOM     10  C   UNL     1      44.568   5.794  11.766  0.00  0.00    +0.000 C 
BRANCH  10  11
ATOM     11  C   UNL     1      44.706   4.729  10.701  0.00  0.00    +0.000 A 
ATOM     12  C   UNL     1      45.234   5.061   9.444  0.00  0.00    +0.000 A 
ATOM     13  C   UNL     1      45.296   4.103   8.435  0.00  0.00    +0.000 A 
ATOM     14  C   UNL     1      44.834   2.829   8.713  0.00  0.00    +0.000 A 
ATOM     15  N   UNL     1      44.333   2.460   9.908  0.00  0.00    +0.000 NA
ATOM     16  C   UNL     1      44.281   3.413  10.868  0.00  0.00    +0.000 A 
ATOM     17 CL   UNL     1      43.587   2.820  12.328  0.00  0.00    +0.000 Cl
ENDBRANCH  10  11
ENDBRANCH   9  10
ENDBRANCH   7   9
ENDBRANCH   1   7
BRANCH   4  18
ATOM     18  C   UNL     1      48.479   4.697  17.181  0.00  0.00    +0.000 C 
BRANCH  18  19
ATOM     19  N   UNL     1      48.441   5.798  18.110  0.00  0.00    +0.000 N 
ATOM     20  C   UNL     1      47.356   6.100  18.885  0.00  0.00    +0.000 C 
ATOM     21  O   UNL     1      46.315   5.449  18.854  0.00  0.00    +0.000 OA
ATOM     22  H   UNL     1      49.140   6.512  17.938  0.00  0.00    +0.000 HD
BRANCH  20  23
ATOM     23  C   UNL     1      47.553   7.205  19.831  0.00  0.00    +0.000 A 
ATOM     24  C   UNL     1      47.470   6.982  21.199  0.00  0.00    +0.000 A 
ATOM     25  S   UNL     1      47.823   8.368  22.135  0.00  0.00    +0.000 S 
ATOM     26  C   UNL     1      48.043   9.324  20.743  0.00  0.00    +0.000 A 
ATOM     27  N   UNL     1      48.362  10.644  20.833  0.00  0.00    +0.000 NA
ATOM     28  C   UNL     1      48.479  11.243  19.699  0.00  0.00    +0.000 A 
ATOM     29  N   UNL     1      48.308  10.652  18.478  0.00  0.00    +0.000 N 
ATOM     30  C   UNL     1      48.025   9.317  18.335  0.00  0.00    +0.000 A 
ATOM     31  O   UNL     1      47.946   8.803  17.224  0.00  0.00    +0.000 OA
ATOM     32  C   UNL     1      47.867   8.593  19.582  0.00  0.00    +0.000 A 
ATOM     33  H   UNL     1      48.428  11.170  17.622  0.00  0.00    +0.000 HD
ENDBRANCH  20  23
ENDBRANCH  18  19
ENDBRANCH   4  18
TORSDOF 7
ENDMDL
