MODEL 1
REMARK VINA RESULT:    -8.344      0.000      0.000
REMARK INTER + INTRA:         -12.643
REMARK INTER:                 -11.759
REMARK INTRA:                  -0.884
REMARK UNBOUND:                -0.884
REMARK  Name = 
REMARK  9 active torsions:
REMARK  status: ('A' for Active; 'I' for Inactive)
REMARK    1  A    between atoms: C_1  and  C_2
REMARK    2  A    between atoms: C_6  and  C_7
REMARK    3  A    between atoms: C_7  and  C_8
REMARK    4  A    between atoms: C_8  and  O_9
REMARK    5  A    between atoms: O_9  and  C_10
REMARK    6  A    between atoms: C_13  and  C_14
REMARK    7  A    between atoms: C_20  and  N_21
REMARK    8  A    between atoms: N_21  and  C_22
REMARK    9  A    between atoms: N_24  and  C_25
REMARK                            x       y       z     vdW  Elec       q    Type
REMARK                         _______ _______ _______ _____ _____    ______ ____
ROOT
ATOM      1  C   UNL     1      48.497   7.070  13.849  0.00  0.00    +0.000 C 
ATOM      2  C   UNL     1      47.149   6.536  13.438  0.00  0.00    +0.000 A 
ATOM      3  C   UNL     1      46.269   7.285  12.633  0.00  0.00    +0.000 A 
ATOM      4 CL   UNL     1      46.661   8.860  12.030  0.00  0.00    +0.000 Cl
ATOM      5  C   UNL     1      45.011   6.785  12.283  0.00  0.00    +0.000 A 
ATOM      6  C   UNL     1      44.588   5.530  12.726  0.00  0.00    +0.000 A 
ATOM      7  C   UNL     1      45.454   4.793  13.549  0.00  0.00    +0.000 A 
ATOM      8  C   UNL     1      46.729   5.265  13.902  0.00  0.00    +0.000 A 
ENDROOT
BRANCH   8   9
ATOM      9  N   UNL     1      47.565   4.503  14.760  0.00  0.00    +0.000 N 
ATOM     10  H   UNL     1      47.847   3.627  14.319  0.00  0.00    +0.000 HD
BRANCH   9  11
ATOM     11  C   UNL     1      47.473   4.413  16.199  0.00  0.00    +0.000 C 
ATOM     12  C   UNL     1      48.730   4.972  16.899  0.00  0.00    +0.000 C 
ATOM     13  N   UNL     1      48.969   3.672  17.551  0.00  0.00    +0.000 NA
ATOM     14  C   UNL     1      48.668   3.763  18.979  0.00  0.00    +0.000 C 
ATOM     15  C   UNL     1      47.854   3.050  16.813  0.00  0.00    +0.000 C 
ENDBRANCH   9  11
ENDBRANCH   8   9
BRANCH   6  16
ATOM     16  C   UNL     1      43.225   5.040  12.287  0.00  0.00    +0.000 C 
BRANCH  16  17
ATOM     17  C   UNL     1      43.230   4.025  11.149  0.00  0.00    +0.000 C 
BRANCH  17  18
ATOM     18  O   UNL     1      43.570   4.678   9.920  0.00  0.00    +0.000 OA
BRANCH  18  19
ATOM     19  C   UNL     1      44.513   3.957   9.214  0.00  0.00    +0.000 A 
ATOM     20  C   UNL     1      44.537   2.587   9.422  0.00  0.00    +0.000 A 
ATOM     21  C   UNL     1      45.474   1.828   8.719  0.00  0.00    +0.000 A 
ATOM     22  C   UNL     1      46.345   2.466   7.839  0.00  0.00    +0.000 A 
ATOM     23  C   UNL     1      46.234   3.842   7.685  0.00  0.00    +0.000 A 
ATOM     24  N   UNL     1      45.346   4.600   8.363  0.00  0.00    +0.000 NA
BRANCH  22  25
ATOM     25  C   UNL     1      47.367   1.760   7.034  0.00  0.00    +0.000 C 
ATOM     26  N   UNL     1      48.362   2.515   6.476  0.00  0.00    +0.000 N 
ATOM     27  O   UNL     1      47.308   0.553   6.837  0.00  0.00    +0.000 OA
ATOM     28  H   UNL     1      48.316   3.520   6.410  0.00  0.00    +0.000 HD
ATOM     29  H   UNL     1      48.988   2.031   5.846  0.00  0.00    +0.000 HD
ENDBRANCH  22  25
ENDBRANCH  18  19
ENDBRANCH  17  18
ENDBRANCH  16  17
ENDBRANCH   6  16
TORSDOF 7
ENDMDL
MODEL 2
REMARK VINA RESULT:    -7.723      3.276      5.364
REMARK INTER + INTRA:         -11.767
REMARK INTER:                 -11.253
REMARK INTRA:                  -0.514
REMARK UNBOUND:                -0.884
REMARK  Name = 
REMARK  9 active torsions:
REMARK  status: ('A' for Active; 'I' for Inactive)
REMARK    1  A    between atoms: C_1  and  C_2
REMARK    2  A    between atoms: C_6  and  C_7
REMARK    3  A    between atoms: C_7  and  C_8
REMARK    4  A    between atoms: C_8  and  O_9
REMARK    5  A    between atoms: O_9  and  C_10
REMARK    6  A    between atoms: C_13  and  C_14
REMARK    7  A    between atoms: C_20  and  N_21
REMARK    8  A    between atoms: N_21  and  C_22
REMARK    9  A    between atoms: N_24  and  C_25
REMARK                            x       y       z     vdW  Elec       q    Type
REMARK                         _______ _______ _______ _____ _____    ______ ____
ROOT
ATOM      1  C   UNL     1      47.255   9.766  12.381  0.00  0.00    +0.000 C 
ATOM      2  C   UNL     1      46.666   8.382  12.292  0.00  0.00    +0.000 A 
ATOM      3  C   UNL     1      47.474   7.228  12.330  0.00  0.00    +0.000 A 
ATOM      4 CL   UNL     1      49.195   7.296  12.503  0.00  0.00    +0.000 Cl
ATOM      5  C   UNL     1      46.913   5.952  12.218  0.00  0.00    +0.000 A 
ATOM      6  C   UNL     1      45.536   5.785  12.061  0.00  0.00    +0.000 A 
ATOM      7  C   UNL     1      44.732   6.933  11.999  0.00  0.00    +0.000 A 
ATOM      8  C   UNL     1      45.267   8.225  12.124  0.00  0.00    +0.000 A 
ENDROOT
BRANCH   8   9
ATOM      9  N   UNL     1      44.426   9.365  12.027  0.00  0.00    +0.000 N 
ATOM     10  H   UNL     1      44.011   9.596  12.930  0.00  0.00    +0.000 HD
BRANCH   9  11
ATOM     11  C   UNL     1      43.590   9.729  10.906  0.00  0.00    +0.000 C 
ATOM     12  C   UNL     1      44.160  10.929  10.120  0.00  0.00    +0.000 C 
ATOM     13  N   UNL     1      42.928  11.700  10.367  0.00  0.00    +0.000 NA
ATOM     14  C   UNL     1      42.153  11.819   9.132  0.00  0.00    +0.000 C 
ATOM     15  C   UNL     1      42.385  10.635  11.231  0.00  0.00    +0.000 C 
ENDBRANCH   9  11
ENDBRANCH   8   9
BRANCH   6  16
ATOM     16  C   UNL     1      44.995   4.374  11.975  0.00  0.00    +0.000 C 
BRANCH  16  17
ATOM     17  C   UNL     1      43.646   4.231  11.280  0.00  0.00    +0.000 C 
BRANCH  17  18
ATOM     18  O   UNL     1      43.740   4.717   9.935  0.00  0.00    +0.000 OA
BRANCH  18  19
ATOM     19  C   UNL     1      44.649   3.982   9.200  0.00  0.00    +0.000 A 
ATOM     20  C   UNL     1      44.633   2.608   9.379  0.00  0.00    +0.000 A 
ATOM     21  C   UNL     1      45.535   1.835   8.646  0.00  0.00    +0.000 A 
ATOM     22  C   UNL     1      46.412   2.464   7.766  0.00  0.00    +0.000 A 
ATOM     23  C   UNL     1      46.343   3.846   7.642  0.00  0.00    +0.000 A 
ATOM     24  N   UNL     1      45.490   4.617   8.350  0.00  0.00    +0.000 NA
BRANCH  22  25
ATOM     25  C   UNL     1      47.400   1.743   6.930  0.00  0.00    +0.000 C 
ATOM     26  N   UNL     1      48.513   2.433   6.535  0.00  0.00    +0.000 N 
ATOM     27  O   UNL     1      47.214   0.589   6.570  0.00  0.00    +0.000 OA
ATOM     28  H   UNL     1      48.590   3.436   6.603  0.00  0.00    +0.000 HD
ATOM     29  H   UNL     1      49.122   1.958   5.881  0.00  0.00    +0.000 HD
ENDBRANCH  22  25
ENDBRANCH  18  19
ENDBRANCH  17  18
ENDBRANCH  16  17
ENDBRANCH   6  16
TORSDOF 7
ENDMDL
MODEL 3
REMARK VINA RESULT:    -7.622      2.701      4.551
REMARK INTER + INTRA:         -11.626
REMARK INTER:                 -10.746
REMARK INTRA:                  -0.880
REMARK UNBOUND:                -0.884
REMARK  Name = 
REMARK  9 active torsions:
REMARK  status: ('A' for Active; 'I' for Inactive)
REMARK    1  A    between atoms: C_1  and  C_2
REMARK    2  A    between atoms: C_6  and  C_7
REMARK    3  A    between atoms: C_7  and  C_8
REMARK    4  A    between atoms: C_8  and  O_9
REMARK    5  A    between atoms: O_9  and  C_10
REMARK    6  A    between atoms: C_13  and  C_14
REMARK    7  A    between atoms: C_20  and  N_21
REMARK    8  A    between atoms: N_21  and  C_22
REMARK    9  A    between atoms: N_24  and  C_25
REMARK                            x       y       z     vdW  Elec       q    Type
REMARK                         _______ _______ _______ _____ _____    ______ ____
ROOT
ATOM      1  C   UNL     1      48.624   6.622  14.032  0.00  0.00    +0.000 C 
ATOM      2  C   UNL     1      47.252   6.251  13.530  0.00  0.00    +0.000 A 
ATOM      3  C   UNL     1      46.623   5.050  13.910  0.00  0.00    +0.000 A 
ATOM      4 CL   UNL     1      47.351   3.914  14.996  0.00  0.00    +0.000 Cl
ATOM      5  C   UNL     1      45.361   4.708  13.414  0.00  0.00    +0.000 A 
ATOM      6  C   UNL     1      44.690   5.547  12.520  0.00  0.00    +0.000 A 
ATOM      7  C   UNL     1      45.326   6.732  12.121  0.00  0.00    +0.000 A 
ATOM      8  C   UNL     1      46.585   7.106  12.617  0.00  0.00    +0.000 A 
ENDROOT
BRANCH   8   9
ATOM      9  N   UNL     1      47.210   8.300  12.167  0.00  0.00    +0.000 N 
ATOM     10  H   UNL     1      48.213   8.165  12.037  0.00  0.00    +0.000 HD
BRANCH   9  11
ATOM     11  C   UNL     1      46.860   9.651  12.539  0.00  0.00    +0.000 C 
ATOM     12  C   UNL     1      45.586  10.142  11.817  0.00  0.00    +0.000 C 
ATOM     13  N   UNL     1      46.333  11.264  11.220  0.00  0.00    +0.000 NA
ATOM     14  C   UNL     1      45.935  12.523  11.848  0.00  0.00    +0.000 C 
ATOM     15  C   UNL     1      47.604  10.771  11.783  0.00  0.00    +0.000 C 
ENDBRANCH   9  11
ENDBRANCH   8   9
BRANCH   6  16
ATOM     16  C   UNL     1      43.316   5.128  12.045  0.00  0.00    +0.000 C 
BRANCH  16  17
ATOM     17  C   UNL     1      43.242   4.644  10.601  0.00  0.00    +0.000 C 
BRANCH  17  18
ATOM     18  O   UNL     1      43.609   3.261  10.534  0.00  0.00    +0.000 OA
BRANCH  18  19
ATOM     19  C   UNL     1      44.530   3.035   9.531  0.00  0.00    +0.000 A 
ATOM     20  C   UNL     1      44.955   4.139   8.811  0.00  0.00    +0.000 A 
ATOM     21  C   UNL     1      45.890   3.946   7.794  0.00  0.00    +0.000 A 
ATOM     22  C   UNL     1      46.364   2.661   7.539  0.00  0.00    +0.000 A 
ATOM     23  C   UNL     1      45.891   1.618   8.325  0.00  0.00    +0.000 A 
ATOM     24  N   UNL     1      44.976   1.777   9.305  0.00  0.00    +0.000 NA
BRANCH  22  25
ATOM     25  C   UNL     1      47.365   2.343   6.496  0.00  0.00    +0.000 C 
ATOM     26  N   UNL     1      47.472   3.207   5.440  0.00  0.00    +0.000 N 
ATOM     27  O   UNL     1      48.044   1.326   6.548  0.00  0.00    +0.000 OA
ATOM     28  H   UNL     1      46.780   3.912   5.236  0.00  0.00    +0.000 HD
ATOM     29  H   UNL     1      48.084   2.918   4.689  0.00  0.00    +0.000 HD
ENDBRANCH  22  25
ENDBRANCH  18  19
ENDBRANCH  17  18
ENDBRANCH  16  17
ENDBRANCH   6  16
TORSDOF 7
ENDMDL
MODEL 4
REMARK VINA RESULT:    -7.449      2.250      2.593
REMARK INTER + INTRA:         -11.381
REMARK INTER:                 -10.429
REMARK INTRA:                  -0.953
REMARK UNBOUND:                -0.884
REMARK  Name = 
REMARK  9 active torsions:
REMARK  status: ('A' for Active; 'I' for Inactive)
REMARK    1  A    between atoms: C_1  and  C_2
REMARK    2  A    between atoms: C_6  and  C_7
REMARK    3  A    between atoms: C_7  and  C_8
REMARK    4  A    between atoms: C_8  and  O_9
REMARK    5  A    between atoms: O_9  and  C_10
REMARK    6  A    between atoms: C_13  and  C_14
REMARK    7  A    between atoms: C_20  and  N_21
REMARK    8  A    between atoms: N_21  and  C_22
REMARK    9  A    between atoms: N_24  and  C_25
REMARK                            x       y       z     vdW  Elec       q    Type
REMARK                         _______ _______ _______ _____ _____    ______ ____
ROOT
ATOM      1  C   UNL     1      47.377   9.118  12.078  0.00  0.00    +0.000 C 
ATOM      2  C   UNL     1      46.537   7.882  12.274  0.00  0.00    +0.000 A 
ATOM      3  C   UNL     1      45.189   7.830  11.868  0.00  0.00    +0.000 A 
ATOM      4 CL   UNL     1      44.392   9.158  11.094  0.00  0.00    +0.000 Cl
ATOM      5  C   UNL     1      44.416   6.684  12.081  0.00  0.00    +0.000 A 
ATOM      6  C   UNL     1      44.957   5.560  12.709  0.00  0.00    +0.000 A 
ATOM      7  C   UNL     1      46.292   5.619  13.136  0.00  0.00    +0.000 A 
ATOM      8  C   UNL     1      47.095   6.751  12.920  0.00  0.00    +0.000 A 
ENDROOT
BRANCH   8   9
ATOM      9  N   UNL     1      48.434   6.785  13.393  0.00  0.00    +0.000 N 
ATOM     10  H   UNL     1      49.037   6.179  12.837  0.00  0.00    +0.000 HD
BRANCH   9  11
ATOM     11  C   UNL     1      48.861   6.909  14.768  0.00  0.00    +0.000 C 
ATOM     12  C   UNL     1      48.481   8.277  15.374  0.00  0.00    +0.000 C 
ATOM     13  N   UNL     1      49.898   8.566  15.659  0.00  0.00    +0.000 NA
ATOM     14  C   UNL     1      50.147   8.489  17.098  0.00  0.00    +0.000 C 
ATOM     15  C   UNL     1      50.329   7.330  14.980  0.00  0.00    +0.000 C 
ENDBRANCH   9  11
ENDBRANCH   8   9
BRANCH   6  16
ATOM     16  C   UNL     1      44.071   4.345  12.882  0.00  0.00    +0.000 C 
BRANCH  16  17
ATOM     17  C   UNL     1      44.279   3.232  11.862  0.00  0.00    +0.000 C 
BRANCH  17  18
ATOM     18  O   UNL     1      43.784   3.648  10.584  0.00  0.00    +0.000 OA
BRANCH  18  19
ATOM     19  C   UNL     1      44.675   3.337   9.576  0.00  0.00    +0.000 A 
ATOM     20  C   UNL     1      45.219   4.400   8.872  0.00  0.00    +0.000 A 
ATOM     21  C   UNL     1      46.128   4.120   7.851  0.00  0.00    +0.000 A 
ATOM     22  C   UNL     1      46.457   2.795   7.576  0.00  0.00    +0.000 A 
ATOM     23  C   UNL     1      45.873   1.798   8.347  0.00  0.00    +0.000 A 
ATOM     24  N   UNL     1      44.981   2.042   9.331  0.00  0.00    +0.000 NA
BRANCH  22  25
ATOM     25  C   UNL     1      47.418   2.384   6.527  0.00  0.00    +0.000 C 
ATOM     26  N   UNL     1      47.418   3.097   5.359  0.00  0.00    +0.000 N 
ATOM     27  O   UNL     1      48.156   1.420   6.675  0.00  0.00    +0.000 OA
ATOM     28  H   UNL     1      46.677   3.732   5.104  0.00  0.00    +0.000 HD
ATOM     29  H   UNL     1      48.005   2.738   4.618  0.00  0.00    +0.000 HD
ENDBRANCH  22  25
ENDBRANCH  18  19
ENDBRANCH  17  18
ENDBRANCH  16  17
ENDBRANCH   6  16
TORSDOF 7
ENDMDL
MODEL 5
REMARK VINA RESULT:    -7.295      2.779      4.272
REMARK INTER + INTRA:         -11.164
REMARK INTER:                 -10.609
REMARK INTRA:                  -0.555
REMARK UNBOUND:                -0.884
REMARK  Name = 
REMARK  9 active torsions:
REMARK  status: ('A' for Active; 'I' for Inactive)
REMARK    1  A    between atoms: C_1  and  C_2
REMARK    2  A    between atoms: C_6  and  C_7
REMARK    3  A    between atoms: C_7  and  C_8
REMARK    4  A    between atoms: C_8  and  O_9
REMARK    5  A    between atoms: O_9  and  C_10
REMARK    6  A    between atoms: C_13  and  C_14
REMARK    7  A    between atoms: C_20  and  N_21
REMARK    8  A    between atoms: N_21  and  C_22
REMARK    9  A    between atoms: N_24  and  C_25
REMARK                            x       y       z     vdW  Elec       q    Type
REMARK                         _______ _______ _______ _____ _____    ______ ____
ROOT
ATOM      1  C   UNL     1      49.197   6.587  15.338  0.00  0.00    +0.000 C 
ATOM      2  C   UNL     1      48.202   6.487  14.211  0.00  0.00    +0.000 A 
ATOM      3  C   UNL     1      47.204   5.493  14.187  0.00  0.00    +0.000 A 
ATOM      4 CL   UNL     1      47.020   4.322  15.450  0.00  0.00    +0.000 Cl
ATOM      5  C   UNL     1      46.306   5.398  13.120  0.00  0.00    +0.000 A 
ATOM      6  C   UNL     1      46.375   6.284  12.043  0.00  0.00    +0.000 A 
ATOM      7  C   UNL     1      47.383   7.260  12.052  0.00  0.00    +0.000 A 
ATOM      8  C   UNL     1      48.288   7.387  13.119  0.00  0.00    +0.000 A 
ENDROOT
BRANCH   8   9
ATOM      9  N   UNL     1      49.314   8.369  13.079  0.00  0.00    +0.000 N 
ATOM     10  H   UNL     1      49.015   9.233  13.533  0.00  0.00    +0.000 HD
BRANCH   9  11
ATOM     11  C   UNL     1      50.263   8.583  12.012  0.00  0.00    +0.000 C 
ATOM     12  C   UNL     1      51.705   8.741  12.539  0.00  0.00    +0.000 C 
ATOM     13  N   UNL     1      51.804  10.078  11.927  0.00  0.00    +0.000 NA
ATOM     14  C   UNL     1      52.696  10.037  10.769  0.00  0.00    +0.000 C 
ATOM     15  C   UNL     1      50.390  10.035  11.507  0.00  0.00    +0.000 C 
ENDBRANCH   9  11
ENDBRANCH   8   9
BRANCH   6  16
ATOM     16  C   UNL     1      45.354   6.141  10.935  0.00  0.00    +0.000 C 
BRANCH  16  17
ATOM     17  C   UNL     1      44.289   5.073  11.161  0.00  0.00    +0.000 C 
BRANCH  17  18
ATOM     18  O   UNL     1      43.737   4.668   9.903  0.00  0.00    +0.000 OA
BRANCH  18  19
ATOM     19  C   UNL     1      44.645   3.926   9.173  0.00  0.00    +0.000 A 
ATOM     20  C   UNL     1      44.712   2.570   9.452  0.00  0.00    +0.000 A 
ATOM     21  C   UNL     1      45.615   1.791   8.727  0.00  0.00    +0.000 A 
ATOM     22  C   UNL     1      46.410   2.394   7.756  0.00  0.00    +0.000 A 
ATOM     23  C   UNL     1      46.260   3.757   7.537  0.00  0.00    +0.000 A 
ATOM     24  N   UNL     1      45.404   4.536   8.233  0.00  0.00    +0.000 NA
BRANCH  22  25
ATOM     25  C   UNL     1      47.390   1.663   6.922  0.00  0.00    +0.000 C 
ATOM     26  N   UNL     1      48.456   2.370   6.436  0.00  0.00    +0.000 N 
ATOM     27  O   UNL     1      47.238   0.482   6.639  0.00  0.00    +0.000 OA
ATOM     28  H   UNL     1      48.494   3.378   6.441  0.00  0.00    +0.000 HD
ATOM     29  H   UNL     1      49.056   1.881   5.785  0.00  0.00    +0.000 HD
ENDBRANCH  22  25
ENDBRANCH  18  19
ENDBRANCH  17  18
ENDBRANCH  16  17
ENDBRANCH   6  16
TORSDOF 7
ENDMDL
MODEL 6
REMARK VINA RESULT:    -6.300      4.149      8.378
REMARK INTER + INTRA:          -9.762
REMARK INTER:                  -9.221
REMARK INTRA:                  -0.541
REMARK UNBOUND:                -0.884
REMARK  Name = 
REMARK  9 active torsions:
REMARK  status: ('A' for Active; 'I' for Inactive)
REMARK    1  A    between atoms: C_1  and  C_2
REMARK    2  A    between atoms: C_6  and  C_7
REMARK    3  A    between atoms: C_7  and  C_8
REMARK    4  A    between atoms: C_8  and  O_9
REMARK    5  A    between atoms: O_9  and  C_10
REMARK    6  A    between atoms: C_13  and  C_14
REMARK    7  A    between atoms: C_20  and  N_21
REMARK    8  A    between atoms: N_21  and  C_22
REMARK    9  A    between atoms: N_24  and  C_25
REMARK                            x       y       z     vdW  Elec       q    Type
REMARK                         _______ _______ _______ _____ _____    ______ ____
ROOT
ATOM      1  C   UNL     1      42.695   5.512  11.405  0.00  0.00    +0.000 C 
ATOM      2  C   UNL     1      44.094   6.058  11.526  0.00  0.00    +0.000 A 
ATOM      3  C   UNL     1      45.185   5.235  11.869  0.00  0.00    +0.000 A 
ATOM      4 CL   UNL     1      45.020   3.535  12.156  0.00  0.00    +0.000 Cl
ATOM      5  C   UNL     1      46.472   5.763  12.003  0.00  0.00    +0.000 A 
ATOM      6  C   UNL     1      46.714   7.124  11.807  0.00  0.00    +0.000 A 
ATOM      7  C   UNL     1      45.625   7.951  11.490  0.00  0.00    +0.000 A 
ATOM      8  C   UNL     1      44.325   7.443  11.333  0.00  0.00    +0.000 A 
ENDROOT
BRANCH   8   9
ATOM      9  N   UNL     1      43.242   8.315  11.041  0.00  0.00    +0.000 N 
ATOM     10  H   UNL     1      42.595   7.890  10.377  0.00  0.00    +0.000 HD
BRANCH   9  11
ATOM     11  C   UNL     1      43.296   9.756  10.943  0.00  0.00    +0.000 C 
ATOM     12  C   UNL     1      41.893  10.382  10.795  0.00  0.00    +0.000 C 
ATOM     13  N   UNL     1      42.281  10.997   9.514  0.00  0.00    +0.000 NA
ATOM     14  C   UNL     1      42.431  12.443   9.675  0.00  0.00    +0.000 C 
ATOM     15  C   UNL     1      43.593  10.324   9.540  0.00  0.00    +0.000 C 
ENDBRANCH   9  11
ENDBRANCH   8   9
BRANCH   6  16
ATOM     16  C   UNL     1      48.136   7.623  11.941  0.00  0.00    +0.000 C 
BRANCH  16  17
ATOM     17  C   UNL     1      49.014   6.843  12.914  0.00  0.00    +0.000 C 
BRANCH  17  18
ATOM     18  O   UNL     1      48.845   7.360  14.239  0.00  0.00    +0.000 OA
BRANCH  18  19
ATOM     19  C   UNL     1      48.541   6.353  15.134  0.00  0.00    +0.000 A 
ATOM     20  C   UNL     1      49.083   6.460  16.405  0.00  0.00    +0.000 A 
ATOM     21  C   UNL     1      48.790   5.462  17.335  0.00  0.00    +0.000 A 
ATOM     22  C   UNL     1      47.969   4.402  16.961  0.00  0.00    +0.000 A 
ATOM     23  C   UNL     1      47.458   4.389  15.669  0.00  0.00    +0.000 A 
ATOM     24  N   UNL     1      47.738   5.334  14.746  0.00  0.00    +0.000 NA
BRANCH  22  25
ATOM     25  C   UNL     1      47.582   3.297  17.868  0.00  0.00    +0.000 C 
ATOM     26  N   UNL     1      48.372   3.076  18.963  0.00  0.00    +0.000 N 
ATOM     27  O   UNL     1      46.619   2.581  17.632  0.00  0.00    +0.000 OA
ATOM     28  H   UNL     1      49.292   3.476  19.065  0.00  0.00    +0.000 HD
ATOM     29  H   UNL     1      48.153   2.255  19.511  0.00  0.00    +0.000 HD
ENDBRANCH  22  25
ENDBRANCH  18  19
ENDBRANCH  17  18
ENDBRANCH  16  17
ENDBRANCH   6  16
TORSDOF 7
ENDMDL
MODEL 7
REMARK VINA RESULT:    -6.162      4.041      7.400
REMARK INTER + INTRA:          -9.567
REMARK INTER:                  -8.625
REMARK INTRA:                  -0.942
REMARK UNBOUND:                -0.884
REMARK  Name = 
REMARK  9 active torsions:
REMARK  status: ('A' for Active; 'I' for Inactive)
REMARK    1  A    between atoms: C_1  and  C_2
REMARK    2  A    between atoms: C_6  and  C_7
REMARK    3  A    between atoms: C_7  and  C_8
REMARK    4  A    between atoms: C_8  and  O_9
REMARK    5  A    between atoms: O_9  and  C_10
REMARK    6  A    between atoms: C_13  and  C_14
REMARK    7  A    between atoms: C_20  and  N_21
REMARK    8  A    between atoms: N_21  and  C_22
REMARK    9  A    between atoms: N_24  and  C_25
REMARK                            x       y       z     vdW  Elec       q    Type
REMARK                         _______ _______ _______ _____ _____    ______ ____
ROOT
ATOM      1  C   UNL     1      43.327  10.088  11.240  0.00  0.00    +0.000 C 
ATOM      2  C   UNL     1      44.746   9.657  11.505  0.00  0.00    +0.000 A 
ATOM      3  C   UNL     1      45.801  10.586  11.587  0.00  0.00    +0.000 A 
ATOM      4 CL   UNL     1      45.561  12.293  11.414  0.00  0.00    +0.000 Cl
ATOM      5  C   UNL     1      47.117  10.167  11.807  0.00  0.00    +0.000 A 
ATOM      6  C   UNL     1      47.424   8.811  11.946  0.00  0.00    +0.000 A 
ATOM      7  C   UNL     1      46.378   7.881  11.841  0.00  0.00    +0.000 A 
ATOM      8  C   UNL     1      45.046   8.277  11.637  0.00  0.00    +0.000 A 
ENDROOT
BRANCH   8   9
ATOM      9  N   UNL     1      44.019   7.305  11.506  0.00  0.00    +0.000 N 
ATOM     10  H   UNL     1      43.193   7.566  12.046  0.00  0.00    +0.000 HD
BRANCH   9  11
ATOM     11  C   UNL     1      44.192   5.877  11.384  0.00  0.00    +0.000 C 
ATOM     12  C   UNL     1      42.846   5.121  11.424  0.00  0.00    +0.000 C 
ATOM     13  N   UNL     1      43.292   4.352  12.600  0.00  0.00    +0.000 NA
ATOM     14  C   UNL     1      43.560   2.965  12.221  0.00  0.00    +0.000 C 
ATOM     15  C   UNL     1      44.543   5.128  12.686  0.00  0.00    +0.000 C 
ENDBRANCH   9  11
ENDBRANCH   8   9
BRANCH   6  16
ATOM     16  C   UNL     1      48.864   8.430  12.210  0.00  0.00    +0.000 C 
BRANCH  16  17
ATOM     17  C   UNL     1      49.068   7.252  13.156  0.00  0.00    +0.000 C 
BRANCH  17  18
ATOM     18  O   UNL     1      48.834   7.669  14.506  0.00  0.00    +0.000 OA
BRANCH  18  19
ATOM     19  C   UNL     1      48.503   6.597  15.311  0.00  0.00    +0.000 A 
ATOM     20  C   UNL     1      47.668   5.637  14.763  0.00  0.00    +0.000 A 
ATOM     21  C   UNL     1      47.320   4.537  15.548  0.00  0.00    +0.000 A 
ATOM     22  C   UNL     1      47.819   4.440  16.845  0.00  0.00    +0.000 A 
ATOM     23  C   UNL     1      48.663   5.445  17.301  0.00  0.00    +0.000 A 
ATOM     24  N   UNL     1      49.004   6.525  16.567  0.00  0.00    +0.000 NA
BRANCH  22  25
ATOM     25  C   UNL     1      47.526   3.314  17.759  0.00  0.00    +0.000 C 
ATOM     26  N   UNL     1      48.370   3.128  18.821  0.00  0.00    +0.000 N 
ATOM     27  O   UNL     1      46.592   2.550  17.557  0.00  0.00    +0.000 OA
ATOM     28  H   UNL     1      49.272   3.573  18.888  0.00  0.00    +0.000 HD
ATOM     29  H   UNL     1      48.214   2.294  19.372  0.00  0.00    +0.000 HD
ENDBRANCH  22  25
ENDBRANCH  18  19
ENDBRANCH  17  18
ENDBRANCH  16  17
ENDBRANCH   6  16
TORSDOF 7
ENDMDL
MODEL 8
REMARK VINA RESULT:    -6.043      1.740      2.264
REMARK INTER + INTRA:          -9.401
REMARK INTER:                  -8.997
REMARK INTRA:                  -0.404
REMARK UNBOUND:                -0.884
REMARK  Name = 
REMARK  9 active torsions:
REMARK  status: ('A' for Active; 'I' for Inactive)
REMARK    1  A    between atoms: C_1  and  C_2
REMARK    2  A    between atoms: C_6  and  C_7
REMARK    3  A    between atoms: C_7  and  C_8
REMARK    4  A    between atoms: C_8  and  O_9
REMARK    5  A    between atoms: O_9  and  C_10
REMARK    6  A    between atoms: C_13  and  C_14
REMARK    7  A    between atoms: C_20  and  N_21
REMARK    8  A    between atoms: N_21  and  C_22
REMARK    9  A    between atoms: N_24  and  C_25
REMARK                            x       y       z     vdW  Elec       q    Type
REMARK                         _______ _______ _______ _____ _____    ______ ____
ROOT
ATOM      1  C   UNL     1      48.630   9.785  14.361  0.00  0.00    +0.000 C 
ATOM      2  C   UNL     1      48.021   8.611  13.639  0.00  0.00    +0.000 A 
ATOM      3  C   UNL     1      47.539   8.718  12.320  0.00  0.00    +0.000 A 
ATOM      4 CL   UNL     1      47.622  10.190  11.411  0.00  0.00    +0.000 Cl
ATOM      5  C   UNL     1      46.952   7.625  11.675  0.00  0.00    +0.000 A 
ATOM      6  C   UNL     1      46.823   6.395  12.323  0.00  0.00    +0.000 A 
ATOM      7  C   UNL     1      47.281   6.292  13.646  0.00  0.00    +0.000 A 
ATOM      8  C   UNL     1      47.888   7.369  14.311  0.00  0.00    +0.000 A 
ENDROOT
BRANCH   8   9
ATOM      9  N   UNL     1      48.312   7.235  15.660  0.00  0.00    +0.000 N 
ATOM     10  H   UNL     1      48.745   8.095  15.997  0.00  0.00    +0.000 HD
BRANCH   9  11
ATOM     11  C   UNL     1      48.843   6.046  16.284  0.00  0.00    +0.000 C 
ATOM     12  C   UNL     1      48.551   6.004  17.799  0.00  0.00    +0.000 C 
ATOM     13  N   UNL     1      49.993   5.934  18.094  0.00  0.00    +0.000 NA
ATOM     14  C   UNL     1      50.345   4.596  18.569  0.00  0.00    +0.000 C 
ATOM     15  C   UNL     1      50.335   6.097  16.669  0.00  0.00    +0.000 C 
ENDBRANCH   9  11
ENDBRANCH   8   9
BRANCH   6  16
ATOM     16  C   UNL     1      46.203   5.247  11.556  0.00  0.00    +0.000 C 
BRANCH  16  17
ATOM     17  C   UNL     1      44.681   5.252  11.487  0.00  0.00    +0.000 C 
BRANCH  17  18
ATOM     18  O   UNL     1      44.258   5.198  10.119  0.00  0.00    +0.000 OA
BRANCH  18  19
ATOM     19  C   UNL     1      44.926   4.206   9.427  0.00  0.00    +0.000 A 
ATOM     20  C   UNL     1      45.737   4.611   8.380  0.00  0.00    +0.000 A 
ATOM     21  C   UNL     1      46.431   3.635   7.664  0.00  0.00    +0.000 A 
ATOM     22  C   UNL     1      46.288   2.297   8.024  0.00  0.00    +0.000 A 
ATOM     23  C   UNL     1      45.465   1.989   9.100  0.00  0.00    +0.000 A 
ATOM     24  N   UNL     1      44.772   2.913   9.799  0.00  0.00    +0.000 NA
BRANCH  22  25
ATOM     25  C   UNL     1      46.985   1.181   7.345  0.00  0.00    +0.000 C 
ATOM     26  N   UNL     1      46.586  -0.091   7.651  0.00  0.00    +0.000 N 
ATOM     27  O   UNL     1      47.911   1.381   6.569  0.00  0.00    +0.000 OA
ATOM     28  H   UNL     1      46.007  -0.307   8.448  0.00  0.00    +0.000 HD
ATOM     29  H   UNL     1      47.142  -0.839   7.258  0.00  0.00    +0.000 HD
ENDBRANCH  22  25
ENDBRANCH  18  19
ENDBRANCH  17  18
ENDBRANCH  16  17
ENDBRANCH   6  16
TORSDOF 7
ENDMDL
MODEL 9
REMARK VINA RESULT:    -5.929      4.188      7.202
REMARK INTER + INTRA:          -9.239
REMARK INTER:                  -7.776
REMARK INTRA:                  -1.463
REMARK UNBOUND:                -0.884
REMARK  Name = 
REMARK  9 active torsions:
REMARK  status: ('A' for Active; 'I' for Inactive)
REMARK    1  A    between atoms: C_1  and  C_2
REMARK    2  A    between atoms: C_6  and  C_7
REMARK    3  A    between atoms: C_7  and  C_8
REMARK    4  A    between atoms: C_8  and  O_9
REMARK    5  A    between atoms: O_9  and  C_10
REMARK    6  A    between atoms: C_13  and  C_14
REMARK    7  A    between atoms: C_20  and  N_21
REMARK    8  A    between atoms: N_21  and  C_22
REMARK    9  A    between atoms: N_24  and  C_25
REMARK                            x       y       z     vdW  Elec       q    Type
REMARK                         _______ _______ _______ _____ _____    ______ ____
ROOT
ATOM      1  C   UNL     1      44.507   3.253  12.827  0.00  0.00    +0.000 C 
ATOM      2  C   UNL     1      45.433   4.415  12.570  0.00  0.00    +0.000 A 
ATOM      3  C   UNL     1      45.357   5.176  11.387  0.00  0.00    +0.000 A 
ATOM      4 CL   UNL     1      44.191   4.864  10.146  0.00  0.00    +0.000 Cl
ATOM      5  C   UNL     1      46.241   6.234  11.153  0.00  0.00    +0.000 A 
ATOM      6  C   UNL     1      47.230   6.562  12.083  0.00  0.00    +0.000 A 
ATOM      7  C   UNL     1      47.323   5.790  13.251  0.00  0.00    +0.000 A 
ATOM      8  C   UNL     1      46.437   4.733  13.518  0.00  0.00    +0.000 A 
ENDROOT
BRANCH   8   9
ATOM      9  N   UNL     1      46.581   3.955  14.698  0.00  0.00    +0.000 N 
ATOM     10  H   UNL     1      45.677   3.622  15.033  0.00  0.00    +0.000 HD
BRANCH   9  11
ATOM     11  C   UNL     1      47.541   4.162  15.757  0.00  0.00    +0.000 C 
ATOM     12  C   UNL     1      48.087   2.830  16.315  0.00  0.00    +0.000 C 
ATOM     13  N   UNL     1      47.602   3.174  17.664  0.00  0.00    +0.000 NA
ATOM     14  C   UNL     1      48.729   3.498  18.537  0.00  0.00    +0.000 C 
ATOM     15  C   UNL     1      46.951   4.399  17.162  0.00  0.00    +0.000 C 
ENDBRANCH   9  11
ENDBRANCH   8   9
BRANCH   6  16
ATOM     16  C   UNL     1      48.135   7.736  11.777  0.00  0.00    +0.000 C 
BRANCH  16  17
ATOM     17  C   UNL     1      49.598   7.553  12.164  0.00  0.00    +0.000 C 
BRANCH  17  18
ATOM     18  O   UNL     1      50.001   8.608  13.046  0.00  0.00    +0.000 OA
BRANCH  18  19
ATOM     19  C   UNL     1      49.611   8.351  14.345  0.00  0.00    +0.000 A 
ATOM     20  C   UNL     1      50.227   7.287  14.984  0.00  0.00    +0.000 A 
ATOM     21  C   UNL     1      49.861   7.004  16.300  0.00  0.00    +0.000 A 
ATOM     22  C   UNL     1      48.898   7.794  16.924  0.00  0.00    +0.000 A 
ATOM     23  C   UNL     1      48.349   8.850  16.208  0.00  0.00    +0.000 A 
ATOM     24  N   UNL     1      48.676   9.135  14.930  0.00  0.00    +0.000 NA
BRANCH  22  25
ATOM     25  C   UNL     1      48.444   7.593  18.319  0.00  0.00    +0.000 C 
ATOM     26  N   UNL     1      47.212   8.083  18.658  0.00  0.00    +0.000 N 
ATOM     27  O   UNL     1      49.155   7.047  19.153  0.00  0.00    +0.000 OA
ATOM     28  H   UNL     1      46.706   8.739  18.082  0.00  0.00    +0.000 HD
ATOM     29  H   UNL     1      46.965   8.029  19.637  0.00  0.00    +0.000 HD
ENDBRANCH  22  25
ENDBRANCH  18  19
ENDBRANCH  17  18
ENDBRANCH  16  17
ENDBRANCH   6  16
TORSDOF 7
ENDMDL
