MODEL 1
REMARK VINA RESULT:    -8.162      0.000      0.000
REMARK INTER + INTRA:         -12.210
REMARK INTER:                 -11.025
REMARK INTRA:                  -1.185
REMARK UNBOUND:                -1.185
REMARK  Name = 
REMARK  7 active torsions:
REMARK  status: ('A' for Active; 'I' for Inactive)
REMARK    1  A    between atoms: C_1  and  O_2
REMARK    2  A    between atoms: O_2  and  C_3
REMARK    3  A    between atoms: C_5  and  C_6
REMARK    4  A    between atoms: C_11  and  N_12
REMARK    5  A    between atoms: N_12  and  C_13
REMARK    6  A    between atoms: C_13  and  C_14
REMARK    7  A    between atoms: C_18  and  C_19
REMARK                            x       y       z     vdW  Elec       q    Type
REMARK                         _______ _______ _______ _____ _____    ______ ____
ROOT
ATOM      1  N   UNL     1      44.378   6.838  12.647  0.00  0.00    +0.000 N 
ATOM      2  H   UNL     1      44.101   6.297  13.459  0.00  0.00    +0.000 HD
ENDROOT
BRANCH   1   8
ATOM      3  C   UNL     1      46.604   6.101  13.283  0.00  0.00    +0.000 A 
ATOM      4  C   UNL     1      47.980   6.351  13.327  0.00  0.00    +0.000 A 
ATOM      5  C   UNL     1      48.498   7.517  12.761  0.00  0.00    +0.000 A 
ATOM      6  C   UNL     1      47.601   8.383  12.162  0.00  0.00    +0.000 A 
ATOM      7  N   UNL     1      46.263   8.172  12.097  0.00  0.00    +0.000 NA
ATOM      8  C   UNL     1      45.764   7.036  12.636  0.00  0.00    +0.000 A 
BRANCH   5   9
ATOM      9  C   UNL     1      49.959   7.763  12.833  0.00  0.00    +0.000 C 
ATOM     10  N   UNL     1      50.732   7.518  11.734  0.00  0.00    +0.000 N 
ATOM     11  O   UNL     1      50.477   8.181  13.862  0.00  0.00    +0.000 OA
ATOM     12  H   UNL     1      50.413   7.172  10.843  0.00  0.00    +0.000 HD
ATOM     13  H   UNL     1      51.722   7.706  11.831  0.00  0.00    +0.000 HD
ENDBRANCH   5   9
BRANCH   3  15
ATOM     14  C   UNL     1      46.523   3.726  13.354  0.00  0.00    +0.000 C 
ATOM     15  O   UNL     1      46.010   4.977  13.808  0.00  0.00    +0.000 OA
ENDBRANCH   3  15
ENDBRANCH   1   8
BRANCH   1  16
ATOM     16  C   UNL     1      43.709   6.485  11.408  0.00  0.00    +0.000 C 
BRANCH  16  17
ATOM     17  C   UNL     1      43.840   5.021  11.050  0.00  0.00    +0.000 A 
ATOM     18  C   UNL     1      43.184   4.033  11.784  0.00  0.00    +0.000 A 
ATOM     19  C   UNL     1      43.287   2.718  11.359  0.00  0.00    +0.000 A 
ATOM     20  N   UNL     1      44.011   2.323  10.289  0.00  0.00    +0.000 NA
ATOM     21  C   UNL     1      44.685   3.273   9.592  0.00  0.00    +0.000 A 
ATOM     22  C   UNL     1      44.601   4.622   9.942  0.00  0.00    +0.000 A 
BRANCH  21  23
ATOM     23  C   UNL     1      45.512   2.786   8.462  0.00  0.00    +0.000 A 
ATOM     24  C   UNL     1      46.038   1.479   8.454  0.00  0.00    +0.000 A 
ATOM     25  C   UNL     1      46.843   1.018   7.404  0.00  0.00    +0.000 A 
ATOM     26  C   UNL     1      47.139   1.858   6.334  0.00  0.00    +0.000 A 
ATOM     27  C   UNL     1      46.637   3.155   6.317  0.00  0.00    +0.000 A 
ATOM     28  C   UNL     1      45.835   3.610   7.369  0.00  0.00    +0.000 A 
ENDBRANCH  21  23
ENDBRANCH  16  17
ENDBRANCH   1  16
TORSDOF 6
ENDMDL
MODEL 2
REMARK VINA RESULT:    -7.576      1.414      2.222
REMARK INTER + INTRA:         -11.419
REMARK INTER:                 -10.568
REMARK INTRA:                  -0.851
REMARK UNBOUND:                -1.185
REMARK  Name = 
REMARK  7 active torsions:
REMARK  status: ('A' for Active; 'I' for Inactive)
REMARK    1  A    between atoms: C_1  and  O_2
REMARK    2  A    between atoms: O_2  and  C_3
REMARK    3  A    between atoms: C_5  and  C_6
REMARK    4  A    between atoms: C_11  and  N_12
REMARK    5  A    between atoms: N_12  and  C_13
REMARK    6  A    between atoms: C_13  and  C_14
REMARK    7  A    between atoms: C_18  and  C_19
REMARK                            x       y       z     vdW  Elec       q    Type
REMARK                         _______ _______ _______ _____ _____    ______ ____
ROOT
ATOM      1  N   UNL     1      44.674   6.677  12.970  0.00  0.00    +0.000 N 
ATOM      2  H   UNL     1      44.547   5.967  13.683  0.00  0.00    +0.000 HD
ENDROOT
BRANCH   1   8
ATOM      3  C   UNL     1      46.322   8.449  12.768  0.00  0.00    +0.000 A 
ATOM      4  C   UNL     1      47.662   8.827  12.629  0.00  0.00    +0.000 A 
ATOM      5  C   UNL     1      48.664   7.856  12.602  0.00  0.00    +0.000 A 
ATOM      6  C   UNL     1      48.269   6.535  12.728  0.00  0.00    +0.000 A 
ATOM      7  N   UNL     1      46.982   6.133  12.868  0.00  0.00    +0.000 NA
ATOM      8  C   UNL     1      46.014   7.077  12.905  0.00  0.00    +0.000 A 
BRANCH   5   9
ATOM      9  C   UNL     1      50.075   8.283  12.441  0.00  0.00    +0.000 C 
ATOM     10  N   UNL     1      51.008   7.863  13.347  0.00  0.00    +0.000 N 
ATOM     11  O   UNL     1      50.412   9.005  11.510  0.00  0.00    +0.000 OA
ATOM     12  H   UNL     1      50.841   7.274  14.148  0.00  0.00    +0.000 HD
ATOM     13  H   UNL     1      51.957   8.177  13.191  0.00  0.00    +0.000 HD
ENDBRANCH   5   9
BRANCH   3  15
ATOM     14  C   UNL     1      45.203  10.278  11.739  0.00  0.00    +0.000 C 
ATOM     15  O   UNL     1      45.273   9.339  12.810  0.00  0.00    +0.000 OA
ENDBRANCH   3  15
ENDBRANCH   1   8
BRANCH   1  16
ATOM     16  C   UNL     1      43.948   6.449  11.733  0.00  0.00    +0.000 C 
BRANCH  16  17
ATOM     17  C   UNL     1      43.995   5.013  11.263  0.00  0.00    +0.000 A 
ATOM     18  C   UNL     1      43.259   4.016  11.902  0.00  0.00    +0.000 A 
ATOM     19  C   UNL     1      43.290   2.734  11.377  0.00  0.00    +0.000 A 
ATOM     20  N   UNL     1      44.015   2.377  10.294  0.00  0.00    +0.000 NA
ATOM     21  C   UNL     1      44.766   3.332   9.689  0.00  0.00    +0.000 A 
ATOM     22  C   UNL     1      44.758   4.652  10.143  0.00  0.00    +0.000 A 
BRANCH  21  23
ATOM     23  C   UNL     1      45.589   2.881   8.542  0.00  0.00    +0.000 A 
ATOM     24  C   UNL     1      45.917   3.758   7.490  0.00  0.00    +0.000 A 
ATOM     25  C   UNL     1      46.670   3.335   6.388  0.00  0.00    +0.000 A 
ATOM     26  C   UNL     1      47.115   2.017   6.314  0.00  0.00    +0.000 A 
ATOM     27  C   UNL     1      46.802   1.127   7.335  0.00  0.00    +0.000 A 
ATOM     28  C   UNL     1      46.049   1.556   8.433  0.00  0.00    +0.000 A 
ENDBRANCH  21  23
ENDBRANCH  16  17
ENDBRANCH   1  16
TORSDOF 6
ENDMDL
MODEL 3
REMARK VINA RESULT:    -7.503      2.675      6.646
REMARK INTER + INTRA:         -11.320
REMARK INTER:                 -10.592
REMARK INTRA:                  -0.728
REMARK UNBOUND:                -1.185
REMARK  Name = 
REMARK  7 active torsions:
REMARK  status: ('A' for Active; 'I' for Inactive)
REMARK    1  A    between atoms: C_1  and  O_2
REMARK    2  A    between atoms: O_2  and  C_3
REMARK    3  A    between atoms: C_5  and  C_6
REMARK    4  A    between atoms: C_11  and  N_12
REMARK    5  A    between atoms: N_12  and  C_13
REMARK    6  A    between atoms: C_13  and  C_14
REMARK    7  A    between atoms: C_18  and  C_19
REMARK                            x       y       z     vdW  Elec       q    Type
REMARK                         _______ _______ _______ _____ _____    ______ ____
ROOT
ATOM      1  N   UNL     1      43.859   5.455  10.491  0.00  0.00    +0.000 N 
ATOM      2  H   UNL     1      42.933   5.651  10.127  0.00  0.00    +0.000 HD
ENDROOT
BRANCH   1   8
ATOM      3  C   UNL     1      44.213   3.103   9.999  0.00  0.00    +0.000 A 
ATOM      4  C   UNL     1      44.906   2.122   9.281  0.00  0.00    +0.000 A 
ATOM      5  C   UNL     1      45.867   2.492   8.339  0.00  0.00    +0.000 A 
ATOM      6  C   UNL     1      46.083   3.845   8.151  0.00  0.00    +0.000 A 
ATOM      7  N   UNL     1      45.429   4.823   8.825  0.00  0.00    +0.000 NA
ATOM      8  C   UNL     1      44.489   4.463   9.730  0.00  0.00    +0.000 A 
BRANCH   5   9
ATOM      9  C   UNL     1      46.595   1.430   7.600  0.00  0.00    +0.000 C 
ATOM     10  N   UNL     1      47.292   1.759   6.473  0.00  0.00    +0.000 N 
ATOM     11  O   UNL     1      46.579   0.269   7.990  0.00  0.00    +0.000 OA
ATOM     12  H   UNL     1      47.370   2.677   6.064  0.00  0.00    +0.000 HD
ATOM     13  H   UNL     1      47.777   1.001   6.008  0.00  0.00    +0.000 HD
ENDBRANCH   5   9
BRANCH   3  15
ATOM     14  C   UNL     1      43.719   2.459  12.233  0.00  0.00    +0.000 C 
ATOM     15  O   UNL     1      43.247   2.828  10.939  0.00  0.00    +0.000 OA
ENDBRANCH   3  15
ENDBRANCH   1   8
BRANCH   1  16
ATOM     16  C   UNL     1      44.626   6.621  10.896  0.00  0.00    +0.000 C 
BRANCH  16  17
ATOM     17  C   UNL     1      45.715   6.306  11.896  0.00  0.00    +0.000 A 
ATOM     18  C   UNL     1      45.528   5.356  12.899  0.00  0.00    +0.000 A 
ATOM     19  C   UNL     1      46.592   5.064  13.737  0.00  0.00    +0.000 A 
ATOM     20  N   UNL     1      47.801   5.663  13.664  0.00  0.00    +0.000 NA
ATOM     21  C   UNL     1      47.980   6.617  12.716  0.00  0.00    +0.000 A 
ATOM     22  C   UNL     1      46.964   6.941  11.815  0.00  0.00    +0.000 A 
BRANCH  21  23
ATOM     23  C   UNL     1      49.302   7.288  12.710  0.00  0.00    +0.000 A 
ATOM     24  C   UNL     1      49.942   7.650  13.912  0.00  0.00    +0.000 A 
ATOM     25  C   UNL     1      51.178   8.308  13.917  0.00  0.00    +0.000 A 
ATOM     26  C   UNL     1      51.805   8.620  12.714  0.00  0.00    +0.000 A 
ATOM     27  C   UNL     1      51.195   8.279  11.511  0.00  0.00    +0.000 A 
ATOM     28  C   UNL     1      49.960   7.622  11.513  0.00  0.00    +0.000 A 
ENDBRANCH  21  23
ENDBRANCH  16  17
ENDBRANCH   1  16
TORSDOF 6
ENDMDL
MODEL 4
REMARK VINA RESULT:    -7.440      3.075      3.740
REMARK INTER + INTRA:         -11.235
REMARK INTER:                 -10.513
REMARK INTRA:                  -0.721
REMARK UNBOUND:                -1.185
REMARK  Name = 
REMARK  7 active torsions:
REMARK  status: ('A' for Active; 'I' for Inactive)
REMARK    1  A    between atoms: C_1  and  O_2
REMARK    2  A    between atoms: O_2  and  C_3
REMARK    3  A    between atoms: C_5  and  C_6
REMARK    4  A    between atoms: C_11  and  N_12
REMARK    5  A    between atoms: N_12  and  C_13
REMARK    6  A    between atoms: C_13  and  C_14
REMARK    7  A    between atoms: C_18  and  C_19
REMARK                            x       y       z     vdW  Elec       q    Type
REMARK                         _______ _______ _______ _____ _____    ______ ____
ROOT
ATOM      1  N   UNL     1      46.882   5.318  13.290  0.00  0.00    +0.000 N 
ATOM      2  H   UNL     1      47.436   6.062  12.880  0.00  0.00    +0.000 HD
ENDROOT
BRANCH   1   8
ATOM      3  C   UNL     1      48.137   5.941  15.275  0.00  0.00    +0.000 A 
ATOM      4  C   UNL     1      48.665   5.580  16.519  0.00  0.00    +0.000 A 
ATOM      5  C   UNL     1      48.438   4.301  17.031  0.00  0.00    +0.000 A 
ATOM      6  C   UNL     1      47.673   3.439  16.265  0.00  0.00    +0.000 A 
ATOM      7  N   UNL     1      47.144   3.755  15.058  0.00  0.00    +0.000 NA
ATOM      8  C   UNL     1      47.355   4.999  14.569  0.00  0.00    +0.000 A 
BRANCH   5   9
ATOM      9  C   UNL     1      49.019   3.941  18.348  0.00  0.00    +0.000 C 
ATOM     10  N   UNL     1      48.308   3.139  19.195  0.00  0.00    +0.000 N 
ATOM     11  O   UNL     1      50.124   4.352  18.681  0.00  0.00    +0.000 OA
ATOM     12  H   UNL     1      47.394   2.750  19.025  0.00  0.00    +0.000 HD
ATOM     13  H   UNL     1      48.750   2.917  20.078  0.00  0.00    +0.000 HD
ENDBRANCH   5   9
BRANCH   3  15
ATOM     14  C   UNL     1      49.621   7.483  14.239  0.00  0.00    +0.000 C 
ATOM     15  O   UNL     1      48.306   7.180  14.699  0.00  0.00    +0.000 OA
ENDBRANCH   3  15
ENDBRANCH   1   8
BRANCH   1  16
ATOM     16  C   UNL     1      45.449   5.421  13.077  0.00  0.00    +0.000 C 
BRANCH  16  17
ATOM     17  C   UNL     1      44.906   4.379  12.126  0.00  0.00    +0.000 A 
ATOM     18  C   UNL     1      43.746   3.663  12.418  0.00  0.00    +0.000 A 
ATOM     19  C   UNL     1      43.263   2.775  11.471  0.00  0.00    +0.000 A 
ATOM     20  N   UNL     1      43.861   2.533  10.285  0.00  0.00    +0.000 NA
ATOM     21  C   UNL     1      45.014   3.195  10.009  0.00  0.00    +0.000 A 
ATOM     22  C   UNL     1      45.542   4.130  10.901  0.00  0.00    +0.000 A 
BRANCH  21  23
ATOM     23  C   UNL     1      45.666   2.854   8.722  0.00  0.00    +0.000 A 
ATOM     24  C   UNL     1      46.095   1.541   8.446  0.00  0.00    +0.000 A 
ATOM     25  C   UNL     1      46.737   1.215   7.245  0.00  0.00    +0.000 A 
ATOM     26  C   UNL     1      46.964   2.200   6.287  0.00  0.00    +0.000 A 
ATOM     27  C   UNL     1      46.556   3.506   6.534  0.00  0.00    +0.000 A 
ATOM     28  C   UNL     1      45.916   3.826   7.736  0.00  0.00    +0.000 A 
ENDBRANCH  21  23
ENDBRANCH  16  17
ENDBRANCH   1  16
TORSDOF 6
ENDMDL
MODEL 5
REMARK VINA RESULT:    -7.142      2.364      3.471
REMARK INTER + INTRA:         -10.832
REMARK INTER:                 -10.160
REMARK INTRA:                  -0.671
REMARK UNBOUND:                -1.185
REMARK  Name = 
REMARK  7 active torsions:
REMARK  status: ('A' for Active; 'I' for Inactive)
REMARK    1  A    between atoms: C_1  and  O_2
REMARK    2  A    between atoms: O_2  and  C_3
REMARK    3  A    between atoms: C_5  and  C_6
REMARK    4  A    between atoms: C_11  and  N_12
REMARK    5  A    between atoms: N_12  and  C_13
REMARK    6  A    between atoms: C_13  and  C_14
REMARK    7  A    between atoms: C_18  and  C_19
REMARK                            x       y       z     vdW  Elec       q    Type
REMARK                         _______ _______ _______ _____ _____    ______ ____
ROOT
ATOM      1  N   UNL     1      47.343   6.721  12.315  0.00  0.00    +0.000 N 
ATOM      2  H   UNL     1      48.091   7.401  12.231  0.00  0.00    +0.000 HD
ENDROOT
BRANCH   1   8
ATOM      3  C   UNL     1      48.244   6.572  14.566  0.00  0.00    +0.000 A 
ATOM      4  C   UNL     1      48.372   5.852  15.759  0.00  0.00    +0.000 A 
ATOM      5  C   UNL     1      47.715   4.629  15.911  0.00  0.00    +0.000 A 
ATOM      6  C   UNL     1      46.944   4.187  14.851  0.00  0.00    +0.000 A 
ATOM      7  N   UNL     1      46.794   4.860  13.683  0.00  0.00    +0.000 NA
ATOM      8  C   UNL     1      47.422   6.050  13.542  0.00  0.00    +0.000 A 
BRANCH   5   9
ATOM      9  C   UNL     1      47.877   3.880  17.182  0.00  0.00    +0.000 C 
ATOM     10  N   UNL     1      46.917   2.984  17.556  0.00  0.00    +0.000 N 
ATOM     11  O   UNL     1      48.859   4.056  17.894  0.00  0.00    +0.000 OA
ATOM     12  H   UNL     1      46.073   2.765  17.051  0.00  0.00    +0.000 HD
ATOM     13  H   UNL     1      47.076   2.494  18.428  0.00  0.00    +0.000 HD
ENDBRANCH   5   9
BRANCH   3  15
ATOM     14  C   UNL     1      50.272   7.804  14.422  0.00  0.00    +0.000 C 
ATOM     15  O   UNL     1      48.849   7.786  14.333  0.00  0.00    +0.000 OA
ENDBRANCH   3  15
ENDBRANCH   1   8
BRANCH   1  16
ATOM     16  C   UNL     1      46.044   7.165  11.841  0.00  0.00    +0.000 C 
BRANCH  16  17
ATOM     17  C   UNL     1      45.266   6.087  11.120  0.00  0.00    +0.000 A 
ATOM     18  C   UNL     1      43.910   5.880  11.369  0.00  0.00    +0.000 A 
ATOM     19  C   UNL     1      43.241   4.924  10.622  0.00  0.00    +0.000 A 
ATOM     20  N   UNL     1      43.825   4.154   9.679  0.00  0.00    +0.000 NA
ATOM     21  C   UNL     1      45.154   4.321   9.457  0.00  0.00    +0.000 A 
ATOM     22  C   UNL     1      45.886   5.288  10.148  0.00  0.00    +0.000 A 
BRANCH  21  23
ATOM     23  C   UNL     1      45.764   3.415   8.455  0.00  0.00    +0.000 A 
ATOM     24  C   UNL     1      45.873   2.031   8.694  0.00  0.00    +0.000 A 
ATOM     25  C   UNL     1      46.473   1.170   7.766  0.00  0.00    +0.000 A 
ATOM     26  C   UNL     1      46.978   1.677   6.572  0.00  0.00    +0.000 A 
ATOM     27  C   UNL     1      46.889   3.040   6.311  0.00  0.00    +0.000 A 
ATOM     28  C   UNL     1      46.290   3.895   7.242  0.00  0.00    +0.000 A 
ENDBRANCH  21  23
ENDBRANCH  16  17
ENDBRANCH   1  16
TORSDOF 6
ENDMDL
MODEL 6
REMARK VINA RESULT:    -6.991      1.798      2.210
REMARK INTER + INTRA:         -10.629
REMARK INTER:                  -9.902
REMARK INTRA:                  -0.727
REMARK UNBOUND:                -1.185
REMARK  Name = 
REMARK  7 active torsions:
REMARK  status: ('A' for Active; 'I' for Inactive)
REMARK    1  A    between atoms: C_1  and  O_2
REMARK    2  A    between atoms: O_2  and  C_3
REMARK    3  A    between atoms: C_5  and  C_6
REMARK    4  A    between atoms: C_11  and  N_12
REMARK    5  A    between atoms: N_12  and  C_13
REMARK    6  A    between atoms: C_13  and  C_14
REMARK    7  A    between atoms: C_18  and  C_19
REMARK                            x       y       z     vdW  Elec       q    Type
REMARK                         _______ _______ _______ _____ _____    ______ ____
ROOT
ATOM      1  N   UNL     1      44.908   6.691  12.806  0.00  0.00    +0.000 N 
ATOM      2  H   UNL     1      45.489   5.913  13.101  0.00  0.00    +0.000 HD
ENDROOT
BRANCH   1   8
ATOM      3  C   UNL     1      47.025   7.856  13.057  0.00  0.00    +0.000 A 
ATOM      4  C   UNL     1      47.766   9.034  12.918  0.00  0.00    +0.000 A 
ATOM      5  C   UNL     1      47.175  10.172  12.366  0.00  0.00    +0.000 A 
ATOM      6  C   UNL     1      45.855  10.068  11.965  0.00  0.00    +0.000 A 
ATOM      7  N   UNL     1      45.108   8.943  12.081  0.00  0.00    +0.000 NA
ATOM      8  C   UNL     1      45.686   7.838  12.606  0.00  0.00    +0.000 A 
BRANCH   5   9
ATOM      9  C   UNL     1      47.980  11.412  12.241  0.00  0.00    +0.000 C 
ATOM     10  N   UNL     1      47.644  12.505  12.988  0.00  0.00    +0.000 N 
ATOM     11  O   UNL     1      48.939  11.465  11.479  0.00  0.00    +0.000 OA
ATOM     12  H   UNL     1      46.878  12.572  13.639  0.00  0.00    +0.000 HD
ATOM     13  H   UNL     1      48.228  13.324  12.871  0.00  0.00    +0.000 HD
ENDBRANCH   5   9
BRANCH   3  15
ATOM     14  C   UNL     1      48.511   6.836  14.608  0.00  0.00    +0.000 C 
ATOM     15  O   UNL     1      47.529   6.689  13.584  0.00  0.00    +0.000 OA
ENDBRANCH   3  15
ENDBRANCH   1   8
BRANCH   1  16
ATOM     16  C   UNL     1      43.879   6.364  11.836  0.00  0.00    +0.000 C 
BRANCH  16  17
ATOM     17  C   UNL     1      43.946   4.935  11.345  0.00  0.00    +0.000 A 
ATOM     18  C   UNL     1      43.240   3.915  11.981  0.00  0.00    +0.000 A 
ATOM     19  C   UNL     1      43.288   2.641  11.438  0.00  0.00    +0.000 A 
ATOM     20  N   UNL     1      44.003   2.313  10.339  0.00  0.00    +0.000 NA
ATOM     21  C   UNL     1      44.726   3.292   9.736  0.00  0.00    +0.000 A 
ATOM     22  C   UNL     1      44.698   4.605  10.208  0.00  0.00    +0.000 A 
BRANCH  21  23
ATOM     23  C   UNL     1      45.539   2.873   8.570  0.00  0.00    +0.000 A 
ATOM     24  C   UNL     1      46.018   1.554   8.450  0.00  0.00    +0.000 A 
ATOM     25  C   UNL     1      46.811   1.155   7.367  0.00  0.00    +0.000 A 
ATOM     26  C   UNL     1      47.142   2.073   6.373  0.00  0.00    +0.000 A 
ATOM     27  C   UNL     1      46.687   3.384   6.467  0.00  0.00    +0.000 A 
ATOM     28  C   UNL     1      45.897   3.775   7.552  0.00  0.00    +0.000 A 
ENDBRANCH  21  23
ENDBRANCH  16  17
ENDBRANCH   1  16
TORSDOF 6
ENDMDL
MODEL 7
REMARK VINA RESULT:    -6.988      2.699      3.061
REMARK INTER + INTRA:         -10.624
REMARK INTER:                 -10.006
REMARK INTRA:                  -0.618
REMARK UNBOUND:                -1.185
REMARK  Name = 
REMARK  7 active torsions:
REMARK  status: ('A' for Active; 'I' for Inactive)
REMARK    1  A    between atoms: C_1  and  O_2
REMARK    2  A    between atoms: O_2  and  C_3
REMARK    3  A    between atoms: C_5  and  C_6
REMARK    4  A    between atoms: C_11  and  N_12
REMARK    5  A    between atoms: N_12  and  C_13
REMARK    6  A    between atoms: C_13  and  C_14
REMARK    7  A    between atoms: C_18  and  C_19
REMARK                            x       y       z     vdW  Elec       q    Type
REMARK                         _______ _______ _______ _____ _____    ______ ____
ROOT
ATOM      1  N   UNL     1      46.308   4.185  14.280  0.00  0.00    +0.000 N 
ATOM      2  H   UNL     1      46.687   3.305  13.946  0.00  0.00    +0.000 HD
ENDROOT
BRANCH   1   8
ATOM      3  C   UNL     1      47.492   4.638  16.352  0.00  0.00    +0.000 A 
ATOM      4  C   UNL     1      48.414   5.419  17.057  0.00  0.00    +0.000 A 
ATOM      5  C   UNL     1      49.088   6.459  16.412  0.00  0.00    +0.000 A 
ATOM      6  C   UNL     1      48.808   6.660  15.072  0.00  0.00    +0.000 A 
ATOM      7  N   UNL     1      47.924   5.922  14.358  0.00  0.00    +0.000 NA
ATOM      8  C   UNL     1      47.281   4.908  14.981  0.00  0.00    +0.000 A 
BRANCH   5   9
ATOM      9  C   UNL     1      50.052   7.279  17.186  0.00  0.00    +0.000 C 
ATOM     10  N   UNL     1      51.385   6.988  17.114  0.00  0.00    +0.000 N 
ATOM     11  O   UNL     1      49.667   8.209  17.885  0.00  0.00    +0.000 OA
ATOM     12  H   UNL     1      51.808   6.248  16.577  0.00  0.00    +0.000 HD
ATOM     13  H   UNL     1      52.002   7.580  17.656  0.00  0.00    +0.000 HD
ENDBRANCH   5   9
BRANCH   3  15
ATOM     14  C   UNL     1      47.500   2.788  17.845  0.00  0.00    +0.000 C 
ATOM     15  O   UNL     1      46.790   3.592  16.905  0.00  0.00    +0.000 OA
ENDBRANCH   3  15
ENDBRANCH   1   8
BRANCH   1  16
ATOM     16  C   UNL     1      45.452   4.888  13.341  0.00  0.00    +0.000 C 
BRANCH  16  17
ATOM     17  C   UNL     1      44.881   3.995  12.263  0.00  0.00    +0.000 A 
ATOM     18  C   UNL     1      43.662   3.340  12.433  0.00  0.00    +0.000 A 
ATOM     19  C   UNL     1      43.160   2.594  11.378  0.00  0.00    +0.000 A 
ATOM     20  N   UNL     1      43.793   2.436  10.195  0.00  0.00    +0.000 NA
ATOM     21  C   UNL     1      44.999   3.037  10.034  0.00  0.00    +0.000 A 
ATOM     22  C   UNL     1      45.551   3.831  11.042  0.00  0.00    +0.000 A 
BRANCH  21  23
ATOM     23  C   UNL     1      45.682   2.788   8.743  0.00  0.00    +0.000 A 
ATOM     24  C   UNL     1      45.884   3.825   7.812  0.00  0.00    +0.000 A 
ATOM     25  C   UNL     1      46.504   3.594   6.577  0.00  0.00    +0.000 A 
ATOM     26  C   UNL     1      46.937   2.314   6.245  0.00  0.00    +0.000 A 
ATOM     27  C   UNL     1      46.747   1.268   7.142  0.00  0.00    +0.000 A 
ATOM     28  C   UNL     1      46.127   1.505   8.373  0.00  0.00    +0.000 A 
ENDBRANCH  21  23
ENDBRANCH  16  17
ENDBRANCH   1  16
TORSDOF 6
ENDMDL
MODEL 8
REMARK VINA RESULT:    -6.974      1.514      1.828
REMARK INTER + INTRA:         -10.605
REMARK INTER:                  -9.832
REMARK INTRA:                  -0.773
REMARK UNBOUND:                -1.185
REMARK  Name = 
REMARK  7 active torsions:
REMARK  status: ('A' for Active; 'I' for Inactive)
REMARK    1  A    between atoms: C_1  and  O_2
REMARK    2  A    between atoms: O_2  and  C_3
REMARK    3  A    between atoms: C_5  and  C_6
REMARK    4  A    between atoms: C_11  and  N_12
REMARK    5  A    between atoms: N_12  and  C_13
REMARK    6  A    between atoms: C_13  and  C_14
REMARK    7  A    between atoms: C_18  and  C_19
REMARK                            x       y       z     vdW  Elec       q    Type
REMARK                         _______ _______ _______ _____ _____    ______ ____
ROOT
ATOM      1  N   UNL     1      46.310   5.581  13.627  0.00  0.00    +0.000 N 
ATOM      2  H   UNL     1      46.564   4.607  13.754  0.00  0.00    +0.000 HD
ENDROOT
BRANCH   1   8
ATOM      3  C   UNL     1      48.446   6.581  14.210  0.00  0.00    +0.000 A 
ATOM      4  C   UNL     1      49.521   7.401  13.851  0.00  0.00    +0.000 A 
ATOM      5  C   UNL     1      49.564   7.984  12.583  0.00  0.00    +0.000 A 
ATOM      6  C   UNL     1      48.518   7.704  11.722  0.00  0.00    +0.000 A 
ATOM      7  N   UNL     1      47.463   6.912  12.034  0.00  0.00    +0.000 NA
ATOM      8  C   UNL     1      47.429   6.339  13.259  0.00  0.00    +0.000 A 
BRANCH   5   9
ATOM      9  C   UNL     1      50.710   8.859  12.233  0.00  0.00    +0.000 C 
ATOM     10  N   UNL     1      51.750   8.981  13.110  0.00  0.00    +0.000 N 
ATOM     11  O   UNL     1      50.733   9.470  11.171  0.00  0.00    +0.000 OA
ATOM     12  H   UNL     1      51.832   8.529  14.007  0.00  0.00    +0.000 HD
ATOM     13  H   UNL     1      52.510   9.585  12.823  0.00  0.00    +0.000 HD
ENDBRANCH   5   9
BRANCH   3  15
ATOM     14  C   UNL     1      49.007   6.586  16.520  0.00  0.00    +0.000 C 
ATOM     15  O   UNL     1      48.327   5.962  15.433  0.00  0.00    +0.000 OA
ENDBRANCH   3  15
ENDBRANCH   1   8
BRANCH   1  16
ATOM     16  C   UNL     1      45.052   5.810  12.939  0.00  0.00    +0.000 C 
BRANCH  16  17
ATOM     17  C   UNL     1      44.636   4.663  12.047  0.00  0.00    +0.000 A 
ATOM     18  C   UNL     1      43.547   3.853  12.366  0.00  0.00    +0.000 A 
ATOM     19  C   UNL     1      43.176   2.864  11.469  0.00  0.00    +0.000 A 
ATOM     20  N   UNL     1      43.821   2.612  10.309  0.00  0.00    +0.000 NA
ATOM     21  C   UNL     1      44.907   3.369  10.010  0.00  0.00    +0.000 A 
ATOM     22  C   UNL     1      45.320   4.405  10.850  0.00  0.00    +0.000 A 
BRANCH  21  23
ATOM     23  C   UNL     1      45.618   3.019   8.757  0.00  0.00    +0.000 A 
ATOM     24  C   UNL     1      46.009   1.693   8.486  0.00  0.00    +0.000 A 
ATOM     25  C   UNL     1      46.706   1.356   7.319  0.00  0.00    +0.000 A 
ATOM     26  C   UNL     1      47.026   2.344   6.390  0.00  0.00    +0.000 A 
ATOM     27  C   UNL     1      46.657   3.662   6.633  0.00  0.00    +0.000 A 
ATOM     28  C   UNL     1      45.962   3.992   7.801  0.00  0.00    +0.000 A 
ENDBRANCH  21  23
ENDBRANCH  16  17
ENDBRANCH   1  16
TORSDOF 6
ENDMDL
MODEL 9
REMARK VINA RESULT:    -6.903      1.890      2.005
REMARK INTER + INTRA:         -10.510
REMARK INTER:                  -9.598
REMARK INTRA:                  -0.911
REMARK UNBOUND:                -1.185
REMARK  Name = 
REMARK  7 active torsions:
REMARK  status: ('A' for Active; 'I' for Inactive)
REMARK    1  A    between atoms: C_1  and  O_2
REMARK    2  A    between atoms: O_2  and  C_3
REMARK    3  A    between atoms: C_5  and  C_6
REMARK    4  A    between atoms: C_11  and  N_12
REMARK    5  A    between atoms: N_12  and  C_13
REMARK    6  A    between atoms: C_13  and  C_14
REMARK    7  A    between atoms: C_18  and  C_19
REMARK                            x       y       z     vdW  Elec       q    Type
REMARK                         _______ _______ _______ _____ _____    ______ ____
ROOT
ATOM      1  N   UNL     1      46.369   7.123  11.811  0.00  0.00    +0.000 N 
ATOM      2  H   UNL     1      46.587   7.771  11.061  0.00  0.00    +0.000 HD
ENDROOT
BRANCH   1   8
ATOM      3  C   UNL     1      47.744   6.372  13.668  0.00  0.00    +0.000 A 
ATOM      4  C   UNL     1      48.429   6.676  14.849  0.00  0.00    +0.000 A 
ATOM      5  C   UNL     1      48.468   7.991  15.316  0.00  0.00    +0.000 A 
ATOM      6  C   UNL     1      47.818   8.952  14.561  0.00  0.00    +0.000 A 
ATOM      7  N   UNL     1      47.148   8.694  13.411  0.00  0.00    +0.000 NA
ATOM      8  C   UNL     1      47.121   7.421  12.954  0.00  0.00    +0.000 A 
BRANCH   5   9
ATOM      9  C   UNL     1      49.192   8.284  16.578  0.00  0.00    +0.000 C 
ATOM     10  N   UNL     1      48.508   8.264  17.760  0.00  0.00    +0.000 N 
ATOM     11  O   UNL     1      50.390   8.541  16.570  0.00  0.00    +0.000 OA
ATOM     12  H   UNL     1      47.527   8.069  17.881  0.00  0.00    +0.000 HD
ATOM     13  H   UNL     1      49.048   8.465  18.593  0.00  0.00    +0.000 HD
ENDBRANCH   5   9
BRANCH   3  15
ATOM     14  C   UNL     1      46.935   4.148  13.899  0.00  0.00    +0.000 C 
ATOM     15  O   UNL     1      47.660   5.107  13.132  0.00  0.00    +0.000 OA
ENDBRANCH   3  15
ENDBRANCH   1   8
BRANCH   1  16
ATOM     16  C   UNL     1      44.961   6.799  11.962  0.00  0.00    +0.000 C 
BRANCH  16  17
ATOM     17  C   UNL     1      44.595   5.441  11.408  0.00  0.00    +0.000 A 
ATOM     18  C   UNL     1      43.556   4.689  11.957  0.00  0.00    +0.000 A 
ATOM     19  C   UNL     1      43.224   3.485  11.356  0.00  0.00    +0.000 A 
ATOM     20  N   UNL     1      43.864   2.973  10.281  0.00  0.00    +0.000 NA
ATOM     21  C   UNL     1      44.902   3.679   9.765  0.00  0.00    +0.000 A 
ATOM     22  C   UNL     1      45.271   4.916  10.297  0.00  0.00    +0.000 A 
BRANCH  21  23
ATOM     23  C   UNL     1      45.610   3.051   8.624  0.00  0.00    +0.000 A 
ATOM     24  C   UNL     1      45.903   1.673   8.616  0.00  0.00    +0.000 A 
ATOM     25  C   UNL     1      46.596   1.076   7.556  0.00  0.00    +0.000 A 
ATOM     26  C   UNL     1      47.013   1.847   6.474  0.00  0.00    +0.000 A 
ATOM     27  C   UNL     1      46.741   3.211   6.457  0.00  0.00    +0.000 A 
ATOM     28  C   UNL     1      46.050   3.802   7.519  0.00  0.00    +0.000 A 
ENDBRANCH  21  23
ENDBRANCH  16  17
ENDBRANCH   1  16
TORSDOF 6
ENDMDL
