MODEL 1
REMARK VINA RESULT:    -8.503      0.000      0.000
REMARK INTER + INTRA:         -12.927
REMARK INTER:                 -11.982
REMARK INTRA:                  -0.945
REMARK UNBOUND:                -0.945
REMARK  Name = 
REMARK  7 active torsions:
REMARK  status: ('A' for Active; 'I' for Inactive)
REMARK    1  A    between atoms: C_2  and  C_4
REMARK    2  A    between atoms: C_7  and  N_8
REMARK    3  A    between atoms: N_8  and  C_9
REMARK    4  A    between atoms: C_9  and  C_10
REMARK    5  A    between atoms: C_10  and  C_11
REMARK    6  A    between atoms: C_15  and  O_16
REMARK    7  A    between atoms: O_16  and  C_17
REMARK                            x       y       z     vdW  Elec       q    Type
REMARK                         _______ _______ _______ _____ _____    ______ ____
ROOT
ATOM      1  C   UNL     1      43.337   4.086  11.462  0.00  0.00    +0.000 C 
ENDROOT
BRANCH   1   2
ATOM      2  N   UNL     1      43.673   4.572  10.125  0.00  0.00    +0.000 N 
ATOM      3  H   UNL     1      42.874   4.841   9.556  0.00  0.00    +0.000 HD
BRANCH   2   7
ATOM      4  C   UNL     1      46.508   2.541   7.746  0.00  0.00    +0.000 A 
ATOM      5  C   UNL     1      46.478   3.934   7.729  0.00  0.00    +0.000 A 
ATOM      6  C   UNL     1      45.555   4.626   8.529  0.00  0.00    +0.000 A 
ATOM      7  C   UNL     1      44.672   3.947   9.377  0.00  0.00    +0.000 A 
ATOM      8  C   UNL     1      44.711   2.548   9.373  0.00  0.00    +0.000 A 
ATOM      9  C   UNL     1      45.614   1.843   8.562  0.00  0.00    +0.000 A 
BRANCH   4  11
ATOM     10  N   UNL     1      48.544   2.403   6.409  0.00  0.00    +0.000 N 
ATOM     11  C   UNL     1      47.434   1.761   6.879  0.00  0.00    +0.000 C 
ATOM     12  O   UNL     1      47.231   0.580   6.622  0.00  0.00    +0.000 OA
ATOM     13  H   UNL     1      49.214   1.825   5.914  0.00  0.00    +0.000 HD
ATOM     14  H   UNL     1      48.869   3.275   6.795  0.00  0.00    +0.000 HD
ENDBRANCH   4  11
ENDBRANCH   2   7
ENDBRANCH   1   2
BRANCH   1  15
ATOM     15  C   UNL     1      43.442   5.211  12.499  0.00  0.00    +0.000 C 
BRANCH  15  16
ATOM     16  C   UNL     1      44.891   5.490  12.820  0.00  0.00    +0.000 A 
ATOM     17  C   UNL     1      45.551   6.541  12.172  0.00  0.00    +0.000 A 
ATOM     18  C   UNL     1      46.922   6.717  12.343  0.00  0.00    +0.000 A 
ATOM     19  C   UNL     1      47.638   5.873  13.194  0.00  0.00    +0.000 A 
ATOM     20  C   UNL     1      46.981   4.877  13.919  0.00  0.00    +0.000 A 
ATOM     21  C   UNL     1      45.615   4.663  13.697  0.00  0.00    +0.000 A 
BRANCH  20  22
ATOM     22  O   UNL     1      47.562   4.070  14.869  0.00  0.00    +0.000 OA
BRANCH  22  23
ATOM     23  C   UNL     1      47.331   4.426  16.242  0.00  0.00    +0.000 C 
ATOM     24  C   UNL     1      48.499   5.254  16.766  0.00  0.00    +0.000 C 
ATOM     25  C   UNL     1      49.412   4.252  17.447  0.00  0.00    +0.000 C 
ATOM     26  N   UNL     1      48.555   3.188  17.963  0.00  0.00    +0.000 NA
ATOM     27  C   UNL     1      47.311   3.209  17.179  0.00  0.00    +0.000 C 
ATOM     28  H   UNL     1      48.342   3.351  18.946  0.00  0.00    +0.000 HD
ENDBRANCH  22  23
ENDBRANCH  20  22
ENDBRANCH  15  16
ENDBRANCH   1  15
TORSDOF 7
ENDMDL
MODEL 2
REMARK VINA RESULT:    -7.252      1.789      2.339
REMARK INTER + INTRA:         -11.165
REMARK INTER:                 -10.323
REMARK INTRA:                  -0.843
REMARK UNBOUND:                -0.945
REMARK  Name = 
REMARK  7 active torsions:
REMARK  status: ('A' for Active; 'I' for Inactive)
REMARK    1  A    between atoms: C_2  and  C_4
REMARK    2  A    between atoms: C_7  and  N_8
REMARK    3  A    between atoms: N_8  and  C_9
REMARK    4  A    between atoms: C_9  and  C_10
REMARK    5  A    between atoms: C_10  and  C_11
REMARK    6  A    between atoms: C_15  and  O_16
REMARK    7  A    between atoms: O_16  and  C_17
REMARK                            x       y       z     vdW  Elec       q    Type
REMARK                         _______ _______ _______ _____ _____    ______ ____
ROOT
ATOM      1  C   UNL     1      43.993   5.492  11.091  0.00  0.00    +0.000 C 
ENDROOT
BRANCH   1   2
ATOM      2  N   UNL     1      43.691   4.835   9.820  0.00  0.00    +0.000 N 
ATOM      3  H   UNL     1      42.763   4.421   9.764  0.00  0.00    +0.000 HD
BRANCH   2   7
ATOM      4  C   UNL     1      46.423   2.338   7.789  0.00  0.00    +0.000 A 
ATOM      5  C   UNL     1      46.433   3.708   7.534  0.00  0.00    +0.000 A 
ATOM      6  C   UNL     1      45.545   4.556   8.215  0.00  0.00    +0.000 A 
ATOM      7  C   UNL     1      44.658   4.060   9.178  0.00  0.00    +0.000 A 
ATOM      8  C   UNL     1      44.656   2.681   9.413  0.00  0.00    +0.000 A 
ATOM      9  C   UNL     1      45.524   1.820   8.724  0.00  0.00    +0.000 A 
BRANCH   4  11
ATOM     10  N   UNL     1      48.473   1.894   6.542  0.00  0.00    +0.000 N 
ATOM     11  C   UNL     1      47.310   1.393   7.057  0.00  0.00    +0.000 C 
ATOM     12  O   UNL     1      47.032   0.205   6.948  0.00  0.00    +0.000 OA
ATOM     13  H   UNL     1      49.111   1.214   6.145  0.00  0.00    +0.000 HD
ATOM     14  H   UNL     1      48.849   2.785   6.823  0.00  0.00    +0.000 HD
ENDBRANCH   4  11
ENDBRANCH   2   7
ENDBRANCH   1   2
BRANCH   1  15
ATOM     15  C   UNL     1      45.420   6.054  11.094  0.00  0.00    +0.000 C 
BRANCH  15  16
ATOM     16  C   UNL     1      46.185   5.527  12.284  0.00  0.00    +0.000 A 
ATOM     17  C   UNL     1      45.839   4.285  12.831  0.00  0.00    +0.000 A 
ATOM     18  C   UNL     1      46.431   3.853  14.015  0.00  0.00    +0.000 A 
ATOM     19  C   UNL     1      47.402   4.636  14.642  0.00  0.00    +0.000 A 
ATOM     20  C   UNL     1      47.825   5.835  14.063  0.00  0.00    +0.000 A 
ATOM     21  C   UNL     1      47.184   6.295  12.907  0.00  0.00    +0.000 A 
BRANCH  20  22
ATOM     22  O   UNL     1      48.852   6.623  14.528  0.00  0.00    +0.000 OA
BRANCH  22  23
ATOM     23  C   UNL     1      48.899   6.846  15.946  0.00  0.00    +0.000 C 
ATOM     24  C   UNL     1      48.990   8.340  16.234  0.00  0.00    +0.000 C 
ATOM     25  C   UNL     1      50.473   8.615  16.400  0.00  0.00    +0.000 C 
ATOM     26  N   UNL     1      51.065   7.397  16.945  0.00  0.00    +0.000 NA
ATOM     27  C   UNL     1      50.170   6.283  16.599  0.00  0.00    +0.000 C 
ATOM     28  H   UNL     1      51.148   7.466  17.958  0.00  0.00    +0.000 HD
ENDBRANCH  22  23
ENDBRANCH  20  22
ENDBRANCH  15  16
ENDBRANCH   1  15
TORSDOF 7
ENDMDL
MODEL 3
REMARK VINA RESULT:    -6.975      3.000      4.194
REMARK INTER + INTRA:         -10.775
REMARK INTER:                  -9.834
REMARK INTRA:                  -0.940
REMARK UNBOUND:                -0.945
REMARK  Name = 
REMARK  7 active torsions:
REMARK  status: ('A' for Active; 'I' for Inactive)
REMARK    1  A    between atoms: C_2  and  C_4
REMARK    2  A    between atoms: C_7  and  N_8
REMARK    3  A    between atoms: N_8  and  C_9
REMARK    4  A    between atoms: C_9  and  C_10
REMARK    5  A    between atoms: C_10  and  C_11
REMARK    6  A    between atoms: C_15  and  O_16
REMARK    7  A    between atoms: O_16  and  C_17
REMARK                            x       y       z     vdW  Elec       q    Type
REMARK                         _______ _______ _______ _____ _____    ______ ____
ROOT
ATOM      1  C   UNL     1      43.890   4.805  11.443  0.00  0.00    +0.000 C 
ENDROOT
BRANCH   1   2
ATOM      2  N   UNL     1      43.636   4.383  10.067  0.00  0.00    +0.000 N 
ATOM      3  H   UNL     1      42.758   3.889   9.927  0.00  0.00    +0.000 HD
BRANCH   2   7
ATOM      4  C   UNL     1      46.583   2.650   7.589  0.00  0.00    +0.000 A 
ATOM      5  C   UNL     1      46.444   4.037   7.615  0.00  0.00    +0.000 A 
ATOM      6  C   UNL     1      45.483   4.631   8.448  0.00  0.00    +0.000 A 
ATOM      7  C   UNL     1      44.669   3.860   9.287  0.00  0.00    +0.000 A 
ATOM      8  C   UNL     1      44.816   2.469   9.239  0.00  0.00    +0.000 A 
ATOM      9  C   UNL     1      45.759   1.862   8.395  0.00  0.00    +0.000 A 
BRANCH   4  11
ATOM     10  N   UNL     1      47.983   2.666   5.590  0.00  0.00    +0.000 N 
ATOM     11  C   UNL     1      47.552   1.972   6.686  0.00  0.00    +0.000 C 
ATOM     12  O   UNL     1      47.979   0.849   6.929  0.00  0.00    +0.000 OA
ATOM     13  H   UNL     1      48.723   2.230   5.052  0.00  0.00    +0.000 HD
ATOM     14  H   UNL     1      47.854   3.660   5.495  0.00  0.00    +0.000 HD
ENDBRANCH   4  11
ENDBRANCH   2   7
ENDBRANCH   1   2
BRANCH   1  15
ATOM     15  C   UNL     1      44.417   6.245  11.488  0.00  0.00    +0.000 C 
BRANCH  15  16
ATOM     16  C   UNL     1      45.803   6.273  12.088  0.00  0.00    +0.000 A 
ATOM     17  C   UNL     1      46.146   5.341  13.075  0.00  0.00    +0.000 A 
ATOM     18  C   UNL     1      47.363   5.446  13.743  0.00  0.00    +0.000 A 
ATOM     19  C   UNL     1      48.265   6.455  13.405  0.00  0.00    +0.000 A 
ATOM     20  C   UNL     1      47.980   7.339  12.362  0.00  0.00    +0.000 A 
ATOM     21  C   UNL     1      46.730   7.269  11.735  0.00  0.00    +0.000 A 
BRANCH  20  22
ATOM     22  O   UNL     1      48.840   8.291  11.868  0.00  0.00    +0.000 OA
BRANCH  22  23
ATOM     23  C   UNL     1      48.579   9.652  12.248  0.00  0.00    +0.000 C 
ATOM     24  C   UNL     1      48.773  10.571  11.048  0.00  0.00    +0.000 C 
ATOM     25  C   UNL     1      50.197  11.080  11.172  0.00  0.00    +0.000 C 
ATOM     26  N   UNL     1      50.500  11.128  12.600  0.00  0.00    +0.000 NA
ATOM     27  C   UNL     1      49.589  10.191  13.273  0.00  0.00    +0.000 C 
ATOM     28  H   UNL     1      50.351  12.068  12.962  0.00  0.00    +0.000 HD
ENDBRANCH  22  23
ENDBRANCH  20  22
ENDBRANCH  15  16
ENDBRANCH   1  15
TORSDOF 7
ENDMDL
MODEL 4
REMARK VINA RESULT:    -6.691      2.901      4.069
REMARK INTER + INTRA:         -10.375
REMARK INTER:                  -8.994
REMARK INTRA:                  -1.381
REMARK UNBOUND:                -0.945
REMARK  Name = 
REMARK  7 active torsions:
REMARK  status: ('A' for Active; 'I' for Inactive)
REMARK    1  A    between atoms: C_2  and  C_4
REMARK    2  A    between atoms: C_7  and  N_8
REMARK    3  A    between atoms: N_8  and  C_9
REMARK    4  A    between atoms: C_9  and  C_10
REMARK    5  A    between atoms: C_10  and  C_11
REMARK    6  A    between atoms: C_15  and  O_16
REMARK    7  A    between atoms: O_16  and  C_17
REMARK                            x       y       z     vdW  Elec       q    Type
REMARK                         _______ _______ _______ _____ _____    ______ ____
ROOT
ATOM      1  C   UNL     1      45.110   9.134  12.596  0.00  0.00    +0.000 C 
ENDROOT
BRANCH   1   2
ATOM      2  N   UNL     1      44.500   8.492  11.432  0.00  0.00    +0.000 N 
ATOM      3  H   UNL     1      43.656   8.945  11.089  0.00  0.00    +0.000 HD
BRANCH   2   7
ATOM      4  C   UNL     1      44.079   4.312  11.020  0.00  0.00    +0.000 A 
ATOM      5  C   UNL     1      45.314   4.901  10.758  0.00  0.00    +0.000 A 
ATOM      6  C   UNL     1      45.478   6.287  10.910  0.00  0.00    +0.000 A 
ATOM      7  C   UNL     1      44.427   7.101  11.351  0.00  0.00    +0.000 A 
ATOM      8  C   UNL     1      43.192   6.493  11.599  0.00  0.00    +0.000 A 
ATOM      9  C   UNL     1      43.009   5.111  11.431  0.00  0.00    +0.000 A 
BRANCH   4  11
ATOM     10  N   UNL     1      44.633   2.206   9.920  0.00  0.00    +0.000 N 
ATOM     11  C   UNL     1      43.843   2.855  10.826  0.00  0.00    +0.000 C 
ATOM     12  O   UNL     1      43.000   2.249  11.476  0.00  0.00    +0.000 OA
ATOM     13  H   UNL     1      44.530   1.198   9.884  0.00  0.00    +0.000 HD
ATOM     14  H   UNL     1      45.484   2.606   9.560  0.00  0.00    +0.000 HD
ENDBRANCH   4  11
ENDBRANCH   2   7
ENDBRANCH   1   2
BRANCH   1  15
ATOM     15  C   UNL     1      46.416   9.841  12.212  0.00  0.00    +0.000 C 
BRANCH  15  16
ATOM     16  C   UNL     1      47.589   8.911  12.410  0.00  0.00    +0.000 A 
ATOM     17  C   UNL     1      48.670   8.966  11.522  0.00  0.00    +0.000 A 
ATOM     18  C   UNL     1      49.687   8.018  11.599  0.00  0.00    +0.000 A 
ATOM     19  C   UNL     1      49.657   7.035  12.589  0.00  0.00    +0.000 A 
ATOM     20  C   UNL     1      48.635   7.019  13.540  0.00  0.00    +0.000 A 
ATOM     21  C   UNL     1      47.582   7.934  13.421  0.00  0.00    +0.000 A 
BRANCH  20  22
ATOM     22  O   UNL     1      48.569   6.174  14.623  0.00  0.00    +0.000 OA
BRANCH  22  23
ATOM     23  C   UNL     1      47.340   5.451  14.800  0.00  0.00    +0.000 C 
ATOM     24  C   UNL     1      47.347   4.737  16.146  0.00  0.00    +0.000 C 
ATOM     25  C   UNL     1      47.830   3.332  15.840  0.00  0.00    +0.000 C 
ATOM     26  N   UNL     1      47.387   3.025  14.483  0.00  0.00    +0.000 NA
ATOM     27  C   UNL     1      47.171   4.304  13.792  0.00  0.00    +0.000 C 
ATOM     28  H   UNL     1      46.515   2.498  14.507  0.00  0.00    +0.000 HD
ENDBRANCH  22  23
ENDBRANCH  20  22
ENDBRANCH  15  16
ENDBRANCH   1  15
TORSDOF 7
ENDMDL
MODEL 5
REMARK VINA RESULT:    -6.644      2.658      3.107
REMARK INTER + INTRA:         -10.308
REMARK INTER:                  -9.495
REMARK INTRA:                  -0.813
REMARK UNBOUND:                -0.945
REMARK  Name = 
REMARK  7 active torsions:
REMARK  status: ('A' for Active; 'I' for Inactive)
REMARK    1  A    between atoms: C_2  and  C_4
REMARK    2  A    between atoms: C_7  and  N_8
REMARK    3  A    between atoms: N_8  and  C_9
REMARK    4  A    between atoms: C_9  and  C_10
REMARK    5  A    between atoms: C_10  and  C_11
REMARK    6  A    between atoms: C_15  and  O_16
REMARK    7  A    between atoms: O_16  and  C_17
REMARK                            x       y       z     vdW  Elec       q    Type
REMARK                         _______ _______ _______ _____ _____    ______ ____
ROOT
ATOM      1  C   UNL     1      43.577   5.216  11.072  0.00  0.00    +0.000 C 
ENDROOT
BRANCH   1   2
ATOM      2  N   UNL     1      43.651   3.884  10.474  0.00  0.00    +0.000 N 
ATOM      3  H   UNL     1      43.459   3.117  11.115  0.00  0.00    +0.000 HD
BRANCH   2   7
ATOM      4  C   UNL     1      46.538   2.785   7.597  0.00  0.00    +0.000 A 
ATOM      5  C   UNL     1      46.236   4.133   7.778  0.00  0.00    +0.000 A 
ATOM      6  C   UNL     1      45.293   4.518   8.744  0.00  0.00    +0.000 A 
ATOM      7  C   UNL     1      44.660   3.574   9.563  0.00  0.00    +0.000 A 
ATOM      8  C   UNL     1      44.970   2.225   9.359  0.00  0.00    +0.000 A 
ATOM      9  C   UNL     1      45.895   1.825   8.382  0.00  0.00    +0.000 A 
BRANCH   4  11
ATOM     10  N   UNL     1      47.521   3.019   5.376  0.00  0.00    +0.000 N 
ATOM     11  C   UNL     1      47.493   2.324   6.552  0.00  0.00    +0.000 C 
ATOM     12  O   UNL     1      48.251   1.382   6.746  0.00  0.00    +0.000 OA
ATOM     13  H   UNL     1      48.252   2.759   4.724  0.00  0.00    +0.000 HD
ATOM     14  H   UNL     1      47.104   3.931   5.277  0.00  0.00    +0.000 HD
ENDBRANCH   4  11
ENDBRANCH   2   7
ENDBRANCH   1   2
BRANCH   1  15
ATOM     15  C   UNL     1      44.341   5.265  12.401  0.00  0.00    +0.000 C 
BRANCH  15  16
ATOM     16  C   UNL     1      45.161   6.531  12.482  0.00  0.00    +0.000 A 
ATOM     17  C   UNL     1      44.705   7.690  11.843  0.00  0.00    +0.000 A 
ATOM     18  C   UNL     1      45.517   8.820  11.781  0.00  0.00    +0.000 A 
ATOM     19  C   UNL     1      46.772   8.817  12.392  0.00  0.00    +0.000 A 
ATOM     20  C   UNL     1      47.207   7.702  13.111  0.00  0.00    +0.000 A 
ATOM     21  C   UNL     1      46.415   6.547  13.118  0.00  0.00    +0.000 A 
BRANCH  20  22
ATOM     22  O   UNL     1      48.367   7.633  13.846  0.00  0.00    +0.000 OA
BRANCH  22  23
ATOM     23  C   UNL     1      49.280   8.733  13.711  0.00  0.00    +0.000 C 
ATOM     24  C   UNL     1      50.695   8.210  13.495  0.00  0.00    +0.000 C 
ATOM     25  C   UNL     1      51.321   8.195  14.877  0.00  0.00    +0.000 C 
ATOM     26  N   UNL     1      50.699   9.281  15.628  0.00  0.00    +0.000 NA
ATOM     27  C   UNL     1      49.404   9.568  14.995  0.00  0.00    +0.000 C 
ATOM     28  H   UNL     1      51.286  10.114  15.597  0.00  0.00    +0.000 HD
ENDBRANCH  22  23
ENDBRANCH  20  22
ENDBRANCH  15  16
ENDBRANCH   1  15
TORSDOF 7
ENDMDL
MODEL 6
REMARK VINA RESULT:    -6.542      1.631      7.627
REMARK INTER + INTRA:         -10.164
REMARK INTER:                  -9.634
REMARK INTRA:                  -0.530
REMARK UNBOUND:                -0.945
REMARK  Name = 
REMARK  7 active torsions:
REMARK  status: ('A' for Active; 'I' for Inactive)
REMARK    1  A    between atoms: C_2  and  C_4
REMARK    2  A    between atoms: C_7  and  N_8
REMARK    3  A    between atoms: N_8  and  C_9
REMARK    4  A    between atoms: C_9  and  C_10
REMARK    5  A    between atoms: C_10  and  C_11
REMARK    6  A    between atoms: C_15  and  O_16
REMARK    7  A    between atoms: O_16  and  C_17
REMARK                            x       y       z     vdW  Elec       q    Type
REMARK                         _______ _______ _______ _____ _____    ______ ____
ROOT
ATOM      1  C   UNL     1      45.128   7.028  11.568  0.00  0.00    +0.000 C 
ENDROOT
BRANCH   1   2
ATOM      2  N   UNL     1      46.053   5.899  11.652  0.00  0.00    +0.000 N 
ATOM      3  H   UNL     1      45.767   5.073  11.132  0.00  0.00    +0.000 HD
BRANCH   2   7
ATOM      4  C   UNL     1      47.837   5.163  15.407  0.00  0.00    +0.000 A 
ATOM      5  C   UNL     1      46.904   4.256  14.907  0.00  0.00    +0.000 A 
ATOM      6  C   UNL     1      46.316   4.475  13.652  0.00  0.00    +0.000 A 
ATOM      7  C   UNL     1      46.667   5.578  12.863  0.00  0.00    +0.000 A 
ATOM      8  C   UNL     1      47.599   6.482  13.387  0.00  0.00    +0.000 A 
ATOM      9  C   UNL     1      48.178   6.286  14.650  0.00  0.00    +0.000 A 
BRANCH   4  11
ATOM     10  N   UNL     1      47.610   4.745  17.800  0.00  0.00    +0.000 N 
ATOM     11  C   UNL     1      48.451   5.001  16.754  0.00  0.00    +0.000 C 
ATOM     12  O   UNL     1      49.663   5.058  16.918  0.00  0.00    +0.000 OA
ATOM     13  H   UNL     1      48.057   4.529  18.685  0.00  0.00    +0.000 HD
ATOM     14  H   UNL     1      46.658   4.446  17.668  0.00  0.00    +0.000 HD
ENDBRANCH   4  11
ENDBRANCH   2   7
ENDBRANCH   1   2
BRANCH   1  15
ATOM     15  C   UNL     1      43.719   6.557  11.191  0.00  0.00    +0.000 C 
BRANCH  15  16
ATOM     16  C   UNL     1      43.722   5.073  10.913  0.00  0.00    +0.000 A 
ATOM     17  C   UNL     1      43.230   4.189  11.881  0.00  0.00    +0.000 A 
ATOM     18  C   UNL     1      43.363   2.814  11.704  0.00  0.00    +0.000 A 
ATOM     19  C   UNL     1      43.950   2.308  10.543  0.00  0.00    +0.000 A 
ATOM     20  C   UNL     1      44.365   3.171   9.526  0.00  0.00    +0.000 A 
ATOM     21  C   UNL     1      44.286   4.553   9.734  0.00  0.00    +0.000 A 
BRANCH  20  22
ATOM     22  O   UNL     1      44.845   2.781   8.299  0.00  0.00    +0.000 OA
BRANCH  22  23
ATOM     23  C   UNL     1      46.273   2.737   8.151  0.00  0.00    +0.000 C 
ATOM     24  C   UNL     1      46.703   3.632   6.994  0.00  0.00    +0.000 C 
ATOM     25  C   UNL     1      46.809   2.701   5.800  0.00  0.00    +0.000 C 
ATOM     26  N   UNL     1      47.192   1.393   6.324  0.00  0.00    +0.000 NA
ATOM     27  C   UNL     1      46.790   1.351   7.737  0.00  0.00    +0.000 C 
ATOM     28  H   UNL     1      48.201   1.265   6.252  0.00  0.00    +0.000 HD
ENDBRANCH  22  23
ENDBRANCH  20  22
ENDBRANCH  15  16
ENDBRANCH   1  15
TORSDOF 7
ENDMDL
MODEL 7
REMARK VINA RESULT:    -6.457      2.076      7.730
REMARK INTER + INTRA:         -10.044
REMARK INTER:                  -9.300
REMARK INTRA:                  -0.745
REMARK UNBOUND:                -0.945
REMARK  Name = 
REMARK  7 active torsions:
REMARK  status: ('A' for Active; 'I' for Inactive)
REMARK    1  A    between atoms: C_2  and  C_4
REMARK    2  A    between atoms: C_7  and  N_8
REMARK    3  A    between atoms: N_8  and  C_9
REMARK    4  A    between atoms: C_9  and  C_10
REMARK    5  A    between atoms: C_10  and  C_11
REMARK    6  A    between atoms: C_15  and  O_16
REMARK    7  A    between atoms: O_16  and  C_17
REMARK                            x       y       z     vdW  Elec       q    Type
REMARK                         _______ _______ _______ _____ _____    ______ ____
ROOT
ATOM      1  C   UNL     1      46.175   7.608  13.067  0.00  0.00    +0.000 C 
ENDROOT
BRANCH   1   2
ATOM      2  N   UNL     1      47.545   7.281  13.457  0.00  0.00    +0.000 N 
ATOM      3  H   UNL     1      48.213   7.256  12.689  0.00  0.00    +0.000 HD
BRANCH   2   7
ATOM      4  C   UNL     1      48.234   4.460  16.520  0.00  0.00    +0.000 A 
ATOM      5  C   UNL     1      47.323   4.159  15.510  0.00  0.00    +0.000 A 
ATOM      6  C   UNL     1      47.097   5.076  14.472  0.00  0.00    +0.000 A 
ATOM      7  C   UNL     1      47.792   6.291  14.408  0.00  0.00    +0.000 A 
ATOM      8  C   UNL     1      48.695   6.579  15.437  0.00  0.00    +0.000 A 
ATOM      9  C   UNL     1      48.915   5.679  16.492  0.00  0.00    +0.000 A 
BRANCH   4  11
ATOM     10  N   UNL     1      47.707   3.720  18.785  0.00  0.00    +0.000 N 
ATOM     11  C   UNL     1      48.472   3.541  17.667  0.00  0.00    +0.000 C 
ATOM     12  O   UNL     1      49.294   2.635  17.604  0.00  0.00    +0.000 OA
ATOM     13  H   UNL     1      47.808   3.018  19.509  0.00  0.00    +0.000 HD
ATOM     14  H   UNL     1      46.867   4.277  18.782  0.00  0.00    +0.000 HD
ENDBRANCH   4  11
ENDBRANCH   2   7
ENDBRANCH   1   2
BRANCH   1  15
ATOM     15  C   UNL     1      45.954   7.359  11.570  0.00  0.00    +0.000 C 
BRANCH  15  16
ATOM     16  C   UNL     1      45.014   6.194  11.370  0.00  0.00    +0.000 A 
ATOM     17  C   UNL     1      43.661   6.335  11.702  0.00  0.00    +0.000 A 
ATOM     18  C   UNL     1      42.813   5.231  11.665  0.00  0.00    +0.000 A 
ATOM     19  C   UNL     1      43.297   3.987  11.257  0.00  0.00    +0.000 A 
ATOM     20  C   UNL     1      44.621   3.846  10.836  0.00  0.00    +0.000 A 
ATOM     21  C   UNL     1      45.485   4.944  10.933  0.00  0.00    +0.000 A 
BRANCH  20  22
ATOM     22  O   UNL     1      45.170   2.703  10.305  0.00  0.00    +0.000 OA
BRANCH  22  23
ATOM     23  C   UNL     1      44.833   2.401   8.942  0.00  0.00    +0.000 C 
ATOM     24  C   UNL     1      45.938   1.566   8.306  0.00  0.00    +0.000 C 
ATOM     25  C   UNL     1      46.826   2.571   7.595  0.00  0.00    +0.000 C 
ATOM     26  N   UNL     1      45.960   3.671   7.179  0.00  0.00    +0.000 NA
ATOM     27  C   UNL     1      44.776   3.650   8.049  0.00  0.00    +0.000 C 
ATOM     28  H   UNL     1      45.673   3.548   6.209  0.00  0.00    +0.000 HD
ENDBRANCH  22  23
ENDBRANCH  20  22
ENDBRANCH  15  16
ENDBRANCH   1  15
TORSDOF 7
ENDMDL
MODEL 8
REMARK VINA RESULT:    -6.420      3.525      7.412
REMARK INTER + INTRA:          -9.992
REMARK INTER:                  -9.183
REMARK INTRA:                  -0.809
REMARK UNBOUND:                -0.945
REMARK  Name = 
REMARK  7 active torsions:
REMARK  status: ('A' for Active; 'I' for Inactive)
REMARK    1  A    between atoms: C_2  and  C_4
REMARK    2  A    between atoms: C_7  and  N_8
REMARK    3  A    between atoms: N_8  and  C_9
REMARK    4  A    between atoms: C_9  and  C_10
REMARK    5  A    between atoms: C_10  and  C_11
REMARK    6  A    between atoms: C_15  and  O_16
REMARK    7  A    between atoms: O_16  and  C_17
REMARK                            x       y       z     vdW  Elec       q    Type
REMARK                         _______ _______ _______ _____ _____    ______ ____
ROOT
ATOM      1  C   UNL     1      44.595   6.413  12.675  0.00  0.00    +0.000 C 
ENDROOT
BRANCH   1   2
ATOM      2  N   UNL     1      45.083   7.787  12.779  0.00  0.00    +0.000 N 
ATOM      3  H   UNL     1      44.455   8.492  12.400  0.00  0.00    +0.000 HD
BRANCH   2   7
ATOM      4  C   UNL     1      49.129   8.517  11.824  0.00  0.00    +0.000 A 
ATOM      5  C   UNL     1      48.253   9.594  11.941  0.00  0.00    +0.000 A 
ATOM      6  C   UNL     1      46.909   9.371  12.278  0.00  0.00    +0.000 A 
ATOM      7  C   UNL     1      46.424   8.082  12.531  0.00  0.00    +0.000 A 
ATOM      8  C   UNL     1      47.317   7.013  12.398  0.00  0.00    +0.000 A 
ATOM      9  C   UNL     1      48.659   7.220  12.041  0.00  0.00    +0.000 A 
BRANCH   4  11
ATOM     10  N   UNL     1      51.398   7.643  11.615  0.00  0.00    +0.000 N 
ATOM     11  C   UNL     1      50.551   8.698  11.420  0.00  0.00    +0.000 C 
ATOM     12  O   UNL     1      50.944   9.735  10.901  0.00  0.00    +0.000 OA
ATOM     13  H   UNL     1      52.332   7.749  11.234  0.00  0.00    +0.000 HD
ATOM     14  H   UNL     1      51.067   6.710  11.799  0.00  0.00    +0.000 HD
ENDBRANCH   4  11
ENDBRANCH   2   7
ENDBRANCH   1   2
BRANCH   1  15
ATOM     15  C   UNL     1      43.682   6.244  11.455  0.00  0.00    +0.000 C 
BRANCH  15  16
ATOM     16  C   UNL     1      43.803   4.843  10.903  0.00  0.00    +0.000 A 
ATOM     17  C   UNL     1      43.412   3.756  11.693  0.00  0.00    +0.000 A 
ATOM     18  C   UNL     1      43.655   2.454  11.261  0.00  0.00    +0.000 A 
ATOM     19  C   UNL     1      44.252   2.226  10.020  0.00  0.00    +0.000 A 
ATOM     20  C   UNL     1      44.566   3.296   9.178  0.00  0.00    +0.000 A 
ATOM     21  C   UNL     1      44.377   4.603   9.643  0.00  0.00    +0.000 A 
BRANCH  20  22
ATOM     22  O   UNL     1      45.044   3.184   7.894  0.00  0.00    +0.000 OA
BRANCH  22  23
ATOM     23  C   UNL     1      46.467   3.055   7.748  0.00  0.00    +0.000 C 
ATOM     24  C   UNL     1      46.916   3.707   6.446  0.00  0.00    +0.000 C 
ATOM     25  C   UNL     1      46.968   2.573   5.439  0.00  0.00    +0.000 C 
ATOM     26  N   UNL     1      47.306   1.366   6.187  0.00  0.00    +0.000 NA
ATOM     27  C   UNL     1      46.922   1.596   7.588  0.00  0.00    +0.000 C 
ATOM     28  H   UNL     1      48.307   1.185   6.133  0.00  0.00    +0.000 HD
ENDBRANCH  22  23
ENDBRANCH  20  22
ENDBRANCH  15  16
ENDBRANCH   1  15
TORSDOF 7
ENDMDL
MODEL 9
REMARK VINA RESULT:    -6.150      4.260      7.047
REMARK INTER + INTRA:          -9.612
REMARK INTER:                  -8.581
REMARK INTRA:                  -1.032
REMARK UNBOUND:                -0.945
REMARK  Name = 
REMARK  7 active torsions:
REMARK  status: ('A' for Active; 'I' for Inactive)
REMARK    1  A    between atoms: C_2  and  C_4
REMARK    2  A    between atoms: C_7  and  N_8
REMARK    3  A    between atoms: N_8  and  C_9
REMARK    4  A    between atoms: C_9  and  C_10
REMARK    5  A    between atoms: C_10  and  C_11
REMARK    6  A    between atoms: C_15  and  O_16
REMARK    7  A    between atoms: O_16  and  C_17
REMARK                            x       y       z     vdW  Elec       q    Type
REMARK                         _______ _______ _______ _____ _____    ______ ____
ROOT
ATOM      1  C   UNL     1      47.333   8.105  13.881  0.00  0.00    +0.000 C 
ENDROOT
BRANCH   1   2
ATOM      2  N   UNL     1      47.496   6.662  13.712  0.00  0.00    +0.000 N 
ATOM      3  H   UNL     1      48.459   6.351  13.605  0.00  0.00    +0.000 HD
BRANCH   2   7
ATOM      4  C   UNL     1      45.013   4.468  11.096  0.00  0.00    +0.000 A 
ATOM      5  C   UNL     1      45.220   3.998  12.391  0.00  0.00    +0.000 A 
ATOM      6  C   UNL     1      46.027   4.725  13.281  0.00  0.00    +0.000 A 
ATOM      7  C   UNL     1      46.613   5.941  12.907  0.00  0.00    +0.000 A 
ATOM      8  C   UNL     1      46.400   6.391  11.599  0.00  0.00    +0.000 A 
ATOM      9  C   UNL     1      45.613   5.663  10.693  0.00  0.00    +0.000 A 
BRANCH   4  11
ATOM     10  N   UNL     1      44.027   4.276   8.872  0.00  0.00    +0.000 N 
ATOM     11  C   UNL     1      44.207   3.708  10.101  0.00  0.00    +0.000 C 
ATOM     12  O   UNL     1      43.751   2.600  10.357  0.00  0.00    +0.000 OA
ATOM     13  H   UNL     1      43.571   3.696   8.178  0.00  0.00    +0.000 HD
ATOM     14  H   UNL     1      44.584   5.050   8.547  0.00  0.00    +0.000 HD
ENDBRANCH   4  11
ENDBRANCH   2   7
ENDBRANCH   1   2
BRANCH   1  15
ATOM     15  C   UNL     1      48.330   8.877  13.010  0.00  0.00    +0.000 C 
BRANCH  15  16
ATOM     16  C   UNL     1      47.604   9.896  12.164  0.00  0.00    +0.000 A 
ATOM     17  C   UNL     1      48.320  10.652  11.229  0.00  0.00    +0.000 A 
ATOM     18  C   UNL     1      47.697  11.696  10.549  0.00  0.00    +0.000 A 
ATOM     19  C   UNL     1      46.344  11.967  10.766  0.00  0.00    +0.000 A 
ATOM     20  C   UNL     1      45.591  11.166  11.627  0.00  0.00    +0.000 A 
ATOM     21  C   UNL     1      46.236  10.158  12.355  0.00  0.00    +0.000 A 
BRANCH  20  22
ATOM     22  O   UNL     1      44.235  11.267  11.824  0.00  0.00    +0.000 OA
BRANCH  22  23
ATOM     23  C   UNL     1      43.398  10.976  10.693  0.00  0.00    +0.000 C 
ATOM     24  C   UNL     1      42.115  11.795  10.772  0.00  0.00    +0.000 C 
ATOM     25  C   UNL     1      41.105  10.875  11.432  0.00  0.00    +0.000 C 
ATOM     26  N   UNL     1      41.467   9.514  11.048  0.00  0.00    +0.000 NA
ATOM     27  C   UNL     1      42.891   9.526  10.683  0.00  0.00    +0.000 C 
ATOM     28  H   UNL     1      40.912   9.211  10.249  0.00  0.00    +0.000 HD
ENDBRANCH  22  23
ENDBRANCH  20  22
ENDBRANCH  15  16
ENDBRANCH   1  15
TORSDOF 7
ENDMDL
