MODEL 1
REMARK VINA RESULT:    -8.232      0.000      0.000
REMARK INTER + INTRA:         -12.266
REMARK INTER:                 -11.120
REMARK INTRA:                  -1.146
REMARK UNBOUND:                -1.146
REMARK  Name = 
REMARK  7 active torsions:
REMARK  status: ('A' for Active; 'I' for Inactive)
REMARK    1  A    between atoms: C_1  and  N_2
REMARK    2  A    between atoms: N_2  and  C_3
REMARK    3  A    between atoms: C_3  and  C_4
REMARK    4  A    between atoms: C_7  and  C_8
REMARK    5  A    between atoms: C_8  and  N_9
REMARK    6  A    between atoms: C_10  and  C_12
REMARK    7  A    between atoms: C_24  and  C_26
REMARK                            x       y       z     vdW  Elec       q    Type
REMARK                         _______ _______ _______ _____ _____    ______ ____
ROOT
ATOM      1  C   UNL     1      46.566   4.650  13.522  0.00  0.00    +0.000 A 
ATOM      2  C   UNL     1      47.228   5.808  13.083  0.00  0.00    +0.000 A 
ATOM      3  C   UNL     1      48.099   6.493  13.930  0.00  0.00    +0.000 A 
ATOM      4  C   UNL     1      48.333   6.024  15.227  0.00  0.00    +0.000 A 
ATOM      5  C   UNL     1      47.628   4.902  15.685  0.00  0.00    +0.000 A 
ATOM      6  C   UNL     1      46.758   4.214  14.837  0.00  0.00    +0.000 A 
ENDROOT
BRANCH   1   7
ATOM      7  C   UNL     1      45.668   3.897  12.576  0.00  0.00    +0.000 C 
BRANCH   7   9
ATOM      8  C   UNL     1      43.540   5.219  12.984  0.00  0.00    +0.000 C 
ATOM      9  N   UNL     1      44.473   4.574  12.062  0.00  0.00    +0.000 N 
ATOM     10  C   UNL     1      44.038   4.503  10.725  0.00  0.00    +0.000 C 
ATOM     11  O   UNL     1      42.985   5.033  10.361  0.00  0.00    +0.000 OA
BRANCH  10  12
ATOM     12  C   UNL     1      44.837   3.839   9.661  0.00  0.00    +0.000 A 
ATOM     13  C   UNL     1      44.943   2.463   9.458  0.00  0.00    +0.000 A 
ATOM     14  C   UNL     1      45.763   1.967   8.445  0.00  0.00    +0.000 A 
ATOM     15  C   UNL     1      46.405   2.869   7.616  0.00  0.00    +0.000 A 
ATOM     16  N   UNL     1      46.271   4.206   7.729  0.00  0.00    +0.000 NA
ATOM     17  C   UNL     1      45.484   4.659   8.740  0.00  0.00    +0.000 A 
ENDBRANCH  10  12
ENDBRANCH   7   9
ENDBRANCH   1   7
BRANCH   4  18
ATOM     18  C   UNL     1      49.316   6.722  16.127  0.00  0.00    +0.000 C 
BRANCH  18  19
ATOM     19  N   UNL     1      50.345   5.824  16.575  0.00  0.00    +0.000 N 
ATOM     20  C   UNL     1      50.483   5.528  17.906  0.00  0.00    +0.000 C 
ATOM     21  O   UNL     1      49.709   5.966  18.753  0.00  0.00    +0.000 OA
ATOM     22  H   UNL     1      51.113   5.642  15.936  0.00  0.00    +0.000 HD
BRANCH  20  23
ATOM     23  C   UNL     1      51.567   4.606  18.263  0.00  0.00    +0.000 A 
ATOM     24  C   UNL     1      52.658   5.079  18.978  0.00  0.00    +0.000 A 
ATOM     25  S   UNL     1      53.801   3.873  19.358  0.00  0.00    +0.000 S 
ATOM     26  C   UNL     1      52.905   2.685  18.532  0.00  0.00    +0.000 A 
ATOM     27  N   UNL     1      53.353   1.403  18.445  0.00  0.00    +0.000 NA
ATOM     28  C   UNL     1      52.586   0.615  17.770  0.00  0.00    +0.000 A 
ATOM     29  N   UNL     1      51.414   0.992  17.167  0.00  0.00    +0.000 N 
ATOM     30  C   UNL     1      50.910   2.268  17.247  0.00  0.00    +0.000 A 
ATOM     31  O   UNL     1      49.837   2.561  16.728  0.00  0.00    +0.000 OA
ATOM     32  C   UNL     1      51.738   3.197  17.992  0.00  0.00    +0.000 A 
ATOM     33  H   UNL     1      50.860   0.324  16.655  0.00  0.00    +0.000 HD
ENDBRANCH  20  23
ENDBRANCH  18  19
ENDBRANCH   4  18
TORSDOF 6
ENDMDL
MODEL 2
REMARK VINA RESULT:    -8.067      2.668      3.317
REMARK INTER + INTRA:         -12.043
REMARK INTER:                 -11.204
REMARK INTRA:                  -0.838
REMARK UNBOUND:                -1.146
REMARK  Name = 
REMARK  7 active torsions:
REMARK  status: ('A' for Active; 'I' for Inactive)
REMARK    1  A    between atoms: C_1  and  N_2
REMARK    2  A    between atoms: N_2  and  C_3
REMARK    3  A    between atoms: C_3  and  C_4
REMARK    4  A    between atoms: C_7  and  C_8
REMARK    5  A    between atoms: C_8  and  N_9
REMARK    6  A    between atoms: C_10  and  C_12
REMARK    7  A    between atoms: C_24  and  C_26
REMARK                            x       y       z     vdW  Elec       q    Type
REMARK                         _______ _______ _______ _____ _____    ______ ____
ROOT
ATOM      1  C   UNL     1      45.236   6.857  11.402  0.00  0.00    +0.000 A 
ATOM      2  C   UNL     1      46.469   6.234  11.649  0.00  0.00    +0.000 A 
ATOM      3  C   UNL     1      47.385   6.797  12.538  0.00  0.00    +0.000 A 
ATOM      4  C   UNL     1      47.077   7.987  13.206  0.00  0.00    +0.000 A 
ATOM      5  C   UNL     1      45.871   8.640  12.915  0.00  0.00    +0.000 A 
ATOM      6  C   UNL     1      44.952   8.075  12.028  0.00  0.00    +0.000 A 
ENDROOT
BRANCH   1   7
ATOM      7  C   UNL     1      44.241   6.207  10.477  0.00  0.00    +0.000 C 
BRANCH   7   9
ATOM      8  C   UNL     1      42.558   5.170  12.070  0.00  0.00    +0.000 C 
ATOM      9  N   UNL     1      43.501   5.037  10.961  0.00  0.00    +0.000 N 
ATOM     10  C   UNL     1      43.759   3.714  10.552  0.00  0.00    +0.000 C 
ATOM     11  O   UNL     1      43.156   2.759  11.045  0.00  0.00    +0.000 OA
BRANCH  10  12
ATOM     12  C   UNL     1      44.728   3.389   9.472  0.00  0.00    +0.000 A 
ATOM     13  C   UNL     1      45.366   4.310   8.642  0.00  0.00    +0.000 A 
ATOM     14  C   UNL     1      46.225   3.868   7.636  0.00  0.00    +0.000 A 
ATOM     15  C   UNL     1      46.474   2.511   7.532  0.00  0.00    +0.000 A 
ATOM     16  N   UNL     1      45.938   1.593   8.361  0.00  0.00    +0.000 NA
ATOM     17  C   UNL     1      45.087   2.052   9.316  0.00  0.00    +0.000 A 
ENDBRANCH  10  12
ENDBRANCH   7   9
ENDBRANCH   1   7
BRANCH   4  18
ATOM     18  C   UNL     1      48.033   8.569  14.210  0.00  0.00    +0.000 C 
BRANCH  18  19
ATOM     19  N   UNL     1      48.201   7.695  15.340  0.00  0.00    +0.000 N 
ATOM     20  C   UNL     1      49.360   6.982  15.505  0.00  0.00    +0.000 C 
ATOM     21  O   UNL     1      50.311   7.100  14.736  0.00  0.00    +0.000 OA
ATOM     22  H   UNL     1      47.363   7.418  15.842  0.00  0.00    +0.000 HD
BRANCH  20  23
ATOM     23  C   UNL     1      49.432   6.114  16.686  0.00  0.00    +0.000 A 
ATOM     24  C   UNL     1      50.368   6.384  17.674  0.00  0.00    +0.000 A 
ATOM     25  S   UNL     1      50.287   5.317  19.001  0.00  0.00    +0.000 S 
ATOM     26  C   UNL     1      49.033   4.423  18.276  0.00  0.00    +0.000 A 
ATOM     27  N   UNL     1      48.509   3.327  18.889  0.00  0.00    +0.000 NA
ATOM     28  C   UNL     1      47.583   2.731  18.216  0.00  0.00    +0.000 A 
ATOM     29  N   UNL     1      47.135   3.128  16.983  0.00  0.00    +0.000 N 
ATOM     30  C   UNL     1      47.617   4.240  16.336  0.00  0.00    +0.000 A 
ATOM     31  O   UNL     1      47.166   4.588  15.249  0.00  0.00    +0.000 OA
ATOM     32  C   UNL     1      48.666   4.944  17.048  0.00  0.00    +0.000 A 
ATOM     33  H   UNL     1      46.405   2.617  16.511  0.00  0.00    +0.000 HD
ENDBRANCH  20  23
ENDBRANCH  18  19
ENDBRANCH   4  18
TORSDOF 6
ENDMDL
MODEL 3
REMARK VINA RESULT:    -7.547      3.144      4.224
REMARK INTER + INTRA:         -11.339
REMARK INTER:                 -10.709
REMARK INTRA:                  -0.631
REMARK UNBOUND:                -1.146
REMARK  Name = 
REMARK  7 active torsions:
REMARK  status: ('A' for Active; 'I' for Inactive)
REMARK    1  A    between atoms: C_1  and  N_2
REMARK    2  A    between atoms: N_2  and  C_3
REMARK    3  A    between atoms: C_3  and  C_4
REMARK    4  A    between atoms: C_7  and  C_8
REMARK    5  A    between atoms: C_8  and  N_9
REMARK    6  A    between atoms: C_10  and  C_12
REMARK    7  A    between atoms: C_24  and  C_26
REMARK                            x       y       z     vdW  Elec       q    Type
REMARK                         _______ _______ _______ _____ _____    ______ ____
ROOT
ATOM      1  C   UNL     1      45.480   6.677  11.758  0.00  0.00    +0.000 A 
ATOM      2  C   UNL     1      46.466   5.813  12.260  0.00  0.00    +0.000 A 
ATOM      3  C   UNL     1      47.433   6.279  13.150  0.00  0.00    +0.000 A 
ATOM      4  C   UNL     1      47.423   7.615  13.565  0.00  0.00    +0.000 A 
ATOM      5  C   UNL     1      46.474   8.491  13.020  0.00  0.00    +0.000 A 
ATOM      6  C   UNL     1      45.503   8.024  12.131  0.00  0.00    +0.000 A 
ENDROOT
BRANCH   1   7
ATOM      7  C   UNL     1      44.414   6.143  10.837  0.00  0.00    +0.000 C 
BRANCH   7   9
ATOM      8  C   UNL     1      42.750   5.095  12.442  0.00  0.00    +0.000 C 
ATOM      9  N   UNL     1      43.628   4.986  11.279  0.00  0.00    +0.000 N 
ATOM     10  C   UNL     1      43.784   3.683  10.769  0.00  0.00    +0.000 C 
ATOM     11  O   UNL     1      43.147   2.731  11.226  0.00  0.00    +0.000 OA
BRANCH  10  12
ATOM     12  C   UNL     1      44.677   3.379   9.620  0.00  0.00    +0.000 A 
ATOM     13  C   UNL     1      45.233   4.314   8.747  0.00  0.00    +0.000 A 
ATOM     14  C   UNL     1      46.025   3.891   7.679  0.00  0.00    +0.000 A 
ATOM     15  C   UNL     1      46.295   2.540   7.555  0.00  0.00    +0.000 A 
ATOM     16  N   UNL     1      45.841   1.610   8.419  0.00  0.00    +0.000 NA
ATOM     17  C   UNL     1      45.052   2.051   9.435  0.00  0.00    +0.000 A 
ENDBRANCH  10  12
ENDBRANCH   7   9
ENDBRANCH   1   7
BRANCH   4  18
ATOM     18  C   UNL     1      48.426   8.111  14.570  0.00  0.00    +0.000 C 
BRANCH  18  19
ATOM     19  N   UNL     1      48.228   7.495  15.855  0.00  0.00    +0.000 N 
ATOM     20  C   UNL     1      49.162   6.634  16.369  0.00  0.00    +0.000 C 
ATOM     21  O   UNL     1      50.219   6.400  15.787  0.00  0.00    +0.000 OA
ATOM     22  H   UNL     1      47.284   7.498  16.230  0.00  0.00    +0.000 HD
BRANCH  20  23
ATOM     23  C   UNL     1      48.865   6.054  17.683  0.00  0.00    +0.000 A 
ATOM     24  C   UNL     1      49.071   4.698  17.892  0.00  0.00    +0.000 A 
ATOM     25  S   UNL     1      48.730   4.193  19.484  0.00  0.00    +0.000 S 
ATOM     26  C   UNL     1      48.242   5.760  19.935  0.00  0.00    +0.000 A 
ATOM     27  N   UNL     1      47.790   6.018  21.192  0.00  0.00    +0.000 NA
ATOM     28  C   UNL     1      47.430   7.242  21.389  0.00  0.00    +0.000 A 
ATOM     29  N   UNL     1      47.476   8.232  20.442  0.00  0.00    +0.000 N 
ATOM     30  C   UNL     1      47.946   8.024  19.167  0.00  0.00    +0.000 A 
ATOM     31  O   UNL     1      48.009   8.942  18.356  0.00  0.00    +0.000 OA
ATOM     32  C   UNL     1      48.359   6.661  18.892  0.00  0.00    +0.000 A 
ATOM     33  H   UNL     1      47.182   9.170  20.662  0.00  0.00    +0.000 HD
ENDBRANCH  20  23
ENDBRANCH  18  19
ENDBRANCH   4  18
TORSDOF 6
ENDMDL
MODEL 4
REMARK VINA RESULT:    -7.493      3.633      8.903
REMARK INTER + INTRA:         -11.267
REMARK INTER:                  -9.720
REMARK INTRA:                  -1.547
REMARK UNBOUND:                -1.146
REMARK  Name = 
REMARK  7 active torsions:
REMARK  status: ('A' for Active; 'I' for Inactive)
REMARK    1  A    between atoms: C_1  and  N_2
REMARK    2  A    between atoms: N_2  and  C_3
REMARK    3  A    between atoms: C_3  and  C_4
REMARK    4  A    between atoms: C_7  and  C_8
REMARK    5  A    between atoms: C_8  and  N_9
REMARK    6  A    between atoms: C_10  and  C_12
REMARK    7  A    between atoms: C_24  and  C_26
REMARK                            x       y       z     vdW  Elec       q    Type
REMARK                         _______ _______ _______ _____ _____    ______ ____
ROOT
ATOM      1  C   UNL     1      49.096   7.694  16.332  0.00  0.00    +0.000 A 
ATOM      2  C   UNL     1      48.514   8.879  15.855  0.00  0.00    +0.000 A 
ATOM      3  C   UNL     1      47.980   8.942  14.569  0.00  0.00    +0.000 A 
ATOM      4  C   UNL     1      48.007   7.815  13.740  0.00  0.00    +0.000 A 
ATOM      5  C   UNL     1      48.638   6.649  14.195  0.00  0.00    +0.000 A 
ATOM      6  C   UNL     1      49.170   6.584  15.484  0.00  0.00    +0.000 A 
ENDROOT
BRANCH   1   7
ATOM      7  C   UNL     1      49.622   7.632  17.742  0.00  0.00    +0.000 C 
BRANCH   7   9
ATOM      8  C   UNL     1      48.464   8.718  19.723  0.00  0.00    +0.000 C 
ATOM      9  N   UNL     1      48.656   7.566  18.844  0.00  0.00    +0.000 N 
ATOM     10  C   UNL     1      48.001   6.388  19.251  0.00  0.00    +0.000 C 
ATOM     11  O   UNL     1      47.252   6.373  20.231  0.00  0.00    +0.000 OA
BRANCH  10  12
ATOM     12  C   UNL     1      48.125   5.109  18.503  0.00  0.00    +0.000 A 
ATOM     13  C   UNL     1      49.240   4.272  18.494  0.00  0.00    +0.000 A 
ATOM     14  C   UNL     1      49.242   3.116  17.713  0.00  0.00    +0.000 A 
ATOM     15  C   UNL     1      48.093   2.793  17.013  0.00  0.00    +0.000 A 
ATOM     16  N   UNL     1      46.967   3.533  17.054  0.00  0.00    +0.000 NA
ATOM     17  C   UNL     1      47.005   4.666  17.803  0.00  0.00    +0.000 A 
ENDBRANCH  10  12
ENDBRANCH   7   9
ENDBRANCH   1   7
BRANCH   4  18
ATOM     18  C   UNL     1      47.380   7.856  12.374  0.00  0.00    +0.000 C 
BRANCH  18  19
ATOM     19  N   UNL     1      46.753   6.603  12.047  0.00  0.00    +0.000 N 
ATOM     20  C   UNL     1      45.388   6.480  12.060  0.00  0.00    +0.000 C 
ATOM     21  O   UNL     1      44.652   7.435  12.291  0.00  0.00    +0.000 OA
ATOM     22  H   UNL     1      47.335   5.771  12.079  0.00  0.00    +0.000 HD
BRANCH  20  23
ATOM     23  C   UNL     1      44.847   5.160  11.718  0.00  0.00    +0.000 A 
ATOM     24  C   UNL     1      44.150   4.439  12.677  0.00  0.00    +0.000 A 
ATOM     25  S   UNL     1      43.541   2.953  12.107  0.00  0.00    +0.000 S 
ATOM     26  C   UNL     1      44.235   3.195  10.571  0.00  0.00    +0.000 A 
ATOM     27  N   UNL     1      44.114   2.259   9.591  0.00  0.00    +0.000 NA
ATOM     28  C   UNL     1      44.709   2.562   8.487  0.00  0.00    +0.000 A 
ATOM     29  N   UNL     1      45.419   3.714   8.273  0.00  0.00    +0.000 N 
ATOM     30  C   UNL     1      45.550   4.698   9.223  0.00  0.00    +0.000 A 
ATOM     31  O   UNL     1      46.161   5.735   8.985  0.00  0.00    +0.000 OA
ATOM     32  C   UNL     1      44.903   4.404  10.488  0.00  0.00    +0.000 A 
ATOM     33  H   UNL     1      45.859   3.891   7.384  0.00  0.00    +0.000 HD
ENDBRANCH  20  23
ENDBRANCH  18  19
ENDBRANCH   4  18
TORSDOF 6
ENDMDL
MODEL 5
REMARK VINA RESULT:    -7.435      2.820      3.413
REMARK INTER + INTRA:         -11.189
REMARK INTER:                 -10.767
REMARK INTRA:                  -0.422
REMARK UNBOUND:                -1.146
REMARK  Name = 
REMARK  7 active torsions:
REMARK  status: ('A' for Active; 'I' for Inactive)
REMARK    1  A    between atoms: C_1  and  N_2
REMARK    2  A    between atoms: N_2  and  C_3
REMARK    3  A    between atoms: C_3  and  C_4
REMARK    4  A    between atoms: C_7  and  C_8
REMARK    5  A    between atoms: C_8  and  N_9
REMARK    6  A    between atoms: C_10  and  C_12
REMARK    7  A    between atoms: C_24  and  C_26
REMARK                            x       y       z     vdW  Elec       q    Type
REMARK                         _______ _______ _______ _____ _____    ______ ____
ROOT
ATOM      1  C   UNL     1      45.736   6.414  11.886  0.00  0.00    +0.000 A 
ATOM      2  C   UNL     1      46.156   7.747  12.012  0.00  0.00    +0.000 A 
ATOM      3  C   UNL     1      47.279   8.069  12.774  0.00  0.00    +0.000 A 
ATOM      4  C   UNL     1      48.010   7.061  13.412  0.00  0.00    +0.000 A 
ATOM      5  C   UNL     1      47.557   5.737  13.334  0.00  0.00    +0.000 A 
ATOM      6  C   UNL     1      46.435   5.413  12.568  0.00  0.00    +0.000 A 
ENDROOT
BRANCH   1   7
ATOM      7  C   UNL     1      44.551   6.081  11.018  0.00  0.00    +0.000 C 
BRANCH   7   9
ATOM      8  C   UNL     1      42.826   5.053  12.573  0.00  0.00    +0.000 C 
ATOM      9  N   UNL     1      43.700   4.950  11.406  0.00  0.00    +0.000 N 
ATOM     10  C   UNL     1      43.785   3.665  10.835  0.00  0.00    +0.000 C 
ATOM     11  O   UNL     1      43.095   2.730  11.247  0.00  0.00    +0.000 OA
BRANCH  10  12
ATOM     12  C   UNL     1      44.663   3.367   9.673  0.00  0.00    +0.000 A 
ATOM     13  C   UNL     1      45.191   4.304   8.785  0.00  0.00    +0.000 A 
ATOM     14  C   UNL     1      45.971   3.885   7.707  0.00  0.00    +0.000 A 
ATOM     15  C   UNL     1      46.257   2.536   7.586  0.00  0.00    +0.000 A 
ATOM     16  N   UNL     1      45.831   1.606   8.464  0.00  0.00    +0.000 NA
ATOM     17  C   UNL     1      45.053   2.042   9.489  0.00  0.00    +0.000 A 
ENDBRANCH  10  12
ENDBRANCH   7   9
ENDBRANCH   1   7
BRANCH   4  18
ATOM     18  C   UNL     1      49.256   7.394  14.186  0.00  0.00    +0.000 C 
BRANCH  18  19
ATOM     19  N   UNL     1      48.987   7.494  15.595  0.00  0.00    +0.000 N 
ATOM     20  C   UNL     1      49.718   6.769  16.500  0.00  0.00    +0.000 C 
ATOM     21  O   UNL     1      50.657   6.057  16.154  0.00  0.00    +0.000 OA
ATOM     22  H   UNL     1      48.092   7.887  15.870  0.00  0.00    +0.000 HD
BRANCH  20  23
ATOM     23  C   UNL     1      49.362   6.936  17.913  0.00  0.00    +0.000 A 
ATOM     24  C   UNL     1      49.313   8.211  18.458  0.00  0.00    +0.000 A 
ATOM     25  S   UNL     1      48.833   8.237  20.093  0.00  0.00    +0.000 S 
ATOM     26  C   UNL     1      48.727   6.539  20.146  0.00  0.00    +0.000 A 
ATOM     27  N   UNL     1      48.386   5.894  21.295  0.00  0.00    +0.000 NA
ATOM     28  C   UNL     1      48.368   4.607  21.199  0.00  0.00    +0.000 A 
ATOM     29  N   UNL     1      48.666   3.905  20.060  0.00  0.00    +0.000 N 
ATOM     30  C   UNL     1      48.993   4.512  18.872  0.00  0.00    +0.000 A 
ATOM     31  O   UNL     1      49.215   3.853  17.861  0.00  0.00    +0.000 OA
ATOM     32  C   UNL     1      49.032   5.961  18.927  0.00  0.00    +0.000 A 
ATOM     33  H   UNL     1      48.631   2.897  20.052  0.00  0.00    +0.000 HD
ENDBRANCH  20  23
ENDBRANCH  18  19
ENDBRANCH   4  18
TORSDOF 6
ENDMDL
MODEL 6
REMARK VINA RESULT:    -7.206      3.971      8.568
REMARK INTER + INTRA:         -10.880
REMARK INTER:                  -9.172
REMARK INTRA:                  -1.708
REMARK UNBOUND:                -1.146
REMARK  Name = 
REMARK  7 active torsions:
REMARK  status: ('A' for Active; 'I' for Inactive)
REMARK    1  A    between atoms: C_1  and  N_2
REMARK    2  A    between atoms: N_2  and  C_3
REMARK    3  A    between atoms: C_3  and  C_4
REMARK    4  A    between atoms: C_7  and  C_8
REMARK    5  A    between atoms: C_8  and  N_9
REMARK    6  A    between atoms: C_10  and  C_12
REMARK    7  A    between atoms: C_24  and  C_26
REMARK                            x       y       z     vdW  Elec       q    Type
REMARK                         _______ _______ _______ _____ _____    ______ ____
ROOT
ATOM      1  C   UNL     1      49.831   7.102  17.405  0.00  0.00    +0.000 A 
ATOM      2  C   UNL     1      50.010   6.576  16.115  0.00  0.00    +0.000 A 
ATOM      3  C   UNL     1      49.357   7.142  15.020  0.00  0.00    +0.000 A 
ATOM      4  C   UNL     1      48.524   8.252  15.194  0.00  0.00    +0.000 A 
ATOM      5  C   UNL     1      48.300   8.741  16.488  0.00  0.00    +0.000 A 
ATOM      6  C   UNL     1      48.956   8.178  17.585  0.00  0.00    +0.000 A 
ENDROOT
BRANCH   1   7
ATOM      7  C   UNL     1      50.584   6.509  18.567  0.00  0.00    +0.000 C 
BRANCH   7   9
ATOM      8  C   UNL     1      50.013   6.698  21.033  0.00  0.00    +0.000 C 
ATOM      9  N   UNL     1      49.819   6.057  19.734  0.00  0.00    +0.000 N 
ATOM     10  C   UNL     1      49.014   4.902  19.752  0.00  0.00    +0.000 C 
ATOM     11  O   UNL     1      48.449   4.527  20.782  0.00  0.00    +0.000 OA
BRANCH  10  12
ATOM     12  C   UNL     1      48.750   4.095  18.531  0.00  0.00    +0.000 A 
ATOM     13  C   UNL     1      49.602   3.137  17.985  0.00  0.00    +0.000 A 
ATOM     14  C   UNL     1      49.251   2.478  16.807  0.00  0.00    +0.000 A 
ATOM     15  C   UNL     1      48.018   2.751  16.242  0.00  0.00    +0.000 A 
ATOM     16  N   UNL     1      47.131   3.614  16.778  0.00  0.00    +0.000 NA
ATOM     17  C   UNL     1      47.512   4.258  17.913  0.00  0.00    +0.000 A 
ENDBRANCH  10  12
ENDBRANCH   7   9
ENDBRANCH   1   7
BRANCH   4  18
ATOM     18  C   UNL     1      47.864   8.905  14.010  0.00  0.00    +0.000 C 
BRANCH  18  19
ATOM     19  N   UNL     1      46.699   8.173  13.591  0.00  0.00    +0.000 N 
ATOM     20  C   UNL     1      46.739   7.372  12.480  0.00  0.00    +0.000 C 
ATOM     21  O   UNL     1      47.773   7.203  11.838  0.00  0.00    +0.000 OA
ATOM     22  H   UNL     1      45.804   8.473  13.964  0.00  0.00    +0.000 HD
BRANCH  20  23
ATOM     23  C   UNL     1      45.498   6.672  12.132  0.00  0.00    +0.000 A 
ATOM     24  C   UNL     1      44.447   7.385  11.573  0.00  0.00    +0.000 A 
ATOM     25  S   UNL     1      43.099   6.420  11.177  0.00  0.00    +0.000 S 
ATOM     26  C   UNL     1      43.852   5.021  11.790  0.00  0.00    +0.000 A 
ATOM     27  N   UNL     1      43.212   3.821  11.785  0.00  0.00    +0.000 NA
ATOM     28  C   UNL     1      43.890   2.852  12.301  0.00  0.00    +0.000 A 
ATOM     29  N   UNL     1      45.150   2.974  12.828  0.00  0.00    +0.000 N 
ATOM     30  C   UNL     1      45.845   4.159  12.835  0.00  0.00    +0.000 A 
ATOM     31  O   UNL     1      46.986   4.224  13.279  0.00  0.00    +0.000 OA
ATOM     32  C   UNL     1      45.124   5.284  12.269  0.00  0.00    +0.000 A 
ATOM     33  H   UNL     1      45.626   2.175  13.215  0.00  0.00    +0.000 HD
ENDBRANCH  20  23
ENDBRANCH  18  19
ENDBRANCH   4  18
TORSDOF 6
ENDMDL
MODEL 7
REMARK VINA RESULT:    -6.925      4.421      5.453
REMARK INTER + INTRA:         -10.500
REMARK INTER:                  -9.565
REMARK INTRA:                  -0.935
REMARK UNBOUND:                -1.146
REMARK  Name = 
REMARK  7 active torsions:
REMARK  status: ('A' for Active; 'I' for Inactive)
REMARK    1  A    between atoms: C_1  and  N_2
REMARK    2  A    between atoms: N_2  and  C_3
REMARK    3  A    between atoms: C_3  and  C_4
REMARK    4  A    between atoms: C_7  and  C_8
REMARK    5  A    between atoms: C_8  and  N_9
REMARK    6  A    between atoms: C_10  and  C_12
REMARK    7  A    between atoms: C_24  and  C_26
REMARK                            x       y       z     vdW  Elec       q    Type
REMARK                         _______ _______ _______ _____ _____    ______ ____
ROOT
ATOM      1  C   UNL     1      45.818   6.421  12.057  0.00  0.00    +0.000 A 
ATOM      2  C   UNL     1      46.023   7.752  12.455  0.00  0.00    +0.000 A 
ATOM      3  C   UNL     1      47.042   8.076  13.351  0.00  0.00    +0.000 A 
ATOM      4  C   UNL     1      47.882   7.077  13.854  0.00  0.00    +0.000 A 
ATOM      5  C   UNL     1      47.641   5.742  13.501  0.00  0.00    +0.000 A 
ATOM      6  C   UNL     1      46.624   5.416  12.602  0.00  0.00    +0.000 A 
ENDROOT
BRANCH   1   7
ATOM      7  C   UNL     1      44.745   6.097  11.051  0.00  0.00    +0.000 C 
BRANCH   7   9
ATOM      8  C   UNL     1      42.888   5.162  12.507  0.00  0.00    +0.000 C 
ATOM      9  N   UNL     1      43.793   5.027  11.368  0.00  0.00    +0.000 N 
ATOM     10  C   UNL     1      43.797   3.759  10.755  0.00  0.00    +0.000 C 
ATOM     11  O   UNL     1      43.020   2.870  11.110  0.00  0.00    +0.000 OA
BRANCH  10  12
ATOM     12  C   UNL     1      44.691   3.429   9.614  0.00  0.00    +0.000 A 
ATOM     13  C   UNL     1      45.218   4.339   8.698  0.00  0.00    +0.000 A 
ATOM     14  C   UNL     1      46.014   3.890   7.644  0.00  0.00    +0.000 A 
ATOM     15  C   UNL     1      46.317   2.542   7.576  0.00  0.00    +0.000 A 
ATOM     16  N   UNL     1      45.893   1.639   8.483  0.00  0.00    +0.000 NA
ATOM     17  C   UNL     1      45.099   2.103   9.484  0.00  0.00    +0.000 A 
ENDBRANCH  10  12
ENDBRANCH   7   9
ENDBRANCH   1   7
BRANCH   4  18
ATOM     18  C   UNL     1      49.020   7.427  14.772  0.00  0.00    +0.000 C 
BRANCH  18  19
ATOM     19  N   UNL     1      50.257   7.554  14.049  0.00  0.00    +0.000 N 
ATOM     20  C   UNL     1      50.811   8.787  13.824  0.00  0.00    +0.000 C 
ATOM     21  O   UNL     1      50.312   9.816  14.273  0.00  0.00    +0.000 OA
ATOM     22  H   UNL     1      50.552   6.760  13.490  0.00  0.00    +0.000 HD
BRANCH  20  23
ATOM     23  C   UNL     1      52.071   8.812  13.072  0.00  0.00    +0.000 A 
ATOM     24  C   UNL     1      53.190   9.407  13.636  0.00  0.00    +0.000 A 
ATOM     25  S   UNL     1      54.583   9.304  12.659  0.00  0.00    +0.000 S 
ATOM     26  C   UNL     1      53.725   8.508  11.423  0.00  0.00    +0.000 A 
ATOM     27  N   UNL     1      54.337   8.155  10.260  0.00  0.00    +0.000 NA
ATOM     28  C   UNL     1      53.562   7.581   9.403  0.00  0.00    +0.000 A 
ATOM     29  N   UNL     1      52.228   7.333   9.598  0.00  0.00    +0.000 N 
ATOM     30  C   UNL     1      51.573   7.651  10.763  0.00  0.00    +0.000 A 
ATOM     31  O   UNL     1      50.387   7.379  10.919  0.00  0.00    +0.000 OA
ATOM     32  C   UNL     1      52.398   8.304  11.760  0.00  0.00    +0.000 A 
ATOM     33  H   UNL     1      51.679   6.878   8.886  0.00  0.00    +0.000 HD
ENDBRANCH  20  23
ENDBRANCH  18  19
ENDBRANCH   4  18
TORSDOF 6
ENDMDL
MODEL 8
REMARK VINA RESULT:    -6.913      4.120      5.091
REMARK INTER + INTRA:         -10.484
REMARK INTER:                  -9.286
REMARK INTRA:                  -1.198
REMARK UNBOUND:                -1.146
REMARK  Name = 
REMARK  7 active torsions:
REMARK  status: ('A' for Active; 'I' for Inactive)
REMARK    1  A    between atoms: C_1  and  N_2
REMARK    2  A    between atoms: N_2  and  C_3
REMARK    3  A    between atoms: C_3  and  C_4
REMARK    4  A    between atoms: C_7  and  C_8
REMARK    5  A    between atoms: C_8  and  N_9
REMARK    6  A    between atoms: C_10  and  C_12
REMARK    7  A    between atoms: C_24  and  C_26
REMARK                            x       y       z     vdW  Elec       q    Type
REMARK                         _______ _______ _______ _____ _____    ______ ____
ROOT
ATOM      1  C   UNL     1      46.650   5.028  13.115  0.00  0.00    +0.000 A 
ATOM      2  C   UNL     1      47.247   4.985  14.384  0.00  0.00    +0.000 A 
ATOM      3  C   UNL     1      47.886   6.109  14.908  0.00  0.00    +0.000 A 
ATOM      4  C   UNL     1      47.927   7.301  14.176  0.00  0.00    +0.000 A 
ATOM      5  C   UNL     1      47.381   7.327  12.884  0.00  0.00    +0.000 A 
ATOM      6  C   UNL     1      46.739   6.203  12.361  0.00  0.00    +0.000 A 
ENDROOT
BRANCH   1   7
ATOM      7  C   UNL     1      45.922   3.819  12.588  0.00  0.00    +0.000 C 
BRANCH   7   9
ATOM      8  C   UNL     1      43.504   4.106  13.304  0.00  0.00    +0.000 C 
ATOM      9  N   UNL     1      44.502   3.955  12.247  0.00  0.00    +0.000 N 
ATOM     10  C   UNL     1      43.979   3.770  10.953  0.00  0.00    +0.000 C 
ATOM     11  O   UNL     1      42.766   3.824  10.735  0.00  0.00    +0.000 OA
BRANCH  10  12
ATOM     12  C   UNL     1      44.847   3.551   9.766  0.00  0.00    +0.000 A 
ATOM     13  C   UNL     1      45.173   2.315   9.208  0.00  0.00    +0.000 A 
ATOM     14  C   UNL     1      46.035   2.247   8.114  0.00  0.00    +0.000 A 
ATOM     15  C   UNL     1      46.497   3.430   7.565  0.00  0.00    +0.000 A 
ATOM     16  N   UNL     1      46.147   4.647   8.025  0.00  0.00    +0.000 NA
ATOM     17  C   UNL     1      45.325   4.681   9.107  0.00  0.00    +0.000 A 
ENDBRANCH  10  12
ENDBRANCH   7   9
ENDBRANCH   1   7
BRANCH   4  18
ATOM     18  C   UNL     1      48.560   8.534  14.758  0.00  0.00    +0.000 C 
BRANCH  18  19
ATOM     19  N   UNL     1      48.067   8.801  16.082  0.00  0.00    +0.000 N 
ATOM     20  C   UNL     1      48.456   9.928  16.759  0.00  0.00    +0.000 C 
ATOM     21  O   UNL     1      49.187  10.773  16.247  0.00  0.00    +0.000 OA
ATOM     22  H   UNL     1      47.660   8.023  16.591  0.00  0.00    +0.000 HD
BRANCH  20  23
ATOM     23  C   UNL     1      47.902  10.107  18.105  0.00  0.00    +0.000 A 
ATOM     24  C   UNL     1      47.404  11.347  18.479  0.00  0.00    +0.000 A 
ATOM     25  S   UNL     1      46.750  11.375  20.052  0.00  0.00    +0.000 S 
ATOM     26  C   UNL     1      47.159   9.743  20.311  0.00  0.00    +0.000 A 
ATOM     27  N   UNL     1      46.898   9.134  21.499  0.00  0.00    +0.000 NA
ATOM     28  C   UNL     1      47.283   7.905  21.565  0.00  0.00    +0.000 A 
ATOM     29  N   UNL     1      47.911   7.228  20.553  0.00  0.00    +0.000 N 
ATOM     30  C   UNL     1      48.176   7.792  19.329  0.00  0.00    +0.000 A 
ATOM     31  O   UNL     1      48.706   7.145  18.431  0.00  0.00    +0.000 OA
ATOM     32  C   UNL     1      47.767   9.179  19.203  0.00  0.00    +0.000 A 
ATOM     33  H   UNL     1      48.185   6.264  20.669  0.00  0.00    +0.000 HD
ENDBRANCH  20  23
ENDBRANCH  18  19
ENDBRANCH   4  18
TORSDOF 6
ENDMDL
MODEL 9
REMARK VINA RESULT:    -6.912      3.397      9.218
REMARK INTER + INTRA:         -10.482
REMARK INTER:                  -8.985
REMARK INTRA:                  -1.497
REMARK UNBOUND:                -1.146
REMARK  Name = 
REMARK  7 active torsions:
REMARK  status: ('A' for Active; 'I' for Inactive)
REMARK    1  A    between atoms: C_1  and  N_2
REMARK    2  A    between atoms: N_2  and  C_3
REMARK    3  A    between atoms: C_3  and  C_4
REMARK    4  A    between atoms: C_7  and  C_8
REMARK    5  A    between atoms: C_8  and  N_9
REMARK    6  A    between atoms: C_10  and  C_12
REMARK    7  A    between atoms: C_24  and  C_26
REMARK                            x       y       z     vdW  Elec       q    Type
REMARK                         _______ _______ _______ _____ _____    ______ ____
ROOT
ATOM      1  C   UNL     1      51.160   3.778  18.352  0.00  0.00    +0.000 A 
ATOM      2  C   UNL     1      50.814   2.753  17.457  0.00  0.00    +0.000 A 
ATOM      3  C   UNL     1      49.495   2.597  17.031  0.00  0.00    +0.000 A 
ATOM      4  C   UNL     1      48.501   3.472  17.482  0.00  0.00    +0.000 A 
ATOM      5  C   UNL     1      48.836   4.459  18.419  0.00  0.00    +0.000 A 
ATOM      6  C   UNL     1      50.156   4.618  18.844  0.00  0.00    +0.000 A 
ENDROOT
BRANCH   1   7
ATOM      7  C   UNL     1      52.598   3.960  18.762  0.00  0.00    +0.000 C 
BRANCH   7   9
ATOM      8  C   UNL     1      54.701   3.364  17.471  0.00  0.00    +0.000 C 
ATOM      9  N   UNL     1      53.584   4.273  17.722  0.00  0.00    +0.000 N 
ATOM     10  C   UNL     1      53.649   5.502  17.039  0.00  0.00    +0.000 C 
ATOM     11  O   UNL     1      54.544   5.739  16.224  0.00  0.00    +0.000 OA
BRANCH  10  12
ATOM     12  C   UNL     1      52.624   6.565  17.212  0.00  0.00    +0.000 A 
ATOM     13  C   UNL     1      52.586   7.503  18.243  0.00  0.00    +0.000 A 
ATOM     14  C   UNL     1      51.541   8.425  18.312  0.00  0.00    +0.000 A 
ATOM     15  C   UNL     1      50.595   8.424  17.302  0.00  0.00    +0.000 A 
ATOM     16  N   UNL     1      50.636   7.586  16.248  0.00  0.00    +0.000 NA
ATOM     17  C   UNL     1      51.652   6.684  16.221  0.00  0.00    +0.000 A 
ENDBRANCH  10  12
ENDBRANCH   7   9
ENDBRANCH   1   7
BRANCH   4  18
ATOM     18  C   UNL     1      47.089   3.349  16.980  0.00  0.00    +0.000 C 
BRANCH  18  19
ATOM     19  N   UNL     1      46.790   4.358  16.000  0.00  0.00    +0.000 N 
ATOM     20  C   UNL     1      47.007   4.124  14.667  0.00  0.00    +0.000 C 
ATOM     21  O   UNL     1      47.406   3.038  14.255  0.00  0.00    +0.000 OA
ATOM     22  H   UNL     1      46.683   5.311  16.334  0.00  0.00    +0.000 HD
BRANCH  20  23
ATOM     23  C   UNL     1      46.677   5.218  13.748  0.00  0.00    +0.000 A 
ATOM     24  C   UNL     1      47.604   6.226  13.526  0.00  0.00    +0.000 A 
ATOM     25  S   UNL     1      47.090   7.391  12.393  0.00  0.00    +0.000 S 
ATOM     26  C   UNL     1      45.585   6.619  12.200  0.00  0.00    +0.000 A 
ATOM     27  N   UNL     1      44.635   7.132  11.372  0.00  0.00    +0.000 NA
ATOM     28  C   UNL     1      43.534   6.458  11.341  0.00  0.00    +0.000 A 
ATOM     29  N   UNL     1      43.294   5.321  12.067  0.00  0.00    +0.000 N 
ATOM     30  C   UNL     1      44.229   4.753  12.897  0.00  0.00    +0.000 A 
ATOM     31  O   UNL     1      43.994   3.712  13.502  0.00  0.00    +0.000 OA
ATOM     32  C   UNL     1      45.485   5.475  12.973  0.00  0.00    +0.000 A 
ATOM     33  H   UNL     1      42.410   4.840  11.994  0.00  0.00    +0.000 HD
ENDBRANCH  20  23
ENDBRANCH  18  19
ENDBRANCH   4  18
TORSDOF 6
ENDMDL
