MODEL 1
REMARK VINA RESULT:    -8.269      0.000      0.000
REMARK INTER + INTRA:         -13.509
REMARK INTER:                 -12.378
REMARK INTRA:                  -1.131
REMARK UNBOUND:                -1.131
REMARK  Name = 
REMARK  9 active torsions:
REMARK  status: ('A' for Active; 'I' for Inactive)
REMARK    1  A    between atoms: C_2  and  C_22
REMARK    2  A    between atoms: N_3  and  C_4
REMARK    3  A    between atoms: C_4  and  C_5
REMARK    4  A    between atoms: C_8  and  C_9
REMARK    5  A    between atoms: C_9  and  N_10
REMARK    6  A    between atoms: N_10  and  CA_11
REMARK    7  A    between atoms: CA_11  and  C_12
REMARK    8  A    between atoms: CA_11  and  C_14
REMARK    9  A    between atoms: C_12  and  O_13
REMARK                            x       y       z     vdW  Elec       q    Type
REMARK                         _______ _______ _______ _____ _____    ______ ____
ROOT
ATOM      1  C   UNL     1      46.462   7.242  12.565  0.00  0.00    +0.000 A 
ATOM      2  C   UNL     1      46.908   6.585  11.410  0.00  0.00    +0.000 A 
ATOM      3  C   UNL     1      46.015   5.874  10.603  0.00  0.00    +0.000 A 
ATOM      4  C   UNL     1      44.658   5.794  10.942  0.00  0.00    +0.000 A 
ATOM      5  C   UNL     1      44.209   6.490  12.076  0.00  0.00    +0.000 A 
ATOM      6  C   UNL     1      45.099   7.207  12.878  0.00  0.00    +0.000 A 
ENDROOT
BRANCH   1   7
ATOM      7  C   UNL     1      47.435   7.999  13.431  0.00  0.00    +0.000 C 
BRANCH   7  10
ATOM      8  O   UNL     1      49.988   7.140  14.262  0.00  0.00    +0.000 OA
ATOM      9  C   UNL     1      49.021   6.934  14.990  0.00  0.00    +0.000 C 
ATOM     10  N   UNL     1      47.743   7.274  14.634  0.00  0.00    +0.000 N 
ATOM     11  H   UNL     1      47.008   7.240  15.331  0.00  0.00    +0.000 HD
BRANCH   9  12
ATOM     12  C   UNL     1      49.169   6.252  16.282  0.00  0.00    +0.000 A 
ATOM     13  C   UNL     1      49.978   6.807  17.267  0.00  0.00    +0.000 A 
ATOM     14  S   UNL     1      50.033   5.889  18.703  0.00  0.00    +0.000 S 
ATOM     15  C   UNL     1      48.947   4.739  18.075  0.00  0.00    +0.000 A 
ATOM     16  N   UNL     1      48.534   3.685  18.826  0.00  0.00    +0.000 NA
ATOM     17  C   UNL     1      47.681   2.912  18.240  0.00  0.00    +0.000 A 
ATOM     18  N   UNL     1      47.216   3.090  16.962  0.00  0.00    +0.000 N 
ATOM     19  C   UNL     1      47.668   4.094  16.140  0.00  0.00    +0.000 A 
ATOM     20  O   UNL     1      47.344   4.132  14.956  0.00  0.00    +0.000 OA
ATOM     21  C   UNL     1      48.582   5.026  16.770  0.00  0.00    +0.000 A 
ATOM     22  H   UNL     1      46.578   2.428  16.548  0.00  0.00    +0.000 HD
ENDBRANCH   9  12
ENDBRANCH   7  10
ENDBRANCH   1   7
BRANCH   4  23
ATOM     23  C   UNL     1      43.654   5.059  10.083  0.00  0.00    +0.000 C 
BRANCH  23  24
ATOM     24  N   UNL     1      44.247   4.392   8.924  0.00  0.00    +0.000 NA
ATOM     25  H   UNL     1      45.105   4.856   8.638  0.00  0.00    +0.000 HD
BRANCH  24  26
ATOM     26  CA  UNL     1      44.460   2.946   9.123  0.00  0.00    +0.000 C 
BRANCH  26  27
ATOM     27  C   UNL     1      45.657   2.497   8.288  0.00  0.00    +0.000 A 
ATOM     28  C   UNL     1      45.993   1.136   8.244  0.00  0.00    +0.000 A 
ATOM     29  C   UNL     1      47.082   0.734   7.482  0.00  0.00    +0.000 A 
ATOM     30  N   UNL     1      47.852   1.572   6.762  0.00  0.00    +0.000 NA
ATOM     31  C   UNL     1      47.508   2.875   6.796  0.00  0.00    +0.000 A 
ATOM     32  C   UNL     1      46.436   3.376   7.525  0.00  0.00    +0.000 A 
ENDBRANCH  26  27
BRANCH  26  33
ATOM     33  C   UNL     1      44.530   2.500  10.615  0.00  0.00    +0.000 C 
BRANCH  33  34
ATOM     34  O   UNL     1      43.322   1.902  11.088  0.00  0.00    +0.000 OA
ATOM     35  H   UNL     1      42.756   1.736  10.316  0.00  0.00    +0.000 HD
ENDBRANCH  33  34
ENDBRANCH  26  33
ENDBRANCH  24  26
ENDBRANCH  23  24
ENDBRANCH   4  23
TORSDOF 9
ENDMDL
MODEL 2
REMARK VINA RESULT:    -7.935      1.397      1.943
REMARK INTER + INTRA:         -13.009
REMARK INTER:                 -12.162
REMARK INTRA:                  -0.847
REMARK UNBOUND:                -1.131
REMARK  Name = 
REMARK  9 active torsions:
REMARK  status: ('A' for Active; 'I' for Inactive)
REMARK    1  A    between atoms: C_2  and  C_22
REMARK    2  A    between atoms: N_3  and  C_4
REMARK    3  A    between atoms: C_4  and  C_5
REMARK    4  A    between atoms: C_8  and  C_9
REMARK    5  A    between atoms: C_9  and  N_10
REMARK    6  A    between atoms: N_10  and  CA_11
REMARK    7  A    between atoms: CA_11  and  C_12
REMARK    8  A    between atoms: CA_11  and  C_14
REMARK    9  A    between atoms: C_12  and  O_13
REMARK                            x       y       z     vdW  Elec       q    Type
REMARK                         _______ _______ _______ _____ _____    ______ ____
ROOT
ATOM      1  C   UNL     1      47.095   6.464  12.752  0.00  0.00    +0.000 A 
ATOM      2  C   UNL     1      46.044   5.900  13.488  0.00  0.00    +0.000 A 
ATOM      3  C   UNL     1      44.870   5.484  12.853  0.00  0.00    +0.000 A 
ATOM      4  C   UNL     1      44.718   5.636  11.468  0.00  0.00    +0.000 A 
ATOM      5  C   UNL     1      45.791   6.161  10.730  0.00  0.00    +0.000 A 
ATOM      6  C   UNL     1      46.966   6.570  11.364  0.00  0.00    +0.000 A 
ENDROOT
BRANCH   1   7
ATOM      7  C   UNL     1      48.352   6.916  13.450  0.00  0.00    +0.000 C 
BRANCH   7  10
ATOM      8  O   UNL     1      50.428   6.816  15.354  0.00  0.00    +0.000 OA
ATOM      9  C   UNL     1      49.264   6.888  15.741  0.00  0.00    +0.000 C 
ATOM     10  N   UNL     1      48.199   6.888  14.880  0.00  0.00    +0.000 N 
ATOM     11  H   UNL     1      47.277   7.119  15.231  0.00  0.00    +0.000 HD
BRANCH   9  12
ATOM     12  C   UNL     1      48.935   6.925  17.171  0.00  0.00    +0.000 A 
ATOM     13  C   UNL     1      48.505   8.113  17.750  0.00  0.00    +0.000 A 
ATOM     14  S   UNL     1      48.162   7.976  19.415  0.00  0.00    +0.000 S 
ATOM     15  C   UNL     1      48.539   6.316  19.414  0.00  0.00    +0.000 A 
ATOM     16  N   UNL     1      48.415   5.570  20.542  0.00  0.00    +0.000 NA
ATOM     17  C   UNL     1      48.696   4.319  20.389  0.00  0.00    +0.000 A 
ATOM     18  N   UNL     1      49.106   3.749  19.211  0.00  0.00    +0.000 N 
ATOM     19  C   UNL     1      49.323   4.480  18.068  0.00  0.00    +0.000 A 
ATOM     20  O   UNL     1      49.833   3.963  17.078  0.00  0.00    +0.000 OA
ATOM     21  C   UNL     1      48.964   5.880  18.169  0.00  0.00    +0.000 A 
ATOM     22  H   UNL     1      49.348   2.771  19.167  0.00  0.00    +0.000 HD
ENDBRANCH   9  12
ENDBRANCH   7  10
ENDBRANCH   1   7
BRANCH   4  23
ATOM     23  C   UNL     1      43.477   5.174  10.738  0.00  0.00    +0.000 C 
BRANCH  23  24
ATOM     24  N   UNL     1      43.751   4.574   9.432  0.00  0.00    +0.000 NA
ATOM     25  H   UNL     1      44.481   5.086   8.944  0.00  0.00    +0.000 HD
BRANCH  24  26
ATOM     26  CA  UNL     1      44.062   3.134   9.501  0.00  0.00    +0.000 C 
BRANCH  26  27
ATOM     27  C   UNL     1      45.251   2.834   8.592  0.00  0.00    +0.000 A 
ATOM     28  C   UNL     1      45.833   3.874   7.854  0.00  0.00    +0.000 A 
ATOM     29  C   UNL     1      46.915   3.594   7.029  0.00  0.00    +0.000 A 
ATOM     30  N   UNL     1      47.462   2.371   6.890  0.00  0.00    +0.000 NA
ATOM     31  C   UNL     1      46.907   1.383   7.619  0.00  0.00    +0.000 A 
ATOM     32  C   UNL     1      45.826   1.562   8.472  0.00  0.00    +0.000 A 
ENDBRANCH  26  27
BRANCH  26  33
ATOM     33  C   UNL     1      44.216   2.572  10.947  0.00  0.00    +0.000 C 
BRANCH  33  34
ATOM     34  O   UNL     1      43.041   1.924  11.435  0.00  0.00    +0.000 OA
ATOM     35  H   UNL     1      42.844   2.298  12.310  0.00  0.00    +0.000 HD
ENDBRANCH  33  34
ENDBRANCH  26  33
ENDBRANCH  24  26
ENDBRANCH  23  24
ENDBRANCH   4  23
TORSDOF 9
ENDMDL
MODEL 3
REMARK VINA RESULT:    -7.574      2.222      2.729
REMARK INTER + INTRA:         -12.468
REMARK INTER:                 -11.464
REMARK INTRA:                  -1.004
REMARK UNBOUND:                -1.131
REMARK  Name = 
REMARK  9 active torsions:
REMARK  status: ('A' for Active; 'I' for Inactive)
REMARK    1  A    between atoms: C_2  and  C_22
REMARK    2  A    between atoms: N_3  and  C_4
REMARK    3  A    between atoms: C_4  and  C_5
REMARK    4  A    between atoms: C_8  and  C_9
REMARK    5  A    between atoms: C_9  and  N_10
REMARK    6  A    between atoms: N_10  and  CA_11
REMARK    7  A    between atoms: CA_11  and  C_12
REMARK    8  A    between atoms: CA_11  and  C_14
REMARK    9  A    between atoms: C_12  and  O_13
REMARK                            x       y       z     vdW  Elec       q    Type
REMARK                         _______ _______ _______ _____ _____    ______ ____
ROOT
ATOM      1  C   UNL     1      47.499   6.488  13.559  0.00  0.00    +0.000 A 
ATOM      2  C   UNL     1      47.279   7.161  12.349  0.00  0.00    +0.000 A 
ATOM      3  C   UNL     1      46.167   6.860  11.557  0.00  0.00    +0.000 A 
ATOM      4  C   UNL     1      45.259   5.868  11.951  0.00  0.00    +0.000 A 
ATOM      5  C   UNL     1      45.461   5.228  13.185  0.00  0.00    +0.000 A 
ATOM      6  C   UNL     1      46.567   5.534  13.981  0.00  0.00    +0.000 A 
ENDROOT
BRANCH   1   7
ATOM      7  C   UNL     1      48.705   6.816  14.400  0.00  0.00    +0.000 C 
BRANCH   7  10
ATOM      8  O   UNL     1      50.573   5.931  16.317  0.00  0.00    +0.000 OA
ATOM      9  C   UNL     1      49.429   6.198  16.675  0.00  0.00    +0.000 C 
ATOM     10  N   UNL     1      48.451   6.583  15.797  0.00  0.00    +0.000 N 
ATOM     11  H   UNL     1      47.578   6.953  16.156  0.00  0.00    +0.000 HD
BRANCH   9  12
ATOM     12  C   UNL     1      49.017   6.066  18.079  0.00  0.00    +0.000 A 
ATOM     13  C   UNL     1      49.254   4.878  18.759  0.00  0.00    +0.000 A 
ATOM     14  S   UNL     1      48.717   4.899  20.378  0.00  0.00    +0.000 S 
ATOM     15  C   UNL     1      48.186   6.510  20.239  0.00  0.00    +0.000 A 
ATOM     16  N   UNL     1      47.646   7.162  21.302  0.00  0.00    +0.000 NA
ATOM     17  C   UNL     1      47.322   8.390  21.068  0.00  0.00    +0.000 A 
ATOM     18  N   UNL     1      47.474   9.020  19.859  0.00  0.00    +0.000 N 
ATOM     19  C   UNL     1      47.937   8.376  18.738  0.00  0.00    +0.000 A 
ATOM     20  O   UNL     1      47.917   8.927  17.641  0.00  0.00    +0.000 OA
ATOM     21  C   UNL     1      48.373   7.012  18.961  0.00  0.00    +0.000 A 
ATOM     22  H   UNL     1      47.164   9.971  19.730  0.00  0.00    +0.000 HD
ENDBRANCH   9  12
ENDBRANCH   7  10
ENDBRANCH   1   7
BRANCH   4  23
ATOM     23  C   UNL     1      44.030   5.530  11.139  0.00  0.00    +0.000 C 
BRANCH  23  24
ATOM     24  N   UNL     1      44.330   5.026   9.799  0.00  0.00    +0.000 NA
ATOM     25  H   UNL     1      45.254   5.325   9.497  0.00  0.00    +0.000 HD
BRANCH  24  26
ATOM     26  CA  UNL     1      44.174   3.564   9.672  0.00  0.00    +0.000 C 
BRANCH  26  27
ATOM     27  C   UNL     1      45.241   3.026   8.723  0.00  0.00    +0.000 A 
ATOM     28  C   UNL     1      45.542   1.657   8.732  0.00  0.00    +0.000 A 
ATOM     29  C   UNL     1      46.515   1.173   7.866  0.00  0.00    +0.000 A 
ATOM     30  N   UNL     1      47.198   1.939   6.994  0.00  0.00    +0.000 NA
ATOM     31  C   UNL     1      46.886   3.250   6.980  0.00  0.00    +0.000 A 
ATOM     32  C   UNL     1      45.929   3.828   7.804  0.00  0.00    +0.000 A 
ENDBRANCH  26  27
BRANCH  26  33
ATOM     33  C   UNL     1      44.094   2.801  11.029  0.00  0.00    +0.000 C 
BRANCH  33  34
ATOM     34  O   UNL     1      42.764   2.434  11.400  0.00  0.00    +0.000 OA
ATOM     35  H   UNL     1      42.507   2.991  12.154  0.00  0.00    +0.000 HD
ENDBRANCH  33  34
ENDBRANCH  26  33
ENDBRANCH  24  26
ENDBRANCH  23  24
ENDBRANCH   4  23
TORSDOF 9
ENDMDL
MODEL 4
REMARK VINA RESULT:    -7.513      3.351      8.000
REMARK INTER + INTRA:         -12.377
REMARK INTER:                 -10.816
REMARK INTRA:                  -1.561
REMARK UNBOUND:                -1.131
REMARK  Name = 
REMARK  9 active torsions:
REMARK  status: ('A' for Active; 'I' for Inactive)
REMARK    1  A    between atoms: C_2  and  C_22
REMARK    2  A    between atoms: N_3  and  C_4
REMARK    3  A    between atoms: C_4  and  C_5
REMARK    4  A    between atoms: C_8  and  C_9
REMARK    5  A    between atoms: C_9  and  N_10
REMARK    6  A    between atoms: N_10  and  CA_11
REMARK    7  A    between atoms: CA_11  and  C_12
REMARK    8  A    between atoms: CA_11  and  C_14
REMARK    9  A    between atoms: C_12  and  O_13
REMARK                            x       y       z     vdW  Elec       q    Type
REMARK                         _______ _______ _______ _____ _____    ______ ____
ROOT
ATOM      1  C   UNL     1      48.469   7.972  13.621  0.00  0.00    +0.000 A 
ATOM      2  C   UNL     1      49.242   6.902  14.093  0.00  0.00    +0.000 A 
ATOM      3  C   UNL     1      49.485   6.747  15.461  0.00  0.00    +0.000 A 
ATOM      4  C   UNL     1      48.971   7.666  16.385  0.00  0.00    +0.000 A 
ATOM      5  C   UNL     1      48.161   8.710  15.910  0.00  0.00    +0.000 A 
ATOM      6  C   UNL     1      47.911   8.861  14.545  0.00  0.00    +0.000 A 
ENDROOT
BRANCH   1   7
ATOM      7  C   UNL     1      48.220   8.133  12.144  0.00  0.00    +0.000 C 
BRANCH   7  10
ATOM      8  O   UNL     1      45.426   7.911  11.837  0.00  0.00    +0.000 OA
ATOM      9  C   UNL     1      46.146   6.996  11.444  0.00  0.00    +0.000 C 
ATOM     10  N   UNL     1      47.506   7.007  11.604  0.00  0.00    +0.000 N 
ATOM     11  H   UNL     1      48.069   6.318  11.117  0.00  0.00    +0.000 HD
BRANCH   9  12
ATOM     12  C   UNL     1      45.581   5.794  10.818  0.00  0.00    +0.000 A 
ATOM     13  C   UNL     1      45.837   5.528   9.478  0.00  0.00    +0.000 A 
ATOM     14  S   UNL     1      45.110   4.092   8.916  0.00  0.00    +0.000 S 
ATOM     15  C   UNL     1      44.458   3.754  10.452  0.00  0.00    +0.000 A 
ATOM     16  N   UNL     1      43.739   2.623  10.673  0.00  0.00    +0.000 NA
ATOM     17  C   UNL     1      43.339   2.474  11.891  0.00  0.00    +0.000 A 
ATOM     18  N   UNL     1      43.580   3.364  12.907  0.00  0.00    +0.000 N 
ATOM     19  C   UNL     1      44.230   4.558  12.710  0.00  0.00    +0.000 A 
ATOM     20  O   UNL     1      44.294   5.395  13.606  0.00  0.00    +0.000 OA
ATOM     21  C   UNL     1      44.754   4.747  11.372  0.00  0.00    +0.000 A 
ATOM     22  H   UNL     1      43.205   3.208  13.830  0.00  0.00    +0.000 HD
ENDBRANCH   9  12
ENDBRANCH   7  10
ENDBRANCH   1   7
BRANCH   4  23
ATOM     23  C   UNL     1      49.187   7.520  17.874  0.00  0.00    +0.000 C 
BRANCH  23  24
ATOM     24  N   UNL     1      49.919   6.310  18.247  0.00  0.00    +0.000 NA
ATOM     25  H   UNL     1      50.664   6.524  18.905  0.00  0.00    +0.000 HD
BRANCH  24  26
ATOM     26  CA  UNL     1      49.051   5.230  18.753  0.00  0.00    +0.000 C 
BRANCH  26  27
ATOM     27  C   UNL     1      49.215   3.998  17.867  0.00  0.00    +0.000 A 
ATOM     28  C   UNL     1      48.142   3.578  17.068  0.00  0.00    +0.000 A 
ATOM     29  C   UNL     1      48.298   2.456  16.263  0.00  0.00    +0.000 A 
ATOM     30  N   UNL     1      49.430   1.732  16.188  0.00  0.00    +0.000 NA
ATOM     31  C   UNL     1      50.461   2.157  16.945  0.00  0.00    +0.000 A 
ATOM     32  C   UNL     1      50.405   3.266  17.779  0.00  0.00    +0.000 A 
ENDBRANCH  26  27
BRANCH  26  33
ATOM     33  C   UNL     1      49.205   4.935  20.276  0.00  0.00    +0.000 C 
BRANCH  33  34
ATOM     34  O   UNL     1      48.445   3.809  20.718  0.00  0.00    +0.000 OA
ATOM     35  H   UNL     1      48.999   3.019  20.601  0.00  0.00    +0.000 HD
ENDBRANCH  33  34
ENDBRANCH  26  33
ENDBRANCH  24  26
ENDBRANCH  23  24
ENDBRANCH   4  23
TORSDOF 9
ENDMDL
MODEL 5
REMARK VINA RESULT:    -7.351      2.354      3.182
REMARK INTER + INTRA:         -12.134
REMARK INTER:                 -10.731
REMARK INTRA:                  -1.403
REMARK UNBOUND:                -1.131
REMARK  Name = 
REMARK  9 active torsions:
REMARK  status: ('A' for Active; 'I' for Inactive)
REMARK    1  A    between atoms: C_2  and  C_22
REMARK    2  A    between atoms: N_3  and  C_4
REMARK    3  A    between atoms: C_4  and  C_5
REMARK    4  A    between atoms: C_8  and  C_9
REMARK    5  A    between atoms: C_9  and  N_10
REMARK    6  A    between atoms: N_10  and  CA_11
REMARK    7  A    between atoms: CA_11  and  C_12
REMARK    8  A    between atoms: CA_11  and  C_14
REMARK    9  A    between atoms: C_12  and  O_13
REMARK                            x       y       z     vdW  Elec       q    Type
REMARK                         _______ _______ _______ _____ _____    ______ ____
ROOT
ATOM      1  C   UNL     1      47.200   8.107  12.323  0.00  0.00    +0.000 A 
ATOM      2  C   UNL     1      47.303   6.814  11.793  0.00  0.00    +0.000 A 
ATOM      3  C   UNL     1      46.156   6.078  11.480  0.00  0.00    +0.000 A 
ATOM      4  C   UNL     1      44.882   6.615  11.704  0.00  0.00    +0.000 A 
ATOM      5  C   UNL     1      44.785   7.928  12.194  0.00  0.00    +0.000 A 
ATOM      6  C   UNL     1      45.930   8.666  12.499  0.00  0.00    +0.000 A 
ENDROOT
BRANCH   1   7
ATOM      7  C   UNL     1      48.443   8.888  12.664  0.00  0.00    +0.000 C 
BRANCH   7  10
ATOM      8  O   UNL     1      48.307   9.009  15.477  0.00  0.00    +0.000 OA
ATOM      9  C   UNL     1      49.115   8.249  14.950  0.00  0.00    +0.000 C 
ATOM     10  N   UNL     1      49.277   8.171  13.592  0.00  0.00    +0.000 N 
ATOM     11  H   UNL     1      49.827   7.415  13.200  0.00  0.00    +0.000 HD
BRANCH   9  12
ATOM     12  C   UNL     1      50.006   7.403  15.753  0.00  0.00    +0.000 A 
ATOM     13  C   UNL     1      49.479   6.610  16.765  0.00  0.00    +0.000 A 
ATOM     14  S   UNL     1      50.652   5.690  17.593  0.00  0.00    +0.000 S 
ATOM     15  C   UNL     1      51.901   6.289  16.604  0.00  0.00    +0.000 A 
ATOM     16  N   UNL     1      53.182   5.865  16.762  0.00  0.00    +0.000 NA
ATOM     17  C   UNL     1      54.020   6.370  15.920  0.00  0.00    +0.000 A 
ATOM     18  N   UNL     1      53.694   7.276  14.943  0.00  0.00    +0.000 N 
ATOM     19  C   UNL     1      52.430   7.794  14.801  0.00  0.00    +0.000 A 
ATOM     20  O   UNL     1      52.210   8.712  14.016  0.00  0.00    +0.000 OA
ATOM     21  C   UNL     1      51.437   7.213  15.682  0.00  0.00    +0.000 A 
ATOM     22  H   UNL     1      54.405   7.663  14.340  0.00  0.00    +0.000 HD
ENDBRANCH   9  12
ENDBRANCH   7  10
ENDBRANCH   1   7
BRANCH   4  23
ATOM     23  C   UNL     1      43.617   5.865  11.353  0.00  0.00    +0.000 C 
BRANCH  23  24
ATOM     24  N   UNL     1      43.637   5.266  10.019  0.00  0.00    +0.000 NA
ATOM     25  H   UNL     1      44.373   5.676   9.449  0.00  0.00    +0.000 HD
BRANCH  24  26
ATOM     26  CA  UNL     1      43.729   3.795  10.035  0.00  0.00    +0.000 C 
BRANCH  26  27
ATOM     27  C   UNL     1      44.850   3.351   9.098  0.00  0.00    +0.000 A 
ATOM     28  C   UNL     1      45.180   1.991   9.015  0.00  0.00    +0.000 A 
ATOM     29  C   UNL     1      46.200   1.595   8.160  0.00  0.00    +0.000 A 
ATOM     30  N   UNL     1      46.905   2.438   7.382  0.00  0.00    +0.000 NA
ATOM     31  C   UNL     1      46.565   3.741   7.455  0.00  0.00    +0.000 A 
ATOM     32  C   UNL     1      45.560   4.236   8.277  0.00  0.00    +0.000 A 
ENDBRANCH  26  27
BRANCH  26  33
ATOM     33  C   UNL     1      43.814   3.166  11.459  0.00  0.00    +0.000 C 
BRANCH  33  34
ATOM     34  O   UNL     1      42.890   2.097  11.667  0.00  0.00    +0.000 OA
ATOM     35  H   UNL     1      42.809   1.964  12.627  0.00  0.00    +0.000 HD
ENDBRANCH  33  34
ENDBRANCH  26  33
ENDBRANCH  24  26
ENDBRANCH  23  24
ENDBRANCH   4  23
TORSDOF 9
ENDMDL
MODEL 6
REMARK VINA RESULT:    -7.161      2.977      8.156
REMARK INTER + INTRA:         -11.850
REMARK INTER:                  -9.970
REMARK INTRA:                  -1.881
REMARK UNBOUND:                -1.131
REMARK  Name = 
REMARK  9 active torsions:
REMARK  status: ('A' for Active; 'I' for Inactive)
REMARK    1  A    between atoms: C_2  and  C_22
REMARK    2  A    between atoms: N_3  and  C_4
REMARK    3  A    between atoms: C_4  and  C_5
REMARK    4  A    between atoms: C_8  and  C_9
REMARK    5  A    between atoms: C_9  and  N_10
REMARK    6  A    between atoms: N_10  and  CA_11
REMARK    7  A    between atoms: CA_11  and  C_12
REMARK    8  A    between atoms: CA_11  and  C_14
REMARK    9  A    between atoms: C_12  and  O_13
REMARK                            x       y       z     vdW  Elec       q    Type
REMARK                         _______ _______ _______ _____ _____    ______ ____
ROOT
ATOM      1  C   UNL     1      48.226   7.882  13.215  0.00  0.00    +0.000 A 
ATOM      2  C   UNL     1      49.390   7.175  13.543  0.00  0.00    +0.000 A 
ATOM      3  C   UNL     1      49.948   7.272  14.821  0.00  0.00    +0.000 A 
ATOM      4  C   UNL     1      49.359   8.089  15.795  0.00  0.00    +0.000 A 
ATOM      5  C   UNL     1      48.167   8.760  15.474  0.00  0.00    +0.000 A 
ATOM      6  C   UNL     1      47.606   8.657  14.200  0.00  0.00    +0.000 A 
ENDROOT
BRANCH   1   7
ATOM      7  C   UNL     1      47.639   7.775  11.831  0.00  0.00    +0.000 C 
BRANCH   7  10
ATOM      8  O   UNL     1      44.860   7.428  12.152  0.00  0.00    +0.000 OA
ATOM      9  C   UNL     1      45.544   6.474  11.791  0.00  0.00    +0.000 C 
ATOM     10  N   UNL     1      46.906   6.549  11.663  0.00  0.00    +0.000 N 
ATOM     11  H   UNL     1      47.404   5.795  11.204  0.00  0.00    +0.000 HD
BRANCH   9  12
ATOM     12  C   UNL     1      44.944   5.160  11.524  0.00  0.00    +0.000 A 
ATOM     13  C   UNL     1      44.227   4.513  12.522  0.00  0.00    +0.000 A 
ATOM     14  S   UNL     1      43.596   3.003  12.040  0.00  0.00    +0.000 S 
ATOM     15  C   UNL     1      44.226   3.179  10.469  0.00  0.00    +0.000 A 
ATOM     16  N   UNL     1      44.008   2.233   9.519  0.00  0.00    +0.000 NA
ATOM     17  C   UNL     1      44.509   2.512   8.362  0.00  0.00    +0.000 A 
ATOM     18  N   UNL     1      45.223   3.646   8.074  0.00  0.00    +0.000 N 
ATOM     19  C   UNL     1      45.537   4.588   9.023  0.00  0.00    +0.000 A 
ATOM     20  O   UNL     1      46.305   5.512   8.765  0.00  0.00    +0.000 OA
ATOM     21  C   UNL     1      44.947   4.353  10.325  0.00  0.00    +0.000 A 
ATOM     22  H   UNL     1      45.622   3.787   7.158  0.00  0.00    +0.000 HD
ENDBRANCH   9  12
ENDBRANCH   7  10
ENDBRANCH   1   7
BRANCH   4  23
ATOM     23  C   UNL     1      49.912   8.201  17.197  0.00  0.00    +0.000 C 
BRANCH  23  24
ATOM     24  N   UNL     1      50.079   6.913  17.869  0.00  0.00    +0.000 NA
ATOM     25  H   UNL     1      50.651   7.010  18.704  0.00  0.00    +0.000 HD
BRANCH  24  26
ATOM     26  CA  UNL     1      48.803   6.237  18.169  0.00  0.00    +0.000 C 
BRANCH  26  27
ATOM     27  C   UNL     1      48.767   4.891  17.450  0.00  0.00    +0.000 A 
ATOM     28  C   UNL     1      49.709   3.907  17.784  0.00  0.00    +0.000 A 
ATOM     29  C   UNL     1      49.670   2.684  17.126  0.00  0.00    +0.000 A 
ATOM     30  N   UNL     1      48.770   2.366  16.176  0.00  0.00    +0.000 NA
ATOM     31  C   UNL     1      47.857   3.311  15.878  0.00  0.00    +0.000 A 
ATOM     32  C   UNL     1      47.812   4.562  16.480  0.00  0.00    +0.000 A 
ENDBRANCH  26  27
BRANCH  26  33
ATOM     33  C   UNL     1      48.457   6.150  19.687  0.00  0.00    +0.000 C 
BRANCH  33  34
ATOM     34  O   UNL     1      47.321   5.329  19.967  0.00  0.00    +0.000 OA
ATOM     35  H   UNL     1      46.899   5.115  19.118  0.00  0.00    +0.000 HD
ENDBRANCH  33  34
ENDBRANCH  26  33
ENDBRANCH  24  26
ENDBRANCH  23  24
ENDBRANCH   4  23
TORSDOF 9
ENDMDL
MODEL 7
REMARK VINA RESULT:    -7.101      3.212      4.381
REMARK INTER + INTRA:         -11.761
REMARK INTER:                 -10.700
REMARK INTRA:                  -1.061
REMARK UNBOUND:                -1.131
REMARK  Name = 
REMARK  9 active torsions:
REMARK  status: ('A' for Active; 'I' for Inactive)
REMARK    1  A    between atoms: C_2  and  C_22
REMARK    2  A    between atoms: N_3  and  C_4
REMARK    3  A    between atoms: C_4  and  C_5
REMARK    4  A    between atoms: C_8  and  C_9
REMARK    5  A    between atoms: C_9  and  N_10
REMARK    6  A    between atoms: N_10  and  CA_11
REMARK    7  A    between atoms: CA_11  and  C_12
REMARK    8  A    between atoms: CA_11  and  C_14
REMARK    9  A    between atoms: C_12  and  O_13
REMARK                            x       y       z     vdW  Elec       q    Type
REMARK                         _______ _______ _______ _____ _____    ______ ____
ROOT
ATOM      1  C   UNL     1      48.364   5.584  16.366  0.00  0.00    +0.000 A 
ATOM      2  C   UNL     1      48.332   6.367  15.204  0.00  0.00    +0.000 A 
ATOM      3  C   UNL     1      47.629   5.940  14.074  0.00  0.00    +0.000 A 
ATOM      4  C   UNL     1      46.953   4.712  14.078  0.00  0.00    +0.000 A 
ATOM      5  C   UNL     1      46.952   3.952  15.259  0.00  0.00    +0.000 A 
ATOM      6  C   UNL     1      47.648   4.383  16.390  0.00  0.00    +0.000 A 
ENDROOT
BRANCH   1   7
ATOM      7  C   UNL     1      49.132   6.052  17.575  0.00  0.00    +0.000 C 
BRANCH   7  10
ATOM      8  O   UNL     1      51.767   6.101  16.575  0.00  0.00    +0.000 OA
ATOM      9  C   UNL     1      51.462   5.260  17.416  0.00  0.00    +0.000 C 
ATOM     10  N   UNL     1      50.191   5.139  17.911  0.00  0.00    +0.000 N 
ATOM     11  H   UNL     1      50.027   4.549  18.720  0.00  0.00    +0.000 HD
BRANCH   9  12
ATOM     12  C   UNL     1      52.441   4.284  17.911  0.00  0.00    +0.000 A 
ATOM     13  C   UNL     1      53.611   4.726  18.517  0.00  0.00    +0.000 A 
ATOM     14  S   UNL     1      54.631   3.462  19.036  0.00  0.00    +0.000 S 
ATOM     15  C   UNL     1      53.529   2.279  18.505  0.00  0.00    +0.000 A 
ATOM     16  N   UNL     1      53.781   0.957  18.687  0.00  0.00    +0.000 NA
ATOM     17  C   UNL     1      52.843   0.172  18.272  0.00  0.00    +0.000 A 
ATOM     18  N   UNL     1      51.681   0.591  17.676  0.00  0.00    +0.000 N 
ATOM     19  C   UNL     1      51.422   1.911  17.398  0.00  0.00    +0.000 A 
ATOM     20  O   UNL     1      50.444   2.234  16.729  0.00  0.00    +0.000 OA
ATOM     21  C   UNL     1      52.416   2.839  17.899  0.00  0.00    +0.000 A 
ATOM     22  H   UNL     1      51.004  -0.077  17.338  0.00  0.00    +0.000 HD
ENDBRANCH   9  12
ENDBRANCH   7  10
ENDBRANCH   1   7
BRANCH   4  23
ATOM     23  C   UNL     1      46.158   4.225  12.887  0.00  0.00    +0.000 C 
BRANCH  23  24
ATOM     24  N   UNL     1      44.733   4.548  12.959  0.00  0.00    +0.000 NA
ATOM     25  H   UNL     1      44.526   5.092  13.792  0.00  0.00    +0.000 HD
BRANCH  24  26
ATOM     26  CA  UNL     1      44.219   5.210  11.745  0.00  0.00    +0.000 C 
BRANCH  26  27
ATOM     27  C   UNL     1      44.558   4.355  10.526  0.00  0.00    +0.000 A 
ATOM     28  C   UNL     1      45.310   4.913   9.483  0.00  0.00    +0.000 A 
ATOM     29  C   UNL     1      45.616   4.130   8.377  0.00  0.00    +0.000 A 
ATOM     30  N   UNL     1      45.239   2.845   8.235  0.00  0.00    +0.000 NA
ATOM     31  C   UNL     1      44.534   2.314   9.252  0.00  0.00    +0.000 A 
ATOM     32  C   UNL     1      44.180   3.013  10.399  0.00  0.00    +0.000 A 
ENDBRANCH  26  27
BRANCH  26  33
ATOM     33  C   UNL     1      42.720   5.631  11.822  0.00  0.00    +0.000 C 
BRANCH  33  34
ATOM     34  O   UNL     1      42.412   6.788  11.044  0.00  0.00    +0.000 OA
ATOM     35  H   UNL     1      41.484   7.018  11.217  0.00  0.00    +0.000 HD
ENDBRANCH  33  34
ENDBRANCH  26  33
ENDBRANCH  24  26
ENDBRANCH  23  24
ENDBRANCH   4  23
TORSDOF 9
ENDMDL
MODEL 8
REMARK VINA RESULT:    -6.873      3.264      5.358
REMARK INTER + INTRA:         -11.418
REMARK INTER:                 -10.149
REMARK INTRA:                  -1.269
REMARK UNBOUND:                -1.131
REMARK  Name = 
REMARK  9 active torsions:
REMARK  status: ('A' for Active; 'I' for Inactive)
REMARK    1  A    between atoms: C_2  and  C_22
REMARK    2  A    between atoms: N_3  and  C_4
REMARK    3  A    between atoms: C_4  and  C_5
REMARK    4  A    between atoms: C_8  and  C_9
REMARK    5  A    between atoms: C_9  and  N_10
REMARK    6  A    between atoms: N_10  and  CA_11
REMARK    7  A    between atoms: CA_11  and  C_12
REMARK    8  A    between atoms: CA_11  and  C_14
REMARK    9  A    between atoms: C_12  and  O_13
REMARK                            x       y       z     vdW  Elec       q    Type
REMARK                         _______ _______ _______ _____ _____    ______ ____
ROOT
ATOM      1  C   UNL     1      47.672   4.367  16.052  0.00  0.00    +0.000 A 
ATOM      2  C   UNL     1      47.034   4.000  14.859  0.00  0.00    +0.000 A 
ATOM      3  C   UNL     1      46.990   4.879  13.773  0.00  0.00    +0.000 A 
ATOM      4  C   UNL     1      47.572   6.151  13.862  0.00  0.00    +0.000 A 
ATOM      5  C   UNL     1      48.247   6.496  15.044  0.00  0.00    +0.000 A 
ATOM      6  C   UNL     1      48.298   5.615  16.126  0.00  0.00    +0.000 A 
ENDROOT
BRANCH   1   7
ATOM      7  C   UNL     1      47.706   3.414  17.218  0.00  0.00    +0.000 C 
BRANCH   7  10
ATOM      8  O   UNL     1      49.517   1.659  15.958  0.00  0.00    +0.000 OA
ATOM      9  C   UNL     1      49.890   2.304  16.935  0.00  0.00    +0.000 C 
ATOM     10  N   UNL     1      49.055   3.137  17.632  0.00  0.00    +0.000 N 
ATOM     11  H   UNL     1      49.447   3.771  18.318  0.00  0.00    +0.000 HD
BRANCH   9  12
ATOM     12  C   UNL     1      51.257   2.180  17.456  0.00  0.00    +0.000 A 
ATOM     13  C   UNL     1      51.850   0.926  17.547  0.00  0.00    +0.000 A 
ATOM     14  S   UNL     1      53.439   0.966  18.167  0.00  0.00    +0.000 S 
ATOM     15  C   UNL     1      53.405   2.663  18.299  0.00  0.00    +0.000 A 
ATOM     16  N   UNL     1      54.490   3.351  18.739  0.00  0.00    +0.000 NA
ATOM     17  C   UNL     1      54.340   4.633  18.753  0.00  0.00    +0.000 A 
ATOM     18  N   UNL     1      53.194   5.289  18.381  0.00  0.00    +0.000 N 
ATOM     19  C   UNL     1      52.048   4.630  18.009  0.00  0.00    +0.000 A 
ATOM     20  O   UNL     1      50.999   5.243  17.829  0.00  0.00    +0.000 OA
ATOM     21  C   UNL     1      52.182   3.190  17.918  0.00  0.00    +0.000 A 
ATOM     22  H   UNL     1      53.127   6.293  18.452  0.00  0.00    +0.000 HD
ENDBRANCH   9  12
ENDBRANCH   7  10
ENDBRANCH   1   7
BRANCH   4  23
ATOM     23  C   UNL     1      47.571   7.121  12.703  0.00  0.00    +0.000 C 
BRANCH  23  24
ATOM     24  N   UNL     1      47.005   6.568  11.473  0.00  0.00    +0.000 NA
ATOM     25  H   UNL     1      47.146   5.563  11.429  0.00  0.00    +0.000 HD
BRANCH  24  26
ATOM     26  CA  UNL     1      45.588   6.921  11.267  0.00  0.00    +0.000 C 
BRANCH  26  27
ATOM     27  C   UNL     1      44.758   5.641  11.193  0.00  0.00    +0.000 A 
ATOM     28  C   UNL     1      43.607   5.520  11.983  0.00  0.00    +0.000 A 
ATOM     29  C   UNL     1      42.857   4.353  11.910  0.00  0.00    +0.000 A 
ATOM     30  N   UNL     1      43.158   3.311  11.113  0.00  0.00    +0.000 NA
ATOM     31  C   UNL     1      44.255   3.446  10.343  0.00  0.00    +0.000 A 
ATOM     32  C   UNL     1      45.069   4.572  10.343  0.00  0.00    +0.000 A 
ENDBRANCH  26  27
BRANCH  26  33
ATOM     33  C   UNL     1      45.029   7.975  12.271  0.00  0.00    +0.000 C 
BRANCH  33  34
ATOM     34  O   UNL     1      44.314   9.039  11.641  0.00  0.00    +0.000 OA
ATOM     35  H   UNL     1      44.394   8.916  10.680  0.00  0.00    +0.000 HD
ENDBRANCH  33  34
ENDBRANCH  26  33
ENDBRANCH  24  26
ENDBRANCH  23  24
ENDBRANCH   4  23
TORSDOF 9
ENDMDL
MODEL 9
REMARK VINA RESULT:    -6.583      3.633      5.025
REMARK INTER + INTRA:         -10.986
REMARK INTER:                 -10.280
REMARK INTRA:                  -0.705
REMARK UNBOUND:                -1.131
REMARK  Name = 
REMARK  9 active torsions:
REMARK  status: ('A' for Active; 'I' for Inactive)
REMARK    1  A    between atoms: C_2  and  C_22
REMARK    2  A    between atoms: N_3  and  C_4
REMARK    3  A    between atoms: C_4  and  C_5
REMARK    4  A    between atoms: C_8  and  C_9
REMARK    5  A    between atoms: C_9  and  N_10
REMARK    6  A    between atoms: N_10  and  CA_11
REMARK    7  A    between atoms: CA_11  and  C_12
REMARK    8  A    between atoms: CA_11  and  C_14
REMARK    9  A    between atoms: C_12  and  O_13
REMARK                            x       y       z     vdW  Elec       q    Type
REMARK                         _______ _______ _______ _____ _____    ______ ____
ROOT
ATOM      1  C   UNL     1      47.886   7.002  13.454  0.00  0.00    +0.000 A 
ATOM      2  C   UNL     1      47.380   5.700  13.565  0.00  0.00    +0.000 A 
ATOM      3  C   UNL     1      46.419   5.229  12.665  0.00  0.00    +0.000 A 
ATOM      4  C   UNL     1      45.934   6.056  11.643  0.00  0.00    +0.000 A 
ATOM      5  C   UNL     1      46.478   7.345  11.510  0.00  0.00    +0.000 A 
ATOM      6  C   UNL     1      47.442   7.813  12.404  0.00  0.00    +0.000 A 
ENDROOT
BRANCH   1   7
ATOM      7  C   UNL     1      48.915   7.501  14.435  0.00  0.00    +0.000 C 
BRANCH   7  10
ATOM      8  O   UNL     1      51.008   9.231  15.194  0.00  0.00    +0.000 OA
ATOM      9  C   UNL     1      51.201   8.416  14.295  0.00  0.00    +0.000 C 
ATOM     10  N   UNL     1      50.220   7.578  13.835  0.00  0.00    +0.000 N 
ATOM     11  H   UNL     1      50.469   6.814  13.217  0.00  0.00    +0.000 HD
BRANCH   9  12
ATOM     12  C   UNL     1      52.497   8.325  13.611  0.00  0.00    +0.000 A 
ATOM     13  C   UNL     1      53.656   8.123  14.353  0.00  0.00    +0.000 A 
ATOM     14  S   UNL     1      55.068   8.037  13.401  0.00  0.00    +0.000 S 
ATOM     15  C   UNL     1      54.179   8.227  11.963  0.00  0.00    +0.000 A 
ATOM     16  N   UNL     1      54.795   8.205  10.752  0.00  0.00    +0.000 NA
ATOM     17  C   UNL     1      53.996   8.321   9.744  0.00  0.00    +0.000 A 
ATOM     18  N   UNL     1      52.636   8.474   9.839  0.00  0.00    +0.000 N 
ATOM     19  C   UNL     1      51.983   8.584  11.042  0.00  0.00    +0.000 A 
ATOM     20  O   UNL     1      50.790   8.871  11.087  0.00  0.00    +0.000 OA
ATOM     21  C   UNL     1      52.826   8.399  12.206  0.00  0.00    +0.000 A 
ATOM     22  H   UNL     1      52.072   8.598   9.012  0.00  0.00    +0.000 HD
ENDBRANCH   9  12
ENDBRANCH   7  10
ENDBRANCH   1   7
BRANCH   4  23
ATOM     23  C   UNL     1      44.917   5.578  10.632  0.00  0.00    +0.000 C 
BRANCH  23  24
ATOM     24  N   UNL     1      45.511   5.015   9.420  0.00  0.00    +0.000 NA
ATOM     25  H   UNL     1      46.516   4.902   9.526  0.00  0.00    +0.000 HD
BRANCH  24  26
ATOM     26  CA  UNL     1      44.875   3.758   8.983  0.00  0.00    +0.000 C 
BRANCH  26  27
ATOM     27  C   UNL     1      45.895   2.920   8.214  0.00  0.00    +0.000 A 
ATOM     28  C   UNL     1      45.891   1.526   8.363  0.00  0.00    +0.000 A 
ATOM     29  C   UNL     1      46.821   0.770   7.661  0.00  0.00    +0.000 A 
ATOM     30  N   UNL     1      47.740   1.289   6.825  0.00  0.00    +0.000 NA
ATOM     31  C   UNL     1      47.721   2.628   6.675  0.00  0.00    +0.000 A 
ATOM     32  C   UNL     1      46.831   3.469   7.330  0.00  0.00    +0.000 A 
ENDBRANCH  26  27
BRANCH  26  33
ATOM     33  C   UNL     1      44.141   2.975  10.113  0.00  0.00    +0.000 C 
BRANCH  33  34
ATOM     34  O   UNL     1      45.010   2.523  11.152  0.00  0.00    +0.000 OA
ATOM     35  H   UNL     1      44.754   1.612  11.372  0.00  0.00    +0.000 HD
ENDBRANCH  33  34
ENDBRANCH  26  33
ENDBRANCH  24  26
ENDBRANCH  23  24
ENDBRANCH   4  23
TORSDOF 9
ENDMDL
