MODEL 1
REMARK VINA RESULT:    -7.978      0.000      0.000
REMARK INTER + INTRA:         -10.424
REMARK INTER:                 -10.310
REMARK INTRA:                  -0.114
REMARK UNBOUND:                -0.114
REMARK  Name = 
REMARK  6 active torsions:
REMARK  status: ('A' for Active; 'I' for Inactive)
REMARK    1  A    between atoms: C_1  and  C_2
REMARK    2  A    between atoms: C_7  and  C_8
REMARK    3  A    between atoms: N_10  and  C_11
REMARK    4  A    between atoms: C_11  and  C_12
REMARK    5  A    between atoms: C_15  and  C_16
REMARK    6  A    between atoms: C_16  and  N_17
REMARK                            x       y       z     vdW  Elec       q    Type
REMARK                         _______ _______ _______ _____ _____    ______ ____
ROOT
ATOM      1  C   UNL     1      46.369   4.366  14.126  0.00  0.00    +0.000 C 
ATOM      2  O   UNL     1      46.607   3.281  13.602  0.00  0.00    +0.000 OA
ATOM      3  N   UNL     1      45.176   5.012  13.922  0.00  0.00    +0.000 N 
ATOM      4  H   UNL     1      44.959   5.855  14.444  0.00  0.00    +0.000 HD
ENDROOT
BRANCH   1  11
ATOM      5  C   UNL     1      49.137   5.145  20.349  0.00  0.00    +0.000 C 
ATOM      6  C   UNL     1      48.691   5.116  18.917  0.00  0.00    +0.000 A 
ATOM      7  N   UNL     1      49.179   5.936  18.041  0.00  0.00    +0.000 NA
ATOM      8  C   UNL     1      48.672   5.798  16.785  0.00  0.00    +0.000 A 
ATOM      9  S   UNL     1      49.191   6.812  15.523  0.00  0.00    +0.000 S 
ATOM     10  C   UNL     1      48.133   6.064  14.415  0.00  0.00    +0.000 A 
ATOM     11  C   UNL     1      47.369   5.044  14.967  0.00  0.00    +0.000 A 
ATOM     12  C   UNL     1      47.724   4.882  16.360  0.00  0.00    +0.000 A 
ATOM     13  C   UNL     1      47.242   3.954  17.367  0.00  0.00    +0.000 A 
ATOM     14  O   UNL     1      46.463   3.031  17.147  0.00  0.00    +0.000 OA
ATOM     15  N   UNL     1      47.743   4.163  18.630  0.00  0.00    +0.000 N 
ATOM     16  H   UNL     1      47.423   3.522  19.340  0.00  0.00    +0.000 HD
ENDBRANCH   1  11
BRANCH   3  17
ATOM     17  C   UNL     1      44.134   4.499  13.068  0.00  0.00    +0.000 C 
BRANCH  17  18
ATOM     18  C   UNL     1      44.556   4.473  11.624  0.00  0.00    +0.000 A 
ATOM     19  C   UNL     1      44.205   3.399  10.796  0.00  0.00    +0.000 A 
ATOM     20  C   UNL     1      44.632   3.356   9.464  0.00  0.00    +0.000 A 
ATOM     21  C   UNL     1      45.428   4.380   8.933  0.00  0.00    +0.000 A 
ATOM     22  C   UNL     1      45.770   5.459   9.761  0.00  0.00    +0.000 A 
ATOM     23  C   UNL     1      45.346   5.499  11.096  0.00  0.00    +0.000 A 
BRANCH  21  24
ATOM     24  C   UNL     1      46.022   4.257   7.547  0.00  0.00    +0.000 C 
BRANCH  24  25
ATOM     25  N   UNL     1      46.055   2.953   6.893  0.00  0.00    +0.000 NA
ATOM     26  C   UNL     1      46.687   1.846   7.612  0.00  0.00    +0.000 C 
ATOM     27  C   UNL     1      48.134   1.519   7.197  0.00  0.00    +0.000 C 
ATOM     28  O   UNL     1      48.311   1.480   5.775  0.00  0.00    +0.000 OA
ATOM     29  C   UNL     1      47.866   2.701   5.174  0.00  0.00    +0.000 C 
ATOM     30  C   UNL     1      46.383   2.940   5.468  0.00  0.00    +0.000 C 
ENDBRANCH  24  25
ENDBRANCH  21  24
ENDBRANCH  17  18
ENDBRANCH   3  17
TORSDOF 5
ENDMDL
MODEL 2
REMARK VINA RESULT:    -7.110      4.491      9.525
REMARK INTER + INTRA:          -9.302
REMARK INTER:                  -8.379
REMARK INTRA:                  -0.924
REMARK UNBOUND:                -0.114
REMARK  Name = 
REMARK  6 active torsions:
REMARK  status: ('A' for Active; 'I' for Inactive)
REMARK    1  A    between atoms: C_1  and  C_2
REMARK    2  A    between atoms: C_7  and  C_8
REMARK    3  A    between atoms: N_10  and  C_11
REMARK    4  A    between atoms: C_11  and  C_12
REMARK    5  A    between atoms: C_15  and  C_16
REMARK    6  A    between atoms: C_16  and  N_17
REMARK                            x       y       z     vdW  Elec       q    Type
REMARK                         _______ _______ _______ _____ _____    ______ ____
ROOT
ATOM      1  C   UNL     1      46.956   4.166  14.577  0.00  0.00    +0.000 C 
ATOM      2  O   UNL     1      47.359   3.102  14.112  0.00  0.00    +0.000 OA
ATOM      3  N   UNL     1      46.975   4.407  15.928  0.00  0.00    +0.000 N 
ATOM      4  H   UNL     1      46.734   5.328  16.283  0.00  0.00    +0.000 HD
ENDROOT
BRANCH   1  11
ATOM      5  C   UNL     1      47.709  10.378  11.780  0.00  0.00    +0.000 C 
ATOM      6  C   UNL     1      47.357   9.005  12.269  0.00  0.00    +0.000 A 
ATOM      7  N   UNL     1      46.208   8.469  12.006  0.00  0.00    +0.000 NA
ATOM      8  C   UNL     1      46.027   7.223  12.523  0.00  0.00    +0.000 A 
ATOM      9  S   UNL     1      44.565   6.388  12.287  0.00  0.00    +0.000 S 
ATOM     10  C   UNL     1      45.111   5.061  13.207  0.00  0.00    +0.000 A 
ATOM     11  C   UNL     1      46.396   5.216  13.711  0.00  0.00    +0.000 A 
ATOM     12  C   UNL     1      46.932   6.487  13.271  0.00  0.00    +0.000 A 
ATOM     13  C   UNL     1      48.222   7.111  13.500  0.00  0.00    +0.000 A 
ATOM     14  O   UNL     1      49.164   6.571  14.072  0.00  0.00    +0.000 OA
ATOM     15  N   UNL     1      48.341   8.386  13.002  0.00  0.00    +0.000 N 
ATOM     16  H   UNL     1      49.235   8.832  13.148  0.00  0.00    +0.000 HD
ENDBRANCH   1  11
BRANCH   3  17
ATOM     17  C   UNL     1      47.429   3.443  16.898  0.00  0.00    +0.000 C 
BRANCH  17  18
ATOM     18  C   UNL     1      48.895   3.598  17.197  0.00  0.00    +0.000 A 
ATOM     19  C   UNL     1      49.461   4.869  17.368  0.00  0.00    +0.000 A 
ATOM     20  C   UNL     1      50.831   5.014  17.605  0.00  0.00    +0.000 A 
ATOM     21  C   UNL     1      51.671   3.893  17.668  0.00  0.00    +0.000 A 
ATOM     22  C   UNL     1      51.102   2.622  17.507  0.00  0.00    +0.000 A 
ATOM     23  C   UNL     1      49.729   2.478  17.265  0.00  0.00    +0.000 A 
BRANCH  21  24
ATOM     24  C   UNL     1      53.172   4.057  17.764  0.00  0.00    +0.000 C 
BRANCH  24  25
ATOM     25  N   UNL     1      53.776   4.400  19.046  0.00  0.00    +0.000 NA
ATOM     26  C   UNL     1      53.197   3.807  20.253  0.00  0.00    +0.000 C 
ATOM     27  C   UNL     1      52.234   4.710  21.046  0.00  0.00    +0.000 C 
ATOM     28  O   UNL     1      52.736   6.041  21.222  0.00  0.00    +0.000 OA
ATOM     29  C   UNL     1      53.072   6.629  19.961  0.00  0.00    +0.000 C 
ATOM     30  C   UNL     1      54.144   5.801  19.247  0.00  0.00    +0.000 C 
ENDBRANCH  24  25
ENDBRANCH  21  24
ENDBRANCH  17  18
ENDBRANCH   3  17
TORSDOF 5
ENDMDL
MODEL 3
REMARK VINA RESULT:    -7.042      3.648      4.862
REMARK INTER + INTRA:          -9.214
REMARK INTER:                  -8.302
REMARK INTRA:                  -0.913
REMARK UNBOUND:                -0.114
REMARK  Name = 
REMARK  6 active torsions:
REMARK  status: ('A' for Active; 'I' for Inactive)
REMARK    1  A    between atoms: C_1  and  C_2
REMARK    2  A    between atoms: C_7  and  C_8
REMARK    3  A    between atoms: N_10  and  C_11
REMARK    4  A    between atoms: C_11  and  C_12
REMARK    5  A    between atoms: C_15  and  C_16
REMARK    6  A    between atoms: C_16  and  N_17
REMARK                            x       y       z     vdW  Elec       q    Type
REMARK                         _______ _______ _______ _____ _____    ______ ____
ROOT
ATOM      1  C   UNL     1      48.808   6.845  15.619  0.00  0.00    +0.000 C 
ATOM      2  O   UNL     1      49.790   6.608  14.921  0.00  0.00    +0.000 OA
ATOM      3  N   UNL     1      47.823   7.704  15.199  0.00  0.00    +0.000 N 
ATOM      4  H   UNL     1      46.973   7.808  15.744  0.00  0.00    +0.000 HD
ENDROOT
BRANCH   1  11
ATOM      5  C   UNL     1      47.546   7.827  22.285  0.00  0.00    +0.000 C 
ATOM      6  C   UNL     1      47.824   7.393  20.876  0.00  0.00    +0.000 A 
ATOM      7  N   UNL     1      48.128   6.166  20.595  0.00  0.00    +0.000 NA
ATOM      8  C   UNL     1      48.363   5.923  19.276  0.00  0.00    +0.000 A 
ATOM      9  S   UNL     1      48.794   4.368  18.743  0.00  0.00    +0.000 S 
ATOM     10  C   UNL     1      48.931   4.900  17.130  0.00  0.00    +0.000 A 
ATOM     11  C   UNL     1      48.660   6.251  16.957  0.00  0.00    +0.000 A 
ATOM     12  C   UNL     1      48.296   6.832  18.233  0.00  0.00    +0.000 A 
ATOM     13  C   UNL     1      47.907   8.182  18.591  0.00  0.00    +0.000 A 
ATOM     14  O   UNL     1      47.722   9.091  17.786  0.00  0.00    +0.000 OA
ATOM     15  N   UNL     1      47.729   8.392  19.938  0.00  0.00    +0.000 N 
ATOM     16  H   UNL     1      47.452   9.326  20.203  0.00  0.00    +0.000 HD
ENDBRANCH   1  11
BRANCH   3  17
ATOM     17  C   UNL     1      47.872   8.410  13.944  0.00  0.00    +0.000 C 
BRANCH  17  18
ATOM     18  C   UNL     1      46.972   7.784  12.914  0.00  0.00    +0.000 A 
ATOM     19  C   UNL     1      45.713   8.333  12.635  0.00  0.00    +0.000 A 
ATOM     20  C   UNL     1      44.860   7.726  11.707  0.00  0.00    +0.000 A 
ATOM     21  C   UNL     1      45.241   6.552  11.043  0.00  0.00    +0.000 A 
ATOM     22  C   UNL     1      46.505   6.010  11.316  0.00  0.00    +0.000 A 
ATOM     23  C   UNL     1      47.357   6.615  12.249  0.00  0.00    +0.000 A 
BRANCH  21  24
ATOM     24  C   UNL     1      44.260   5.809  10.163  0.00  0.00    +0.000 C 
BRANCH  24  25
ATOM     25  N   UNL     1      43.404   4.784  10.749  0.00  0.00    +0.000 NA
ATOM     26  C   UNL     1      42.629   5.143  11.938  0.00  0.00    +0.000 C 
ATOM     27  C   UNL     1      43.223   4.690  13.285  0.00  0.00    +0.000 C 
ATOM     28  O   UNL     1      43.682   3.332  13.264  0.00  0.00    +0.000 OA
ATOM     29  C   UNL     1      44.613   3.127  12.196  0.00  0.00    +0.000 C 
ATOM     30  C   UNL     1      43.962   3.436  10.845  0.00  0.00    +0.000 C 
ENDBRANCH  24  25
ENDBRANCH  21  24
ENDBRANCH  17  18
ENDBRANCH   3  17
TORSDOF 5
ENDMDL
MODEL 4
REMARK VINA RESULT:    -6.946      2.643      3.501
REMARK INTER + INTRA:          -9.090
REMARK INTER:                  -8.546
REMARK INTRA:                  -0.543
REMARK UNBOUND:                -0.114
REMARK  Name = 
REMARK  6 active torsions:
REMARK  status: ('A' for Active; 'I' for Inactive)
REMARK    1  A    between atoms: C_1  and  C_2
REMARK    2  A    between atoms: C_7  and  C_8
REMARK    3  A    between atoms: N_10  and  C_11
REMARK    4  A    between atoms: C_11  and  C_12
REMARK    5  A    between atoms: C_15  and  C_16
REMARK    6  A    between atoms: C_16  and  N_17
REMARK                            x       y       z     vdW  Elec       q    Type
REMARK                         _______ _______ _______ _____ _____    ______ ____
ROOT
ATOM      1  C   UNL     1      48.103   8.955  14.315  0.00  0.00    +0.000 C 
ATOM      2  O   UNL     1      48.742   9.537  13.443  0.00  0.00    +0.000 OA
ATOM      3  N   UNL     1      46.897   8.361  14.041  0.00  0.00    +0.000 N 
ATOM      4  H   UNL     1      46.434   7.799  14.750  0.00  0.00    +0.000 HD
ENDROOT
BRANCH   1  11
ATOM      5  C   UNL     1      49.679   5.092  19.754  0.00  0.00    +0.000 C 
ATOM      6  C   UNL     1      49.409   6.110  18.686  0.00  0.00    +0.000 A 
ATOM      7  N   UNL     1      49.498   7.379  18.926  0.00  0.00    +0.000 NA
ATOM      8  C   UNL     1      49.216   8.182  17.864  0.00  0.00    +0.000 A 
ATOM      9  S   UNL     1      49.266   9.875  18.017  0.00  0.00    +0.000 S 
ATOM     10  C   UNL     1      48.789  10.090  16.395  0.00  0.00    +0.000 A 
ATOM     11  C   UNL     1      48.581   8.901  15.706  0.00  0.00    +0.000 A 
ATOM     12  C   UNL     1      48.868   7.786  16.583  0.00  0.00    +0.000 A 
ATOM     13  C   UNL     1      48.827   6.354  16.351  0.00  0.00    +0.000 A 
ATOM     14  O   UNL     1      48.615   5.831  15.261  0.00  0.00    +0.000 OA
ATOM     15  N   UNL     1      49.070   5.583  17.463  0.00  0.00    +0.000 N 
ATOM     16  H   UNL     1      49.051   4.585  17.317  0.00  0.00    +0.000 HD
ENDBRANCH   1  11
BRANCH   3  17
ATOM     17  C   UNL     1      46.274   8.396  12.742  0.00  0.00    +0.000 C 
BRANCH  17  18
ATOM     18  C   UNL     1      45.673   7.067  12.373  0.00  0.00    +0.000 A 
ATOM     19  C   UNL     1      46.388   5.879  12.572  0.00  0.00    +0.000 A 
ATOM     20  C   UNL     1      45.845   4.647  12.192  0.00  0.00    +0.000 A 
ATOM     21  C   UNL     1      44.579   4.575  11.595  0.00  0.00    +0.000 A 
ATOM     22  C   UNL     1      43.861   5.765  11.405  0.00  0.00    +0.000 A 
ATOM     23  C   UNL     1      44.408   6.999  11.782  0.00  0.00    +0.000 A 
BRANCH  21  24
ATOM     24  C   UNL     1      44.060   3.268  11.038  0.00  0.00    +0.000 C 
BRANCH  24  25
ATOM     25  N   UNL     1      44.022   3.067   9.593  0.00  0.00    +0.000 NA
ATOM     26  C   UNL     1      44.545   1.806   9.067  0.00  0.00    +0.000 C 
ATOM     27  C   UNL     1      45.978   1.859   8.505  0.00  0.00    +0.000 C 
ATOM     28  O   UNL     1      46.205   2.994   7.659  0.00  0.00    +0.000 OA
ATOM     29  C   UNL     1      45.874   4.209   8.340  0.00  0.00    +0.000 C 
ATOM     30  C   UNL     1      44.401   4.208   8.761  0.00  0.00    +0.000 C 
ENDBRANCH  24  25
ENDBRANCH  21  24
ENDBRANCH  17  18
ENDBRANCH   3  17
TORSDOF 5
ENDMDL
MODEL 5
REMARK VINA RESULT:    -6.829      3.770     10.457
REMARK INTER + INTRA:          -8.940
REMARK INTER:                  -7.959
REMARK INTRA:                  -0.981
REMARK UNBOUND:                -0.114
REMARK  Name = 
REMARK  6 active torsions:
REMARK  status: ('A' for Active; 'I' for Inactive)
REMARK    1  A    between atoms: C_1  and  C_2
REMARK    2  A    between atoms: C_7  and  C_8
REMARK    3  A    between atoms: N_10  and  C_11
REMARK    4  A    between atoms: C_11  and  C_12
REMARK    5  A    between atoms: C_15  and  C_16
REMARK    6  A    between atoms: C_16  and  N_17
REMARK                            x       y       z     vdW  Elec       q    Type
REMARK                         _______ _______ _______ _____ _____    ______ ____
ROOT
ATOM      1  C   UNL     1      48.230   6.142  14.738  0.00  0.00    +0.000 C 
ATOM      2  O   UNL     1      49.313   6.687  14.541  0.00  0.00    +0.000 OA
ATOM      3  N   UNL     1      47.978   5.451  15.896  0.00  0.00    +0.000 N 
ATOM      4  H   UNL     1      47.045   5.096  16.083  0.00  0.00    +0.000 HD
ENDROOT
BRANCH   1  11
ATOM      5  C   UNL     1      44.034   2.589  10.643  0.00  0.00    +0.000 C 
ATOM      6  C   UNL     1      44.844   3.549  11.465  0.00  0.00    +0.000 A 
ATOM      7  N   UNL     1      44.755   4.829  11.290  0.00  0.00    +0.000 NA
ATOM      8  C   UNL     1      45.556   5.573  12.101  0.00  0.00    +0.000 A 
ATOM      9  S   UNL     1      45.575   7.269  11.984  0.00  0.00    +0.000 S 
ATOM     10  C   UNL     1      46.758   7.393  13.205  0.00  0.00    +0.000 A 
ATOM     11  C   UNL     1      47.164   6.170  13.723  0.00  0.00    +0.000 A 
ATOM     12  C   UNL     1      46.420   5.109  13.079  0.00  0.00    +0.000 A 
ATOM     13  C   UNL     1      46.449   3.670  13.269  0.00  0.00    +0.000 A 
ATOM     14  O   UNL     1      47.096   3.097  14.141  0.00  0.00    +0.000 OA
ATOM     15  N   UNL     1      45.664   2.958  12.396  0.00  0.00    +0.000 N 
ATOM     16  H   UNL     1      45.669   1.956  12.519  0.00  0.00    +0.000 HD
ENDBRANCH   1  11
BRANCH   3  17
ATOM     17  C   UNL     1      48.951   5.282  16.945  0.00  0.00    +0.000 C 
BRANCH  17  18
ATOM     18  C   UNL     1      48.672   6.180  18.119  0.00  0.00    +0.000 A 
ATOM     19  C   UNL     1      49.475   7.300  18.369  0.00  0.00    +0.000 A 
ATOM     20  C   UNL     1      49.239   8.112  19.484  0.00  0.00    +0.000 A 
ATOM     21  C   UNL     1      48.202   7.817  20.379  0.00  0.00    +0.000 A 
ATOM     22  C   UNL     1      47.394   6.701  20.121  0.00  0.00    +0.000 A 
ATOM     23  C   UNL     1      47.633   5.886  19.007  0.00  0.00    +0.000 A 
BRANCH  21  24
ATOM     24  C   UNL     1      48.048   8.597  21.667  0.00  0.00    +0.000 C 
BRANCH  24  25
ATOM     25  N   UNL     1      47.448   9.926  21.634  0.00  0.00    +0.000 NA
ATOM     26  C   UNL     1      46.468  10.205  20.583  0.00  0.00    +0.000 C 
ATOM     27  C   UNL     1      47.000  10.975  19.360  0.00  0.00    +0.000 C 
ATOM     28  O   UNL     1      47.818  12.096  19.719  0.00  0.00    +0.000 OA
ATOM     29  C   UNL     1      48.890  11.688  20.576  0.00  0.00    +0.000 C 
ATOM     30  C   UNL     1      48.344  11.058  21.861  0.00  0.00    +0.000 C 
ENDBRANCH  24  25
ENDBRANCH  21  24
ENDBRANCH  17  18
ENDBRANCH   3  17
TORSDOF 5
ENDMDL
MODEL 6
REMARK VINA RESULT:    -6.808      3.483      4.846
REMARK INTER + INTRA:          -8.912
REMARK INTER:                  -8.116
REMARK INTRA:                  -0.796
REMARK UNBOUND:                -0.114
REMARK  Name = 
REMARK  6 active torsions:
REMARK  status: ('A' for Active; 'I' for Inactive)
REMARK    1  A    between atoms: C_1  and  C_2
REMARK    2  A    between atoms: C_7  and  C_8
REMARK    3  A    between atoms: N_10  and  C_11
REMARK    4  A    between atoms: C_11  and  C_12
REMARK    5  A    between atoms: C_15  and  C_16
REMARK    6  A    between atoms: C_16  and  N_17
REMARK                            x       y       z     vdW  Elec       q    Type
REMARK                         _______ _______ _______ _____ _____    ______ ____
ROOT
ATOM      1  C   UNL     1      48.681   8.959  15.550  0.00  0.00    +0.000 C 
ATOM      2  O   UNL     1      49.764   9.084  14.984  0.00  0.00    +0.000 OA
ATOM      3  N   UNL     1      47.498   9.111  14.871  0.00  0.00    +0.000 N 
ATOM      4  H   UNL     1      46.617   8.903  15.332  0.00  0.00    +0.000 HD
ENDROOT
BRANCH   1  11
ATOM      5  C   UNL     1      48.817   4.280  20.558  0.00  0.00    +0.000 C 
ATOM      6  C   UNL     1      48.776   5.456  19.627  0.00  0.00    +0.000 A 
ATOM      7  N   UNL     1      48.516   6.649  20.058  0.00  0.00    +0.000 NA
ATOM      8  C   UNL     1      48.503   7.613  19.097  0.00  0.00    +0.000 A 
ATOM      9  S   UNL     1      48.157   9.229  19.493  0.00  0.00    +0.000 S 
ATOM     10  C   UNL     1      48.295   9.715  17.865  0.00  0.00    +0.000 A 
ATOM     11  C   UNL     1      48.600   8.678  16.992  0.00  0.00    +0.000 A 
ATOM     12  C   UNL     1      48.748   7.450  17.743  0.00  0.00    +0.000 A 
ATOM     13  C   UNL     1      49.081   6.103  17.317  0.00  0.00    +0.000 A 
ATOM     14  O   UNL     1      49.403   5.795  16.172  0.00  0.00    +0.000 OA
ATOM     15  N   UNL     1      49.033   5.156  18.310  0.00  0.00    +0.000 N 
ATOM     16  H   UNL     1      49.267   4.215  18.031  0.00  0.00    +0.000 HD
ENDBRANCH   1  11
BRANCH   3  17
ATOM     17  C   UNL     1      47.426   9.456  13.473  0.00  0.00    +0.000 C 
BRANCH  17  18
ATOM     18  C   UNL     1      46.734   8.390  12.669  0.00  0.00    +0.000 A 
ATOM     19  C   UNL     1      47.387   7.189  12.361  0.00  0.00    +0.000 A 
ATOM     20  C   UNL     1      46.758   6.215  11.579  0.00  0.00    +0.000 A 
ATOM     21  C   UNL     1      45.466   6.422  11.077  0.00  0.00    +0.000 A 
ATOM     22  C   UNL     1      44.811   7.621  11.394  0.00  0.00    +0.000 A 
ATOM     23  C   UNL     1      45.443   8.598  12.174  0.00  0.00    +0.000 A 
BRANCH  21  24
ATOM     24  C   UNL     1      44.849   5.444  10.101  0.00  0.00    +0.000 C 
BRANCH  24  25
ATOM     25  N   UNL     1      43.959   4.401  10.597  0.00  0.00    +0.000 NA
ATOM     26  C   UNL     1      42.889   4.798  11.514  0.00  0.00    +0.000 C 
ATOM     27  C   UNL     1      43.167   4.557  13.010  0.00  0.00    +0.000 C 
ATOM     28  O   UNL     1      43.723   3.262  13.273  0.00  0.00    +0.000 OA
ATOM     29  C   UNL     1      44.901   3.046  12.489  0.00  0.00    +0.000 C 
ATOM     30  C   UNL     1      44.581   3.139  10.994  0.00  0.00    +0.000 C 
ENDBRANCH  24  25
ENDBRANCH  21  24
ENDBRANCH  17  18
ENDBRANCH   3  17
TORSDOF 5
ENDMDL
MODEL 7
REMARK VINA RESULT:    -6.771      5.213      7.805
REMARK INTER + INTRA:          -8.865
REMARK INTER:                  -8.127
REMARK INTRA:                  -0.737
REMARK UNBOUND:                -0.114
REMARK  Name = 
REMARK  6 active torsions:
REMARK  status: ('A' for Active; 'I' for Inactive)
REMARK    1  A    between atoms: C_1  and  C_2
REMARK    2  A    between atoms: C_7  and  C_8
REMARK    3  A    between atoms: N_10  and  C_11
REMARK    4  A    between atoms: C_11  and  C_12
REMARK    5  A    between atoms: C_15  and  C_16
REMARK    6  A    between atoms: C_16  and  N_17
REMARK                            x       y       z     vdW  Elec       q    Type
REMARK                         _______ _______ _______ _____ _____    ______ ____
ROOT
ATOM      1  C   UNL     1      45.150   7.590  11.725  0.00  0.00    +0.000 C 
ATOM      2  O   UNL     1      44.595   8.433  11.024  0.00  0.00    +0.000 OA
ATOM      3  N   UNL     1      46.287   7.887  12.433  0.00  0.00    +0.000 N 
ATOM      4  H   UNL     1      46.672   7.209  13.084  0.00  0.00    +0.000 HD
ENDROOT
BRANCH   1  11
ATOM      5  C   UNL     1      44.505   1.468   8.709  0.00  0.00    +0.000 C 
ATOM      6  C   UNL     1      44.550   2.712   9.547  0.00  0.00    +0.000 A 
ATOM      7  N   UNL     1      43.932   2.782  10.683  0.00  0.00    +0.000 NA
ATOM      8  C   UNL     1      44.055   3.975  11.327  0.00  0.00    +0.000 A 
ATOM      9  S   UNL     1      43.287   4.239  12.820  0.00  0.00    +0.000 S 
ATOM     10  C   UNL     1      43.867   5.840  12.897  0.00  0.00    +0.000 A 
ATOM     11  C   UNL     1      44.645   6.210  11.807  0.00  0.00    +0.000 A 
ATOM     12  C   UNL     1      44.769   5.085  10.905  0.00  0.00    +0.000 A 
ATOM     13  C   UNL     1      45.482   4.941   9.650  0.00  0.00    +0.000 A 
ATOM     14  O   UNL     1      46.224   5.793   9.169  0.00  0.00    +0.000 OA
ATOM     15  N   UNL     1      45.289   3.739   9.012  0.00  0.00    +0.000 N 
ATOM     16  H   UNL     1      45.783   3.621   8.140  0.00  0.00    +0.000 HD
ENDBRANCH   1  11
BRANCH   3  17
ATOM     17  C   UNL     1      46.932   9.175  12.391  0.00  0.00    +0.000 C 
BRANCH  17  18
ATOM     18  C   UNL     1      48.369   9.069  11.957  0.00  0.00    +0.000 A 
ATOM     19  C   UNL     1      49.088  10.209  11.577  0.00  0.00    +0.000 A 
ATOM     20  C   UNL     1      50.411  10.104  11.135  0.00  0.00    +0.000 A 
ATOM     21  C   UNL     1      51.042   8.856  11.051  0.00  0.00    +0.000 A 
ATOM     22  C   UNL     1      50.323   7.716  11.440  0.00  0.00    +0.000 A 
ATOM     23  C   UNL     1      48.997   7.822  11.879  0.00  0.00    +0.000 A 
BRANCH  21  24
ATOM     24  C   UNL     1      52.412   8.723  10.423  0.00  0.00    +0.000 C 
BRANCH  24  25
ATOM     25  N   UNL     1      52.651   7.675   9.437  0.00  0.00    +0.000 NA
ATOM     26  C   UNL     1      53.361   6.474   9.879  0.00  0.00    +0.000 C 
ATOM     27  C   UNL     1      54.863   6.422   9.542  0.00  0.00    +0.000 C 
ATOM     28  O   UNL     1      55.145   6.815   8.192  0.00  0.00    +0.000 OA
ATOM     29  C   UNL     1      54.600   8.109   7.915  0.00  0.00    +0.000 C 
ATOM     30  C   UNL     1      53.081   8.107   8.108  0.00  0.00    +0.000 C 
ENDBRANCH  24  25
ENDBRANCH  21  24
ENDBRANCH  17  18
ENDBRANCH   3  17
TORSDOF 5
ENDMDL
MODEL 8
REMARK VINA RESULT:    -6.765      4.149      9.484
REMARK INTER + INTRA:          -8.857
REMARK INTER:                  -7.917
REMARK INTRA:                  -0.940
REMARK UNBOUND:                -0.114
REMARK  Name = 
REMARK  6 active torsions:
REMARK  status: ('A' for Active; 'I' for Inactive)
REMARK    1  A    between atoms: C_1  and  C_2
REMARK    2  A    between atoms: C_7  and  C_8
REMARK    3  A    between atoms: N_10  and  C_11
REMARK    4  A    between atoms: C_11  and  C_12
REMARK    5  A    between atoms: C_15  and  C_16
REMARK    6  A    between atoms: C_16  and  N_17
REMARK                            x       y       z     vdW  Elec       q    Type
REMARK                         _______ _______ _______ _____ _____    ______ ____
ROOT
ATOM      1  C   UNL     1      46.673   4.120  14.169  0.00  0.00    +0.000 C 
ATOM      2  O   UNL     1      47.335   3.151  13.805  0.00  0.00    +0.000 OA
ATOM      3  N   UNL     1      46.635   4.506  15.485  0.00  0.00    +0.000 N 
ATOM      4  H   UNL     1      46.166   5.367  15.749  0.00  0.00    +0.000 HD
ENDROOT
BRANCH   1  11
ATOM      5  C   UNL     1      45.106  10.237  11.503  0.00  0.00    +0.000 C 
ATOM      6  C   UNL     1      45.306   8.815  11.934  0.00  0.00    +0.000 A 
ATOM      7  N   UNL     1      44.553   7.861  11.486  0.00  0.00    +0.000 NA
ATOM      8  C   UNL     1      44.848   6.624  11.974  0.00  0.00    +0.000 A 
ATOM      9  S   UNL     1      43.939   5.267  11.502  0.00  0.00    +0.000 S 
ATOM     10  C   UNL     1      44.855   4.238  12.507  0.00  0.00    +0.000 A 
ATOM     11  C   UNL     1      45.856   4.889  13.217  0.00  0.00    +0.000 A 
ATOM     12  C   UNL     1      45.855   6.293  12.865  0.00  0.00    +0.000 A 
ATOM     13  C   UNL     1      46.701   7.388  13.301  0.00  0.00    +0.000 A 
ATOM     14  O   UNL     1      47.685   7.261  14.025  0.00  0.00    +0.000 OA
ATOM     15  N   UNL     1      46.336   8.624  12.824  0.00  0.00    +0.000 N 
ATOM     16  H   UNL     1      46.919   9.396  13.114  0.00  0.00    +0.000 HD
ENDBRANCH   1  11
BRANCH   3  17
ATOM     17  C   UNL     1      47.329   3.804  16.536  0.00  0.00    +0.000 C 
BRANCH  17  18
ATOM     18  C   UNL     1      48.001   4.750  17.493  0.00  0.00    +0.000 A 
ATOM     19  C   UNL     1      47.268   5.388  18.502  0.00  0.00    +0.000 A 
ATOM     20  C   UNL     1      47.886   6.299  19.365  0.00  0.00    +0.000 A 
ATOM     21  C   UNL     1      49.248   6.600  19.234  0.00  0.00    +0.000 A 
ATOM     22  C   UNL     1      49.982   5.953  18.230  0.00  0.00    +0.000 A 
ATOM     23  C   UNL     1      49.362   5.045  17.363  0.00  0.00    +0.000 A 
BRANCH  21  24
ATOM     24  C   UNL     1      49.879   7.700  20.060  0.00  0.00    +0.000 C 
BRANCH  24  25
ATOM     25  N   UNL     1      49.710   9.090  19.652  0.00  0.00    +0.000 NA
ATOM     26  C   UNL     1      48.586   9.835  20.222  0.00  0.00    +0.000 C 
ATOM     27  C   UNL     1      47.339   9.956  19.325  0.00  0.00    +0.000 C 
ATOM     28  O   UNL     1      47.658  10.308  17.972  0.00  0.00    +0.000 OA
ATOM     29  C   UNL     1      48.604   9.388  17.418  0.00  0.00    +0.000 C 
ATOM     30  C   UNL     1      49.900   9.388  18.233  0.00  0.00    +0.000 C 
ENDBRANCH  24  25
ENDBRANCH  21  24
ENDBRANCH  17  18
ENDBRANCH   3  17
TORSDOF 5
ENDMDL
MODEL 9
REMARK VINA RESULT:    -6.753      3.857     10.072
REMARK INTER + INTRA:          -8.841
REMARK INTER:                  -8.254
REMARK INTRA:                  -0.587
REMARK UNBOUND:                -0.114
REMARK  Name = 
REMARK  6 active torsions:
REMARK  status: ('A' for Active; 'I' for Inactive)
REMARK    1  A    between atoms: C_1  and  C_2
REMARK    2  A    between atoms: C_7  and  C_8
REMARK    3  A    between atoms: N_10  and  C_11
REMARK    4  A    between atoms: C_11  and  C_12
REMARK    5  A    between atoms: C_15  and  C_16
REMARK    6  A    between atoms: C_16  and  N_17
REMARK                            x       y       z     vdW  Elec       q    Type
REMARK                         _______ _______ _______ _____ _____    ______ ____
ROOT
ATOM      1  C   UNL     1      48.196   6.618  13.454  0.00  0.00    +0.000 C 
ATOM      2  O   UNL     1      49.235   6.525  12.806  0.00  0.00    +0.000 OA
ATOM      3  N   UNL     1      48.214   6.870  14.803  0.00  0.00    +0.000 N 
ATOM      4  H   UNL     1      47.346   7.044  15.300  0.00  0.00    +0.000 HD
ENDROOT
BRANCH   1  11
ATOM      5  C   UNL     1      43.269   2.247  11.555  0.00  0.00    +0.000 C 
ATOM      6  C   UNL     1      44.208   3.365  11.900  0.00  0.00    +0.000 A 
ATOM      7  N   UNL     1      43.974   4.582  11.525  0.00  0.00    +0.000 NA
ATOM      8  C   UNL     1      44.918   5.487  11.904  0.00  0.00    +0.000 A 
ATOM      9  S   UNL     1      44.772   7.125  11.473  0.00  0.00    +0.000 S 
ATOM     10  C   UNL     1      46.248   7.512  12.234  0.00  0.00    +0.000 A 
ATOM     11  C   UNL     1      46.880   6.425  12.823  0.00  0.00    +0.000 A 
ATOM     12  C   UNL     1      46.064   5.243  12.643  0.00  0.00    +0.000 A 
ATOM     13  C   UNL     1      46.257   3.873  13.079  0.00  0.00    +0.000 A 
ATOM     14  O   UNL     1      47.173   3.496  13.805  0.00  0.00    +0.000 OA
ATOM     15  N   UNL     1      45.307   2.986  12.632  0.00  0.00    +0.000 N 
ATOM     16  H   UNL     1      45.425   2.029  12.932  0.00  0.00    +0.000 HD
ENDBRANCH   1  11
BRANCH   3  17
ATOM     17  C   UNL     1      49.430   7.011  15.565  0.00  0.00    +0.000 C 
BRANCH  17  18
ATOM     18  C   UNL     1      49.354   6.284  16.880  0.00  0.00    +0.000 A 
ATOM     19  C   UNL     1      48.121   5.865  17.396  0.00  0.00    +0.000 A 
ATOM     20  C   UNL     1      48.048   5.225  18.638  0.00  0.00    +0.000 A 
ATOM     21  C   UNL     1      49.204   4.999  19.397  0.00  0.00    +0.000 A 
ATOM     22  C   UNL     1      50.438   5.411  18.875  0.00  0.00    +0.000 A 
ATOM     23  C   UNL     1      50.511   6.055  17.633  0.00  0.00    +0.000 A 
BRANCH  21  24
ATOM     24  C   UNL     1      49.109   4.455  20.806  0.00  0.00    +0.000 C 
BRANCH  24  25
ATOM     25  N   UNL     1      48.819   5.364  21.908  0.00  0.00    +0.000 NA
ATOM     26  C   UNL     1      47.495   5.987  21.947  0.00  0.00    +0.000 C 
ATOM     27  C   UNL     1      47.419   7.430  21.413  0.00  0.00    +0.000 C 
ATOM     28  O   UNL     1      48.480   8.262  21.899  0.00  0.00    +0.000 OA
ATOM     29  C   UNL     1      49.755   7.676  21.618  0.00  0.00    +0.000 C 
ATOM     30  C   UNL     1      49.877   6.302  22.283  0.00  0.00    +0.000 C 
ENDBRANCH  24  25
ENDBRANCH  21  24
ENDBRANCH  17  18
ENDBRANCH   3  17
TORSDOF 5
ENDMDL
