MODEL 1
REMARK VINA RESULT:    -8.749      0.000      0.000
REMARK INTER + INTRA:         -13.430
REMARK INTER:                 -12.330
REMARK INTRA:                  -1.101
REMARK UNBOUND:                -1.101
REMARK  Name = 
REMARK  8 active torsions:
REMARK  status: ('A' for Active; 'I' for Inactive)
REMARK    1  A    between atoms: C_1  and  C_2
REMARK    2  A    between atoms: C_2  and  N_3
REMARK    3  A    between atoms: C_2  and  C_11
REMARK    4  A    between atoms: N_3  and  C_4
REMARK    5  A    between atoms: C_4  and  C_5
REMARK    6  A    between atoms: C_14  and  C_15
REMARK    7  A    between atoms: C_15  and  N_16
REMARK    8  A    between atoms: C_17  and  C_19
REMARK                            x       y       z     vdW  Elec       q    Type
REMARK                         _______ _______ _______ _____ _____    ______ ____
ROOT
ATOM      1  C   UNL     1      45.474   4.584  12.042  0.00  0.00    +0.000 A 
ATOM      2  C   UNL     1      45.956   5.752  11.425  0.00  0.00    +0.000 A 
ATOM      3  C   UNL     1      46.913   6.554  12.049  0.00  0.00    +0.000 A 
ATOM      4  C   UNL     1      47.444   6.191  13.293  0.00  0.00    +0.000 A 
ATOM      5  C   UNL     1      46.972   5.028  13.912  0.00  0.00    +0.000 A 
ATOM      6  C   UNL     1      45.993   4.240  13.298  0.00  0.00    +0.000 A 
ENDROOT
BRANCH   1   8
ATOM      7  C   UNL     1      43.575   4.625  10.348  0.00  0.00    +0.000 C 
ATOM      8  C   UNL     1      44.360   3.791  11.372  0.00  0.00    +0.000 C 
BRANCH   8   9
ATOM      9  N   UNL     1      44.861   2.589  10.686  0.00  0.00    +0.000 NA
ATOM     10  H   UNL     1      44.563   1.761  11.198  0.00  0.00    +0.000 HD
BRANCH   9  11
ATOM     11  C   UNL     1      44.389   2.476   9.305  0.00  0.00    +0.000 C 
BRANCH  11  12
ATOM     12  C   UNL     1      45.541   2.437   8.330  0.00  0.00    +0.000 A 
ATOM     13  C   UNL     1      46.266   1.250   8.130  0.00  0.00    +0.000 A 
ATOM     14  C   UNL     1      47.315   1.208   7.214  0.00  0.00    +0.000 A 
ATOM     15  C   UNL     1      47.653   2.347   6.488  0.00  0.00    +0.000 A 
ATOM     16  C   UNL     1      46.943   3.532   6.676  0.00  0.00    +0.000 A 
ATOM     17  C   UNL     1      45.891   3.577   7.592  0.00  0.00    +0.000 A 
ENDBRANCH  11  12
ENDBRANCH   9  11
ENDBRANCH   8   9
ENDBRANCH   1   8
BRANCH   4  18
ATOM     18  C   UNL     1      48.489   7.049  13.956  0.00  0.00    +0.000 C 
BRANCH  18  19
ATOM     19  N   UNL     1      48.272   7.171  15.377  0.00  0.00    +0.000 N 
ATOM     20  C   UNL     1      49.163   6.694  16.303  0.00  0.00    +0.000 C 
ATOM     21  O   UNL     1      50.219   6.156  15.981  0.00  0.00    +0.000 OA
ATOM     22  H   UNL     1      47.366   7.511  15.677  0.00  0.00    +0.000 HD
BRANCH  20  23
ATOM     23  C   UNL     1      48.810   6.891  17.716  0.00  0.00    +0.000 A 
ATOM     24  C   UNL     1      48.569   8.175  18.186  0.00  0.00    +0.000 A 
ATOM     25  S   UNL     1      48.171   8.236  19.842  0.00  0.00    +0.000 S 
ATOM     26  C   UNL     1      48.344   6.550  20.000  0.00  0.00    +0.000 A 
ATOM     27  N   UNL     1      48.169   5.945  21.205  0.00  0.00    +0.000 NA
ATOM     28  C   UNL     1      48.367   4.667  21.192  0.00  0.00    +0.000 A 
ATOM     29  N   UNL     1      48.711   3.942  20.081  0.00  0.00    +0.000 N 
ATOM     30  C   UNL     1      48.847   4.506  18.834  0.00  0.00    +0.000 A 
ATOM     31  O   UNL     1      49.065   3.813  17.843  0.00  0.00    +0.000 OA
ATOM     32  C   UNL     1      48.674   5.946  18.800  0.00  0.00    +0.000 A 
ATOM     33  H   UNL     1      48.827   2.942  20.135  0.00  0.00    +0.000 HD
ENDBRANCH  20  23
ENDBRANCH  18  19
ENDBRANCH   4  18
TORSDOF 7
ENDMDL
MODEL 2
REMARK VINA RESULT:    -8.487      1.431      2.162
REMARK INTER + INTRA:         -13.060
REMARK INTER:                 -11.821
REMARK INTRA:                  -1.240
REMARK UNBOUND:                -1.101
REMARK  Name = 
REMARK  8 active torsions:
REMARK  status: ('A' for Active; 'I' for Inactive)
REMARK    1  A    between atoms: C_1  and  C_2
REMARK    2  A    between atoms: C_2  and  N_3
REMARK    3  A    between atoms: C_2  and  C_11
REMARK    4  A    between atoms: N_3  and  C_4
REMARK    5  A    between atoms: C_4  and  C_5
REMARK    6  A    between atoms: C_14  and  C_15
REMARK    7  A    between atoms: C_15  and  N_16
REMARK    8  A    between atoms: C_17  and  C_19
REMARK                            x       y       z     vdW  Elec       q    Type
REMARK                         _______ _______ _______ _____ _____    ______ ____
ROOT
ATOM      1  C   UNL     1      45.470   4.489  12.088  0.00  0.00    +0.000 A 
ATOM      2  C   UNL     1      45.833   5.767  11.629  0.00  0.00    +0.000 A 
ATOM      3  C   UNL     1      46.770   6.540  12.316  0.00  0.00    +0.000 A 
ATOM      4  C   UNL     1      47.402   6.041  13.462  0.00  0.00    +0.000 A 
ATOM      5  C   UNL     1      47.049   4.767  13.923  0.00  0.00    +0.000 A 
ATOM      6  C   UNL     1      46.090   4.005  13.249  0.00  0.00    +0.000 A 
ENDROOT
BRANCH   1   8
ATOM      7  C   UNL     1      43.615   4.586  10.348  0.00  0.00    +0.000 C 
ATOM      8  C   UNL     1      44.373   3.718  11.365  0.00  0.00    +0.000 C 
BRANCH   8   9
ATOM      9  N   UNL     1      44.890   2.538  10.654  0.00  0.00    +0.000 NA
ATOM     10  H   UNL     1      44.608   1.696  11.152  0.00  0.00    +0.000 HD
BRANCH   9  11
ATOM     11  C   UNL     1      44.413   2.443   9.274  0.00  0.00    +0.000 C 
BRANCH  11  12
ATOM     12  C   UNL     1      45.562   2.414   8.294  0.00  0.00    +0.000 A 
ATOM     13  C   UNL     1      46.299   1.234   8.096  0.00  0.00    +0.000 A 
ATOM     14  C   UNL     1      47.345   1.200   7.176  0.00  0.00    +0.000 A 
ATOM     15  C   UNL     1      47.668   2.340   6.444  0.00  0.00    +0.000 A 
ATOM     16  C   UNL     1      46.945   3.518   6.630  0.00  0.00    +0.000 A 
ATOM     17  C   UNL     1      45.895   3.554   7.550  0.00  0.00    +0.000 A 
ENDBRANCH  11  12
ENDBRANCH   9  11
ENDBRANCH   8   9
ENDBRANCH   1   8
BRANCH   4  18
ATOM     18  C   UNL     1      48.426   6.870  14.191  0.00  0.00    +0.000 C 
BRANCH  18  19
ATOM     19  N   UNL     1      48.183   6.908  15.612  0.00  0.00    +0.000 N 
ATOM     20  C   UNL     1      49.088   6.436  16.528  0.00  0.00    +0.000 C 
ATOM     21  O   UNL     1      50.177   5.975  16.196  0.00  0.00    +0.000 OA
ATOM     22  H   UNL     1      47.256   7.181  15.914  0.00  0.00    +0.000 HD
BRANCH  20  23
ATOM     23  C   UNL     1      48.705   6.542  17.943  0.00  0.00    +0.000 A 
ATOM     24  C   UNL     1      48.821   5.429  18.765  0.00  0.00    +0.000 A 
ATOM     25  S   UNL     1      48.340   5.712  20.375  0.00  0.00    +0.000 S 
ATOM     26  C   UNL     1      47.922   7.324  20.022  0.00  0.00    +0.000 A 
ATOM     27  N   UNL     1      47.399   8.132  20.984  0.00  0.00    +0.000 NA
ATOM     28  C   UNL     1      47.091   9.318  20.572  0.00  0.00    +0.000 A 
ATOM     29  N   UNL     1      47.271   9.770  19.291  0.00  0.00    +0.000 N 
ATOM     30  C   UNL     1      47.843   9.005  18.302  0.00  0.00    +0.000 A 
ATOM     31  O   UNL     1      48.074   9.473  17.189  0.00  0.00    +0.000 OA
ATOM     32  C   UNL     1      48.171   7.649  18.701  0.00  0.00    +0.000 A 
ATOM     33  H   UNL     1      47.031  10.718  19.042  0.00  0.00    +0.000 HD
ENDBRANCH  20  23
ENDBRANCH  18  19
ENDBRANCH   4  18
TORSDOF 7
ENDMDL
MODEL 3
REMARK VINA RESULT:    -8.086      2.235      2.634
REMARK INTER + INTRA:         -12.495
REMARK INTER:                 -10.989
REMARK INTRA:                  -1.506
REMARK UNBOUND:                -1.101
REMARK  Name = 
REMARK  8 active torsions:
REMARK  status: ('A' for Active; 'I' for Inactive)
REMARK    1  A    between atoms: C_1  and  C_2
REMARK    2  A    between atoms: C_2  and  N_3
REMARK    3  A    between atoms: C_2  and  C_11
REMARK    4  A    between atoms: N_3  and  C_4
REMARK    5  A    between atoms: C_4  and  C_5
REMARK    6  A    between atoms: C_14  and  C_15
REMARK    7  A    between atoms: C_15  and  N_16
REMARK    8  A    between atoms: C_17  and  C_19
REMARK                            x       y       z     vdW  Elec       q    Type
REMARK                         _______ _______ _______ _____ _____    ______ ____
ROOT
ATOM      1  C   UNL     1      45.469   4.832  12.374  0.00  0.00    +0.000 A 
ATOM      2  C   UNL     1      45.628   5.957  11.545  0.00  0.00    +0.000 A 
ATOM      3  C   UNL     1      46.667   6.865  11.755  0.00  0.00    +0.000 A 
ATOM      4  C   UNL     1      47.600   6.655  12.777  0.00  0.00    +0.000 A 
ATOM      5  C   UNL     1      47.451   5.535  13.605  0.00  0.00    +0.000 A 
ATOM      6  C   UNL     1      46.394   4.641  13.410  0.00  0.00    +0.000 A 
ENDROOT
BRANCH   1   8
ATOM      7  C   UNL     1      43.065   4.654  11.556  0.00  0.00    +0.000 C 
ATOM      8  C   UNL     1      44.267   3.920  12.172  0.00  0.00    +0.000 C 
BRANCH   8   9
ATOM      9  N   UNL     1      44.577   2.764  11.315  0.00  0.00    +0.000 NA
ATOM     10  H   UNL     1      44.180   1.923  11.728  0.00  0.00    +0.000 HD
BRANCH   9  11
ATOM     11  C   UNL     1      44.057   2.901   9.953  0.00  0.00    +0.000 C 
BRANCH  11  12
ATOM     12  C   UNL     1      45.166   2.845   8.931  0.00  0.00    +0.000 A 
ATOM     13  C   UNL     1      45.755   1.617   8.585  0.00  0.00    +0.000 A 
ATOM     14  C   UNL     1      46.763   1.561   7.625  0.00  0.00    +0.000 A 
ATOM     15  C   UNL     1      47.197   2.727   7.001  0.00  0.00    +0.000 A 
ATOM     16  C   UNL     1      46.623   3.954   7.334  0.00  0.00    +0.000 A 
ATOM     17  C   UNL     1      45.611   4.012   8.294  0.00  0.00    +0.000 A 
ENDBRANCH  11  12
ENDBRANCH   9  11
ENDBRANCH   8   9
ENDBRANCH   1   8
BRANCH   4  18
ATOM     18  C   UNL     1      48.731   7.627  12.991  0.00  0.00    +0.000 C 
BRANCH  18  19
ATOM     19  N   UNL     1      49.745   7.098  13.869  0.00  0.00    +0.000 N 
ATOM     20  C   UNL     1      50.288   7.829  14.894  0.00  0.00    +0.000 C 
ATOM     21  O   UNL     1      49.925   8.975  15.147  0.00  0.00    +0.000 OA
ATOM     22  H   UNL     1      50.144   6.200  13.624  0.00  0.00    +0.000 HD
BRANCH  20  23
ATOM     23  C   UNL     1      51.312   7.158  15.707  0.00  0.00    +0.000 A 
ATOM     24  C   UNL     1      52.643   7.529  15.570  0.00  0.00    +0.000 A 
ATOM     25  S   UNL     1      53.705   6.661  16.581  0.00  0.00    +0.000 S 
ATOM     26  C   UNL     1      52.428   5.730  17.212  0.00  0.00    +0.000 A 
ATOM     27  N   UNL     1      52.669   4.752  18.127  0.00  0.00    +0.000 NA
ATOM     28  C   UNL     1      51.616   4.097  18.494  0.00  0.00    +0.000 A 
ATOM     29  N   UNL     1      50.347   4.341  18.038  0.00  0.00    +0.000 N 
ATOM     30  C   UNL     1      50.052   5.352  17.153  0.00  0.00    +0.000 A 
ATOM     31  O   UNL     1      48.891   5.603  16.838  0.00  0.00    +0.000 OA
ATOM     32  C   UNL     1      51.205   6.094  16.679  0.00  0.00    +0.000 A 
ATOM     33  H   UNL     1      49.564   3.807  18.384  0.00  0.00    +0.000 HD
ENDBRANCH  20  23
ENDBRANCH  18  19
ENDBRANCH   4  18
TORSDOF 7
ENDMDL
MODEL 4
REMARK VINA RESULT:    -7.602      1.830      2.508
REMARK INTER + INTRA:         -11.814
REMARK INTER:                 -10.530
REMARK INTRA:                  -1.284
REMARK UNBOUND:                -1.101
REMARK  Name = 
REMARK  8 active torsions:
REMARK  status: ('A' for Active; 'I' for Inactive)
REMARK    1  A    between atoms: C_1  and  C_2
REMARK    2  A    between atoms: C_2  and  N_3
REMARK    3  A    between atoms: C_2  and  C_11
REMARK    4  A    between atoms: N_3  and  C_4
REMARK    5  A    between atoms: C_4  and  C_5
REMARK    6  A    between atoms: C_14  and  C_15
REMARK    7  A    between atoms: C_15  and  N_16
REMARK    8  A    between atoms: C_17  and  C_19
REMARK                            x       y       z     vdW  Elec       q    Type
REMARK                         _______ _______ _______ _____ _____    ______ ____
ROOT
ATOM      1  C   UNL     1      45.648   5.061  12.029  0.00  0.00    +0.000 A 
ATOM      2  C   UNL     1      46.389   5.833  12.941  0.00  0.00    +0.000 A 
ATOM      3  C   UNL     1      47.055   5.238  14.014  0.00  0.00    +0.000 A 
ATOM      4  C   UNL     1      47.031   3.848  14.184  0.00  0.00    +0.000 A 
ATOM      5  C   UNL     1      46.299   3.072  13.278  0.00  0.00    +0.000 A 
ATOM      6  C   UNL     1      45.609   3.672  12.219  0.00  0.00    +0.000 A 
ENDROOT
BRANCH   1   8
ATOM      7  C   UNL     1      44.825   7.285  11.104  0.00  0.00    +0.000 C 
ATOM      8  C   UNL     1      44.856   5.758  10.930  0.00  0.00    +0.000 C 
BRANCH   8   9
ATOM      9  N   UNL     1      45.384   5.468   9.587  0.00  0.00    +0.000 NA
ATOM     10  H   UNL     1      46.357   5.181   9.664  0.00  0.00    +0.000 HD
BRANCH   9  11
ATOM     11  C   UNL     1      44.642   4.414   8.894  0.00  0.00    +0.000 C 
BRANCH  11  12
ATOM     12  C   UNL     1      45.574   3.404   8.267  0.00  0.00    +0.000 A 
ATOM     13  C   UNL     1      46.549   3.813   7.341  0.00  0.00    +0.000 A 
ATOM     14  C   UNL     1      47.423   2.886   6.779  0.00  0.00    +0.000 A 
ATOM     15  C   UNL     1      47.336   1.541   7.132  0.00  0.00    +0.000 A 
ATOM     16  C   UNL     1      46.373   1.121   8.049  0.00  0.00    +0.000 A 
ATOM     17  C   UNL     1      45.497   2.048   8.615  0.00  0.00    +0.000 A 
ENDBRANCH  11  12
ENDBRANCH   9  11
ENDBRANCH   8   9
ENDBRANCH   1   8
BRANCH   4  18
ATOM     18  C   UNL     1      47.765   3.207  15.332  0.00  0.00    +0.000 C 
BRANCH  18  19
ATOM     19  N   UNL     1      48.093   4.156  16.367  0.00  0.00    +0.000 N 
ATOM     20  C   UNL     1      47.533   4.108  17.617  0.00  0.00    +0.000 C 
ATOM     21  O   UNL     1      46.734   3.235  17.945  0.00  0.00    +0.000 OA
ATOM     22  H   UNL     1      48.663   4.950  16.100  0.00  0.00    +0.000 HD
BRANCH  20  23
ATOM     23  C   UNL     1      47.964   5.141  18.570  0.00  0.00    +0.000 A 
ATOM     24  C   UNL     1      47.023   6.008  19.108  0.00  0.00    +0.000 A 
ATOM     25  S   UNL     1      47.679   7.145  20.195  0.00  0.00    +0.000 S 
ATOM     26  C   UNL     1      49.253   6.544  19.955  0.00  0.00    +0.000 A 
ATOM     27  N   UNL     1      50.316   7.114  20.584  0.00  0.00    +0.000 NA
ATOM     28  C   UNL     1      51.457   6.585  20.284  0.00  0.00    +0.000 A 
ATOM     29  N   UNL     1      51.627   5.533  19.424  0.00  0.00    +0.000 N 
ATOM     30  C   UNL     1      50.576   4.894  18.807  0.00  0.00    +0.000 A 
ATOM     31  O   UNL     1      50.757   3.896  18.115  0.00  0.00    +0.000 OA
ATOM     32  C   UNL     1      49.275   5.474  19.080  0.00  0.00    +0.000 A 
ATOM     33  H   UNL     1      52.545   5.152  19.251  0.00  0.00    +0.000 HD
ENDBRANCH  20  23
ENDBRANCH  18  19
ENDBRANCH   4  18
TORSDOF 7
ENDMDL
MODEL 5
REMARK VINA RESULT:    -7.464      3.269      9.056
REMARK INTER + INTRA:         -11.619
REMARK INTER:                  -9.679
REMARK INTRA:                  -1.940
REMARK UNBOUND:                -1.101
REMARK  Name = 
REMARK  8 active torsions:
REMARK  status: ('A' for Active; 'I' for Inactive)
REMARK    1  A    between atoms: C_1  and  C_2
REMARK    2  A    between atoms: C_2  and  N_3
REMARK    3  A    between atoms: C_2  and  C_11
REMARK    4  A    between atoms: N_3  and  C_4
REMARK    5  A    between atoms: C_4  and  C_5
REMARK    6  A    between atoms: C_14  and  C_15
REMARK    7  A    between atoms: C_15  and  N_16
REMARK    8  A    between atoms: C_17  and  C_19
REMARK                            x       y       z     vdW  Elec       q    Type
REMARK                         _______ _______ _______ _____ _____    ______ ____
ROOT
ATOM      1  C   UNL     1      48.956   8.081  16.291  0.00  0.00    +0.000 A 
ATOM      2  C   UNL     1      49.374   6.984  15.517  0.00  0.00    +0.000 A 
ATOM      3  C   UNL     1      48.992   6.858  14.180  0.00  0.00    +0.000 A 
ATOM      4  C   UNL     1      48.212   7.846  13.567  0.00  0.00    +0.000 A 
ATOM      5  C   UNL     1      47.795   8.943  14.330  0.00  0.00    +0.000 A 
ATOM      6  C   UNL     1      48.155   9.055  15.676  0.00  0.00    +0.000 A 
ENDROOT
BRANCH   1   8
ATOM      7  C   UNL     1      49.521   9.567  18.279  0.00  0.00    +0.000 C 
ATOM      8  C   UNL     1      49.313   8.131  17.771  0.00  0.00    +0.000 C 
BRANCH   8   9
ATOM      9  N   UNL     1      48.289   7.497  18.618  0.00  0.00    +0.000 NA
ATOM     10  H   UNL     1      47.492   7.237  18.042  0.00  0.00    +0.000 HD
BRANCH   9  11
ATOM     11  C   UNL     1      48.774   6.301  19.307  0.00  0.00    +0.000 C 
BRANCH  11  12
ATOM     12  C   UNL     1      48.587   5.063  18.464  0.00  0.00    +0.000 A 
ATOM     13  C   UNL     1      47.346   4.790  17.865  0.00  0.00    +0.000 A 
ATOM     14  C   UNL     1      47.178   3.660  17.068  0.00  0.00    +0.000 A 
ATOM     15  C   UNL     1      48.244   2.789  16.860  0.00  0.00    +0.000 A 
ATOM     16  C   UNL     1      49.482   3.046  17.448  0.00  0.00    +0.000 A 
ATOM     17  C   UNL     1      49.653   4.179  18.246  0.00  0.00    +0.000 A 
ENDBRANCH  11  12
ENDBRANCH   9  11
ENDBRANCH   8   9
ENDBRANCH   1   8
BRANCH   4  18
ATOM     18  C   UNL     1      47.816   7.716  12.120  0.00  0.00    +0.000 C 
BRANCH  18  19
ATOM     19  N   UNL     1      47.038   6.527  11.873  0.00  0.00    +0.000 N 
ATOM     20  C   UNL     1      45.672   6.503  11.982  0.00  0.00    +0.000 C 
ATOM     21  O   UNL     1      45.019   7.503  12.272  0.00  0.00    +0.000 OA
ATOM     22  H   UNL     1      47.549   5.663  11.738  0.00  0.00    +0.000 HD
BRANCH  20  23
ATOM     23  C   UNL     1      45.013   5.220  11.699  0.00  0.00    +0.000 A 
ATOM     24  C   UNL     1      44.299   4.583  12.704  0.00  0.00    +0.000 A 
ATOM     25  S   UNL     1      43.595   3.110  12.218  0.00  0.00    +0.000 S 
ATOM     26  C   UNL     1      44.252   3.250  10.655  0.00  0.00    +0.000 A 
ATOM     27  N   UNL     1      44.050   2.276   9.727  0.00  0.00    +0.000 NA
ATOM     28  C   UNL     1      44.636   2.491   8.594  0.00  0.00    +0.000 A 
ATOM     29  N   UNL     1      45.393   3.595   8.305  0.00  0.00    +0.000 N 
ATOM     30  C   UNL     1      45.582   4.627   9.195  0.00  0.00    +0.000 A 
ATOM     31  O   UNL     1      46.189   5.644   8.871  0.00  0.00    +0.000 OA
ATOM     32  C   UNL     1      44.976   4.418  10.497  0.00  0.00    +0.000 A 
ATOM     33  H   UNL     1      45.804   3.712   7.391  0.00  0.00    +0.000 HD
ENDBRANCH  20  23
ENDBRANCH  18  19
ENDBRANCH   4  18
TORSDOF 7
ENDMDL
MODEL 6
REMARK VINA RESULT:    -7.431      3.826      9.904
REMARK INTER + INTRA:         -11.572
REMARK INTER:                  -9.536
REMARK INTRA:                  -2.036
REMARK UNBOUND:                -1.101
REMARK  Name = 
REMARK  8 active torsions:
REMARK  status: ('A' for Active; 'I' for Inactive)
REMARK    1  A    between atoms: C_1  and  C_2
REMARK    2  A    between atoms: C_2  and  N_3
REMARK    3  A    between atoms: C_2  and  C_11
REMARK    4  A    between atoms: N_3  and  C_4
REMARK    5  A    between atoms: C_4  and  C_5
REMARK    6  A    between atoms: C_14  and  C_15
REMARK    7  A    between atoms: C_15  and  N_16
REMARK    8  A    between atoms: C_17  and  C_19
REMARK                            x       y       z     vdW  Elec       q    Type
REMARK                         _______ _______ _______ _____ _____    ______ ____
ROOT
ATOM      1  C   UNL     1      51.157   5.180  17.932  0.00  0.00    +0.000 A 
ATOM      2  C   UNL     1      50.913   3.797  18.004  0.00  0.00    +0.000 A 
ATOM      3  C   UNL     1      49.706   3.253  17.560  0.00  0.00    +0.000 A 
ATOM      4  C   UNL     1      48.722   4.073  16.995  0.00  0.00    +0.000 A 
ATOM      5  C   UNL     1      48.959   5.451  16.916  0.00  0.00    +0.000 A 
ATOM      6  C   UNL     1      50.157   5.997  17.386  0.00  0.00    +0.000 A 
ENDROOT
BRANCH   1   8
ATOM      7  C   UNL     1      52.596   7.252  18.266  0.00  0.00    +0.000 C 
ATOM      8  C   UNL     1      52.445   5.743  18.516  0.00  0.00    +0.000 C 
BRANCH   8   9
ATOM      9  N   UNL     1      52.552   5.513  19.966  0.00  0.00    +0.000 NA
ATOM     10  H   UNL     1      53.535   5.473  20.228  0.00  0.00    +0.000 HD
BRANCH   9  11
ATOM     11  C   UNL     1      51.902   6.555  20.763  0.00  0.00    +0.000 C 
BRANCH  11  12
ATOM     12  C   UNL     1      50.422   6.296  20.907  0.00  0.00    +0.000 A 
ATOM     13  C   UNL     1      49.490   7.305  20.614  0.00  0.00    +0.000 A 
ATOM     14  C   UNL     1      48.123   7.061  20.725  0.00  0.00    +0.000 A 
ATOM     15  C   UNL     1      47.669   5.808  21.130  0.00  0.00    +0.000 A 
ATOM     16  C   UNL     1      48.582   4.796  21.426  0.00  0.00    +0.000 A 
ATOM     17  C   UNL     1      49.953   5.039  21.313  0.00  0.00    +0.000 A 
ENDBRANCH  11  12
ENDBRANCH   9  11
ENDBRANCH   8   9
ENDBRANCH   1   8
BRANCH   4  18
ATOM     18  C   UNL     1      47.428   3.482  16.501  0.00  0.00    +0.000 C 
BRANCH  18  19
ATOM     19  N   UNL     1      46.732   4.371  15.604  0.00  0.00    +0.000 N 
ATOM     20  C   UNL     1      46.856   4.290  14.241  0.00  0.00    +0.000 C 
ATOM     21  O   UNL     1      47.550   3.436  13.695  0.00  0.00    +0.000 OA
ATOM     22  H   UNL     1      46.239   5.152  16.020  0.00  0.00    +0.000 HD
BRANCH  20  23
ATOM     23  C   UNL     1      46.084   5.262  13.453  0.00  0.00    +0.000 A 
ATOM     24  C   UNL     1      46.543   6.567  13.341  0.00  0.00    +0.000 A 
ATOM     25  S   UNL     1      45.540   7.569  12.395  0.00  0.00    +0.000 S 
ATOM     26  C   UNL     1      44.434   6.302  12.132  0.00  0.00    +0.000 A 
ATOM     27  N   UNL     1      43.301   6.509  11.408  0.00  0.00    +0.000 NA
ATOM     28  C   UNL     1      42.531   5.474  11.318  0.00  0.00    +0.000 A 
ATOM     29  N   UNL     1      42.799   4.252  11.875  0.00  0.00    +0.000 N 
ATOM     30  C   UNL     1      43.956   3.984  12.571  0.00  0.00    +0.000 A 
ATOM     31  O   UNL     1      44.206   2.852  12.977  0.00  0.00    +0.000 OA
ATOM     32  C   UNL     1      44.838   5.124  12.735  0.00  0.00    +0.000 A 
ATOM     33  H   UNL     1      42.166   3.477  11.747  0.00  0.00    +0.000 HD
ENDBRANCH  20  23
ENDBRANCH  18  19
ENDBRANCH   4  18
TORSDOF 7
ENDMDL
MODEL 7
REMARK VINA RESULT:    -7.142      2.667      3.625
REMARK INTER + INTRA:         -11.165
REMARK INTER:                 -10.050
REMARK INTRA:                  -1.116
REMARK UNBOUND:                -1.101
REMARK  Name = 
REMARK  8 active torsions:
REMARK  status: ('A' for Active; 'I' for Inactive)
REMARK    1  A    between atoms: C_1  and  C_2
REMARK    2  A    between atoms: C_2  and  N_3
REMARK    3  A    between atoms: C_2  and  C_11
REMARK    4  A    between atoms: N_3  and  C_4
REMARK    5  A    between atoms: C_4  and  C_5
REMARK    6  A    between atoms: C_14  and  C_15
REMARK    7  A    between atoms: C_15  and  N_16
REMARK    8  A    between atoms: C_17  and  C_19
REMARK                            x       y       z     vdW  Elec       q    Type
REMARK                         _______ _______ _______ _____ _____    ______ ____
ROOT
ATOM      1  C   UNL     1      45.404   6.232  11.919  0.00  0.00    +0.000 A 
ATOM      2  C   UNL     1      45.135   7.511  12.437  0.00  0.00    +0.000 A 
ATOM      3  C   UNL     1      46.113   8.229  13.129  0.00  0.00    +0.000 A 
ATOM      4  C   UNL     1      47.401   7.704  13.289  0.00  0.00    +0.000 A 
ATOM      5  C   UNL     1      47.678   6.432  12.773  0.00  0.00    +0.000 A 
ATOM      6  C   UNL     1      46.690   5.703  12.104  0.00  0.00    +0.000 A 
ENDROOT
BRANCH   1   8
ATOM      7  C   UNL     1      42.923   6.151  11.360  0.00  0.00    +0.000 C 
ATOM      8  C   UNL     1      44.283   5.443  11.257  0.00  0.00    +0.000 C 
BRANCH   8   9
ATOM      9  N   UNL     1      44.547   5.179   9.833  0.00  0.00    +0.000 NA
ATOM     10  H   UNL     1      45.543   5.279   9.652  0.00  0.00    +0.000 HD
BRANCH   9  11
ATOM     11  C   UNL     1      44.130   3.841   9.409  0.00  0.00    +0.000 C 
BRANCH  11  12
ATOM     12  C   UNL     1      45.191   3.173   8.567  0.00  0.00    +0.000 A 
ATOM     13  C   UNL     1      45.909   3.909   7.610  0.00  0.00    +0.000 A 
ATOM     14  C   UNL     1      46.903   3.300   6.848  0.00  0.00    +0.000 A 
ATOM     15  C   UNL     1      47.192   1.950   7.031  0.00  0.00    +0.000 A 
ATOM     16  C   UNL     1      46.488   1.206   7.977  0.00  0.00    +0.000 A 
ATOM     17  C   UNL     1      45.492   1.816   8.743  0.00  0.00    +0.000 A 
ENDBRANCH  11  12
ENDBRANCH   9  11
ENDBRANCH   8   9
ENDBRANCH   1   8
BRANCH   4  18
ATOM     18  C   UNL     1      48.459   8.487  14.021  0.00  0.00    +0.000 C 
BRANCH  18  19
ATOM     19  N   UNL     1      49.401   7.630  14.697  0.00  0.00    +0.000 N 
ATOM     20  C   UNL     1      49.352   7.401  16.048  0.00  0.00    +0.000 C 
ATOM     21  O   UNL     1      48.483   7.891  16.766  0.00  0.00    +0.000 OA
ATOM     22  H   UNL     1      50.191   7.298  14.158  0.00  0.00    +0.000 HD
BRANCH  20  23
ATOM     23  C   UNL     1      50.377   6.503  16.599  0.00  0.00    +0.000 A 
ATOM     24  C   UNL     1      50.001   5.498  17.479  0.00  0.00    +0.000 A 
ATOM     25  S   UNL     1      51.302   4.543  18.027  0.00  0.00    +0.000 S 
ATOM     26  C   UNL     1      52.422   5.465  17.137  0.00  0.00    +0.000 A 
ATOM     27  N   UNL     1      53.752   5.186  17.196  0.00  0.00    +0.000 NA
ATOM     28  C   UNL     1      54.494   5.986  16.502  0.00  0.00    +0.000 A 
ATOM     29  N   UNL     1      54.024   7.029  15.749  0.00  0.00    +0.000 N 
ATOM     30  C   UNL     1      52.684   7.315  15.621  0.00  0.00    +0.000 A 
ATOM     31  O   UNL     1      52.292   8.199  14.863  0.00  0.00    +0.000 OA
ATOM     32  C   UNL     1      51.809   6.470  16.411  0.00  0.00    +0.000 A 
ATOM     33  H   UNL     1      54.657   7.602  15.211  0.00  0.00    +0.000 HD
ENDBRANCH  20  23
ENDBRANCH  18  19
ENDBRANCH   4  18
TORSDOF 7
ENDMDL
MODEL 8
REMARK VINA RESULT:    -7.068      5.127      9.504
REMARK INTER + INTRA:         -11.061
REMARK INTER:                 -10.097
REMARK INTRA:                  -0.964
REMARK UNBOUND:                -1.101
REMARK  Name = 
REMARK  8 active torsions:
REMARK  status: ('A' for Active; 'I' for Inactive)
REMARK    1  A    between atoms: C_1  and  C_2
REMARK    2  A    between atoms: C_2  and  N_3
REMARK    3  A    between atoms: C_2  and  C_11
REMARK    4  A    between atoms: N_3  and  C_4
REMARK    5  A    between atoms: C_4  and  C_5
REMARK    6  A    between atoms: C_14  and  C_15
REMARK    7  A    between atoms: C_15  and  N_16
REMARK    8  A    between atoms: C_17  and  C_19
REMARK                            x       y       z     vdW  Elec       q    Type
REMARK                         _______ _______ _______ _____ _____    ______ ____
ROOT
ATOM      1  C   UNL     1      51.466   3.207  17.914  0.00  0.00    +0.000 A 
ATOM      2  C   UNL     1      50.805   2.137  17.286  0.00  0.00    +0.000 A 
ATOM      3  C   UNL     1      49.435   2.191  17.023  0.00  0.00    +0.000 A 
ATOM      4  C   UNL     1      48.693   3.334  17.345  0.00  0.00    +0.000 A 
ATOM      5  C   UNL     1      49.345   4.406  17.967  0.00  0.00    +0.000 A 
ATOM      6  C   UNL     1      50.712   4.339  18.255  0.00  0.00    +0.000 A 
ENDROOT
BRANCH   1   8
ATOM      7  C   UNL     1      53.295   3.771  19.591  0.00  0.00    +0.000 C 
ATOM      8  C   UNL     1      52.940   3.069  18.271  0.00  0.00    +0.000 C 
BRANCH   8   9
ATOM      9  N   UNL     1      53.363   1.663  18.379  0.00  0.00    +0.000 NA
ATOM     10  H   UNL     1      52.548   1.060  18.292  0.00  0.00    +0.000 HD
BRANCH   9  11
ATOM     11  C   UNL     1      54.339   1.276  17.360  0.00  0.00    +0.000 C 
BRANCH  11  12
ATOM     12  C   UNL     1      54.559  -0.218  17.346  0.00  0.00    +0.000 A 
ATOM     13  C   UNL     1      54.379  -0.975  18.516  0.00  0.00    +0.000 A 
ATOM     14  C   UNL     1      54.561  -2.356  18.499  0.00  0.00    +0.000 A 
ATOM     15  C   UNL     1      54.924  -2.998  17.318  0.00  0.00    +0.000 A 
ATOM     16  C   UNL     1      55.107  -2.259  16.149  0.00  0.00    +0.000 A 
ATOM     17  C   UNL     1      54.924  -0.875  16.163  0.00  0.00    +0.000 A 
ENDBRANCH  11  12
ENDBRANCH   9  11
ENDBRANCH   8   9
ENDBRANCH   1   8
BRANCH   4  18
ATOM     18  C   UNL     1      47.219   3.397  17.044  0.00  0.00    +0.000 C 
BRANCH  18  19
ATOM     19  N   UNL     1      46.911   4.380  16.035  0.00  0.00    +0.000 N 
ATOM     20  C   UNL     1      46.998   4.113  14.694  0.00  0.00    +0.000 C 
ATOM     21  O   UNL     1      47.320   3.008  14.263  0.00  0.00    +0.000 OA
ATOM     22  H   UNL     1      46.748   5.329  16.351  0.00  0.00    +0.000 HD
BRANCH  20  23
ATOM     23  C   UNL     1      46.651   5.212  13.781  0.00  0.00    +0.000 A 
ATOM     24  C   UNL     1      47.545   6.260  13.605  0.00  0.00    +0.000 A 
ATOM     25  S   UNL     1      46.998   7.453  12.518  0.00  0.00    +0.000 S 
ATOM     26  C   UNL     1      45.529   6.630  12.272  0.00  0.00    +0.000 A 
ATOM     27  N   UNL     1      44.572   7.149  11.455  0.00  0.00    +0.000 NA
ATOM     28  C   UNL     1      43.491   6.442  11.388  0.00  0.00    +0.000 A 
ATOM     29  N   UNL     1      43.288   5.261  12.053  0.00  0.00    +0.000 N 
ATOM     30  C   UNL     1      44.247   4.676  12.847  0.00  0.00    +0.000 A 
ATOM     31  O   UNL     1      44.066   3.572  13.354  0.00  0.00    +0.000 OA
ATOM     32  C   UNL     1      45.467   5.449  12.988  0.00  0.00    +0.000 A 
ATOM     33  H   UNL     1      42.428   4.747  11.937  0.00  0.00    +0.000 HD
ENDBRANCH  20  23
ENDBRANCH  18  19
ENDBRANCH   4  18
TORSDOF 7
ENDMDL
MODEL 9
REMARK VINA RESULT:    -6.919      4.153      8.987
REMARK INTER + INTRA:         -10.852
REMARK INTER:                  -9.361
REMARK INTRA:                  -1.490
REMARK UNBOUND:                -1.101
REMARK  Name = 
REMARK  8 active torsions:
REMARK  status: ('A' for Active; 'I' for Inactive)
REMARK    1  A    between atoms: C_1  and  C_2
REMARK    2  A    between atoms: C_2  and  N_3
REMARK    3  A    between atoms: C_2  and  C_11
REMARK    4  A    between atoms: N_3  and  C_4
REMARK    5  A    between atoms: C_4  and  C_5
REMARK    6  A    between atoms: C_14  and  C_15
REMARK    7  A    between atoms: C_15  and  N_16
REMARK    8  A    between atoms: C_17  and  C_19
REMARK                            x       y       z     vdW  Elec       q    Type
REMARK                         _______ _______ _______ _____ _____    ______ ____
ROOT
ATOM      1  C   UNL     1      51.395   3.518  18.124  0.00  0.00    +0.000 A 
ATOM      2  C   UNL     1      50.549   4.600  18.424  0.00  0.00    +0.000 A 
ATOM      3  C   UNL     1      49.210   4.598  18.030  0.00  0.00    +0.000 A 
ATOM      4  C   UNL     1      48.667   3.496  17.358  0.00  0.00    +0.000 A 
ATOM      5  C   UNL     1      49.502   2.413  17.059  0.00  0.00    +0.000 A 
ATOM      6  C   UNL     1      50.851   2.427  17.430  0.00  0.00    +0.000 A 
ENDROOT
BRANCH   1   8
ATOM      7  C   UNL     1      53.740   2.650  17.646  0.00  0.00    +0.000 C 
ATOM      8  C   UNL     1      52.872   3.601  18.486  0.00  0.00    +0.000 C 
BRANCH   8   9
ATOM      9  N   UNL     1      53.413   4.962  18.330  0.00  0.00    +0.000 NA
ATOM     10  H   UNL     1      53.771   5.286  19.225  0.00  0.00    +0.000 HD
BRANCH   9  11
ATOM     11  C   UNL     1      54.491   5.043  17.342  0.00  0.00    +0.000 C 
BRANCH  11  12
ATOM     12  C   UNL     1      54.154   6.014  16.237  0.00  0.00    +0.000 A 
ATOM     13  C   UNL     1      52.970   6.768  16.286  0.00  0.00    +0.000 A 
ATOM     14  C   UNL     1      52.669   7.681  15.278  0.00  0.00    +0.000 A 
ATOM     15  C   UNL     1      53.545   7.852  14.209  0.00  0.00    +0.000 A 
ATOM     16  C   UNL     1      54.724   7.111  14.146  0.00  0.00    +0.000 A 
ATOM     17  C   UNL     1      55.028   6.197  15.156  0.00  0.00    +0.000 A 
ENDBRANCH  11  12
ENDBRANCH   9  11
ENDBRANCH   8   9
ENDBRANCH   1   8
BRANCH   4  18
ATOM     18  C   UNL     1      47.218   3.489  16.950  0.00  0.00    +0.000 C 
BRANCH  18  19
ATOM     19  N   UNL     1      46.933   4.474  15.935  0.00  0.00    +0.000 N 
ATOM     20  C   UNL     1      47.001   4.194  14.595  0.00  0.00    +0.000 C 
ATOM     21  O   UNL     1      47.282   3.075  14.172  0.00  0.00    +0.000 OA
ATOM     22  H   UNL     1      46.804   5.430  16.244  0.00  0.00    +0.000 HD
BRANCH  20  23
ATOM     23  C   UNL     1      46.683   5.296  13.677  0.00  0.00    +0.000 A 
ATOM     24  C   UNL     1      47.649   6.253  13.399  0.00  0.00    +0.000 A 
ATOM     25  S   UNL     1      47.127   7.463  12.318  0.00  0.00    +0.000 S 
ATOM     26  C   UNL     1      45.575   6.772  12.212  0.00  0.00    +0.000 A 
ATOM     27  N   UNL     1      44.607   7.354  11.454  0.00  0.00    +0.000 NA
ATOM     28  C   UNL     1      43.466   6.748  11.492  0.00  0.00    +0.000 A 
ATOM     29  N   UNL     1      43.212   5.608  12.208  0.00  0.00    +0.000 N 
ATOM     30  C   UNL     1      44.174   4.958  12.946  0.00  0.00    +0.000 A 
ATOM     31  O   UNL     1      43.935   3.888  13.501  0.00  0.00    +0.000 OA
ATOM     32  C   UNL     1      45.465   5.620  12.969  0.00  0.00    +0.000 A 
ATOM     33  H   UNL     1      42.303   5.171  12.175  0.00  0.00    +0.000 HD
ENDBRANCH  20  23
ENDBRANCH  18  19
ENDBRANCH   4  18
TORSDOF 7
ENDMDL
