MODEL 1
REMARK VINA RESULT:    -8.041      0.000      0.000
REMARK INTER + INTRA:         -11.290
REMARK INTER:                 -10.392
REMARK INTRA:                  -0.898
REMARK UNBOUND:                -0.898
REMARK  Name = 
REMARK  5 active torsions:
REMARK  status: ('A' for Active; 'I' for Inactive)
REMARK    1  A    between atoms: C_2  and  C_4
REMARK    2  A    between atoms: C_7  and  C_8
REMARK    3  A    between atoms: C_8  and  O_9
REMARK    4  A    between atoms: O_9  and  C_10
REMARK    5  A    between atoms: C_15  and  N_16
REMARK                            x       y       z     vdW  Elec       q    Type
REMARK                         _______ _______ _______ _____ _____    ______ ____
ROOT
ATOM      1  C   UNL     1      44.746   4.530  12.230  0.00  0.00    +0.000 A 
ATOM      2  C   UNL     1      45.571   3.603  12.853  0.00  0.00    +0.000 A 
ATOM      3  C   UNL     1      46.666   4.056  13.575  0.00  0.00    +0.000 A 
ATOM      4  F   UNL     1      47.467   3.165  14.176  0.00  0.00    +0.000 F 
ATOM      5  C   UNL     1      46.950   5.413  13.693  0.00  0.00    +0.000 A 
ATOM      6  C   UNL     1      46.122   6.376  13.103  0.00  0.00    +0.000 A 
ATOM      7  C   UNL     1      45.020   5.898  12.372  0.00  0.00    +0.000 A 
ENDROOT
BRANCH   6   8
ATOM      8  N   UNL     1      46.383   7.723  13.245  0.00  0.00    +0.000 N 
ATOM      9  C   UNL     1      45.424   8.763  12.849  0.00  0.00    +0.000 C 
ATOM     10  C   UNL     1      46.042   9.714  11.800  0.00  0.00    +0.000 C 
ATOM     11  N   UNL     1      47.342  10.286  12.218  0.00  0.00    +0.000 NA
ATOM     12  C   UNL     1      48.264   9.176  12.541  0.00  0.00    +0.000 C 
ATOM     13  C   UNL     1      47.723   8.205  13.618  0.00  0.00    +0.000 C 
ATOM     14  H   UNL     1      47.187  10.822  13.072  0.00  0.00    +0.000 HD
ENDBRANCH   6   8
BRANCH   1  15
ATOM     15  O   UNL     1      43.653   4.246  11.456  0.00  0.00    +0.000 OA
BRANCH  15  16
ATOM     16  C   UNL     1      43.669   4.715  10.107  0.00  0.00    +0.000 C 
BRANCH  16  20
ATOM     17  C   UNL     1      46.464   2.566   7.723  0.00  0.00    +0.000 A 
ATOM     18  C   UNL     1      45.631   1.828   8.554  0.00  0.00    +0.000 A 
ATOM     19  C   UNL     1      44.706   2.513   9.340  0.00  0.00    +0.000 A 
ATOM     20  C   UNL     1      44.647   3.910   9.288  0.00  0.00    +0.000 A 
ATOM     21  C   UNL     1      45.509   4.552   8.398  0.00  0.00    +0.000 A 
ATOM     22  N   UNL     1      46.421   3.923   7.620  0.00  0.00    +0.000 NA
BRANCH  17  24
ATOM     23  N   UNL     1      48.525   2.624   6.426  0.00  0.00    +0.000 N 
ATOM     24  C   UNL     1      47.492   1.858   6.894  0.00  0.00    +0.000 C 
ATOM     25  O   UNL     1      47.432   0.656   6.656  0.00  0.00    +0.000 OA
ATOM     26  H   UNL     1      49.278   2.170   5.929  0.00  0.00    +0.000 HD
ATOM     27  H   UNL     1      48.615   3.587   6.727  0.00  0.00    +0.000 HD
ENDBRANCH  17  24
ENDBRANCH  16  20
ENDBRANCH  15  16
ENDBRANCH   1  15
TORSDOF 5
ENDMDL
MODEL 2
REMARK VINA RESULT:    -7.900      2.306      3.435
REMARK INTER + INTRA:         -11.107
REMARK INTER:                 -10.269
REMARK INTRA:                  -0.838
REMARK UNBOUND:                -0.898
REMARK  Name = 
REMARK  5 active torsions:
REMARK  status: ('A' for Active; 'I' for Inactive)
REMARK    1  A    between atoms: C_2  and  C_4
REMARK    2  A    between atoms: C_7  and  C_8
REMARK    3  A    between atoms: C_8  and  O_9
REMARK    4  A    between atoms: O_9  and  C_10
REMARK    5  A    between atoms: C_15  and  N_16
REMARK                            x       y       z     vdW  Elec       q    Type
REMARK                         _______ _______ _______ _____ _____    ______ ____
ROOT
ATOM      1  C   UNL     1      44.929   5.300  12.082  0.00  0.00    +0.000 A 
ATOM      2  C   UNL     1      45.018   6.607  11.622  0.00  0.00    +0.000 A 
ATOM      3  C   UNL     1      45.938   7.465  12.207  0.00  0.00    +0.000 A 
ATOM      4  F   UNL     1      46.025   8.728  11.768  0.00  0.00    +0.000 F 
ATOM      5  C   UNL     1      46.775   7.044  13.236  0.00  0.00    +0.000 A 
ATOM      6  C   UNL     1      46.733   5.725  13.704  0.00  0.00    +0.000 A 
ATOM      7  C   UNL     1      45.792   4.871  13.101  0.00  0.00    +0.000 A 
ENDROOT
BRANCH   6   8
ATOM      8  N   UNL     1      47.583   5.296  14.701  0.00  0.00    +0.000 N 
ATOM      9  C   UNL     1      47.360   4.054  15.455  0.00  0.00    +0.000 C 
ATOM     10  C   UNL     1      47.248   4.339  16.969  0.00  0.00    +0.000 C 
ATOM     11  N   UNL     1      48.385   5.119  17.507  0.00  0.00    +0.000 NA
ATOM     12  C   UNL     1      48.503   6.375  16.734  0.00  0.00    +0.000 C 
ATOM     13  C   UNL     1      48.661   6.160  15.210  0.00  0.00    +0.000 C 
ATOM     14  H   UNL     1      49.236   4.578  17.353  0.00  0.00    +0.000 HD
ENDBRANCH   6   8
BRANCH   1  15
ATOM     15  O   UNL     1      44.055   4.345  11.637  0.00  0.00    +0.000 OA
BRANCH  15  16
ATOM     16  C   UNL     1      43.636   4.429  10.274  0.00  0.00    +0.000 C 
BRANCH  16  20
ATOM     17  C   UNL     1      46.387   2.281   7.839  0.00  0.00    +0.000 A 
ATOM     18  C   UNL     1      46.284   3.650   7.632  0.00  0.00    +0.000 A 
ATOM     19  C   UNL     1      45.391   4.373   8.423  0.00  0.00    +0.000 A 
ATOM     20  C   UNL     1      44.618   3.710   9.382  0.00  0.00    +0.000 A 
ATOM     21  C   UNL     1      44.821   2.338   9.527  0.00  0.00    +0.000 A 
ATOM     22  N   UNL     1      45.676   1.602   8.779  0.00  0.00    +0.000 NA
BRANCH  17  24
ATOM     23  N   UNL     1      48.466   2.096   6.582  0.00  0.00    +0.000 N 
ATOM     24  C   UNL     1      47.314   1.475   6.980  0.00  0.00    +0.000 C 
ATOM     25  O   UNL     1      47.073   0.314   6.661  0.00  0.00    +0.000 OA
ATOM     26  H   UNL     1      49.152   1.563   6.068  0.00  0.00    +0.000 HD
ATOM     27  H   UNL     1      48.697   3.012   6.949  0.00  0.00    +0.000 HD
ENDBRANCH  17  24
ENDBRANCH  16  20
ENDBRANCH  15  16
ENDBRANCH   1  15
TORSDOF 5
ENDMDL
MODEL 3
REMARK VINA RESULT:    -7.824      1.885      2.501
REMARK INTER + INTRA:         -11.009
REMARK INTER:                 -10.130
REMARK INTRA:                  -0.879
REMARK UNBOUND:                -0.898
REMARK  Name = 
REMARK  5 active torsions:
REMARK  status: ('A' for Active; 'I' for Inactive)
REMARK    1  A    between atoms: C_2  and  C_4
REMARK    2  A    between atoms: C_7  and  C_8
REMARK    3  A    between atoms: C_8  and  O_9
REMARK    4  A    between atoms: O_9  and  C_10
REMARK    5  A    between atoms: C_15  and  N_16
REMARK                            x       y       z     vdW  Elec       q    Type
REMARK                         _______ _______ _______ _____ _____    ______ ____
ROOT
ATOM      1  C   UNL     1      45.006   5.689  11.803  0.00  0.00    +0.000 A 
ATOM      2  C   UNL     1      46.323   5.599  12.235  0.00  0.00    +0.000 A 
ATOM      3  C   UNL     1      47.057   6.765  12.399  0.00  0.00    +0.000 A 
ATOM      4  F   UNL     1      48.329   6.684  12.813  0.00  0.00    +0.000 F 
ATOM      5  C   UNL     1      46.502   8.017  12.149  0.00  0.00    +0.000 A 
ATOM      6  C   UNL     1      45.169   8.145  11.742  0.00  0.00    +0.000 A 
ATOM      7  C   UNL     1      44.443   6.953  11.577  0.00  0.00    +0.000 A 
ENDROOT
BRANCH   6   8
ATOM      8  N   UNL     1      44.608   9.386  11.523  0.00  0.00    +0.000 N 
ATOM      9  C   UNL     1      43.365   9.572  10.760  0.00  0.00    +0.000 C 
ATOM     10  C   UNL     1      43.594  10.505   9.551  0.00  0.00    +0.000 C 
ATOM     11  N   UNL     1      44.222  11.795   9.913  0.00  0.00    +0.000 NA
ATOM     12  C   UNL     1      45.491  11.519  10.622  0.00  0.00    +0.000 C 
ATOM     13  C   UNL     1      45.328  10.621  11.872  0.00  0.00    +0.000 C 
ATOM     14  H   UNL     1      43.600  12.274  10.563  0.00  0.00    +0.000 HD
ENDBRANCH   6   8
BRANCH   1  15
ATOM     15  O   UNL     1      44.163   4.638  11.560  0.00  0.00    +0.000 OA
BRANCH  15  16
ATOM     16  C   UNL     1      43.641   4.513  10.236  0.00  0.00    +0.000 C 
BRANCH  16  20
ATOM     17  C   UNL     1      46.452   2.461   7.785  0.00  0.00    +0.000 A 
ATOM     18  C   UNL     1      46.391   3.844   7.669  0.00  0.00    +0.000 A 
ATOM     19  C   UNL     1      45.479   4.535   8.465  0.00  0.00    +0.000 A 
ATOM     20  C   UNL     1      44.647   3.830   9.342  0.00  0.00    +0.000 A 
ATOM     21  C   UNL     1      44.811   2.446   9.402  0.00  0.00    +0.000 A 
ATOM     22  N   UNL     1      45.682   1.740   8.644  0.00  0.00    +0.000 NA
BRANCH  17  24
ATOM     23  N   UNL     1      48.458   2.390   6.403  0.00  0.00    +0.000 N 
ATOM     24  C   UNL     1      47.398   1.691   6.916  0.00  0.00    +0.000 C 
ATOM     25  O   UNL     1      47.254   0.494   6.684  0.00  0.00    +0.000 OA
ATOM     26  H   UNL     1      49.160   1.890   5.877  0.00  0.00    +0.000 HD
ATOM     27  H   UNL     1      48.619   3.346   6.698  0.00  0.00    +0.000 HD
ENDBRANCH  17  24
ENDBRANCH  16  20
ENDBRANCH  15  16
ENDBRANCH   1  15
TORSDOF 5
ENDMDL
MODEL 4
REMARK VINA RESULT:    -7.423      2.195      2.875
REMARK INTER + INTRA:         -10.490
REMARK INTER:                  -9.702
REMARK INTRA:                  -0.788
REMARK UNBOUND:                -0.898
REMARK  Name = 
REMARK  5 active torsions:
REMARK  status: ('A' for Active; 'I' for Inactive)
REMARK    1  A    between atoms: C_2  and  C_4
REMARK    2  A    between atoms: C_7  and  C_8
REMARK    3  A    between atoms: C_8  and  O_9
REMARK    4  A    between atoms: O_9  and  C_10
REMARK    5  A    between atoms: C_15  and  N_16
REMARK                            x       y       z     vdW  Elec       q    Type
REMARK                         _______ _______ _______ _____ _____    ______ ____
ROOT
ATOM      1  C   UNL     1      45.146   5.979  11.792  0.00  0.00    +0.000 A 
ATOM      2  C   UNL     1      44.556   7.228  11.648  0.00  0.00    +0.000 A 
ATOM      3  C   UNL     1      45.299   8.361  11.951  0.00  0.00    +0.000 A 
ATOM      4  F   UNL     1      44.733   9.569  11.817  0.00  0.00    +0.000 F 
ATOM      5  C   UNL     1      46.617   8.272  12.388  0.00  0.00    +0.000 A 
ATOM      6  C   UNL     1      47.251   7.031  12.515  0.00  0.00    +0.000 A 
ATOM      7  C   UNL     1      46.482   5.895  12.207  0.00  0.00    +0.000 A 
ENDROOT
BRANCH   6   8
ATOM      8  N   UNL     1      48.568   6.942  12.917  0.00  0.00    +0.000 N 
ATOM      9  C   UNL     1      48.959   6.803  14.327  0.00  0.00    +0.000 C 
ATOM     10  C   UNL     1      49.888   7.960  14.758  0.00  0.00    +0.000 C 
ATOM     11  N   UNL     1      51.059   8.137  13.871  0.00  0.00    +0.000 NA
ATOM     12  C   UNL     1      50.576   8.328  12.486  0.00  0.00    +0.000 C 
ATOM     13  C   UNL     1      49.671   7.182  11.974  0.00  0.00    +0.000 C 
ATOM     14  H   UNL     1      51.603   7.274  13.895  0.00  0.00    +0.000 HD
ENDBRANCH   6   8
BRANCH   1  15
ATOM     15  O   UNL     1      44.541   4.771  11.568  0.00  0.00    +0.000 OA
BRANCH  15  16
ATOM     16  C   UNL     1      43.910   4.582  10.301  0.00  0.00    +0.000 C 
BRANCH  16  20
ATOM     17  C   UNL     1      46.588   2.754   7.543  0.00  0.00    +0.000 A 
ATOM     18  C   UNL     1      45.920   1.923   8.434  0.00  0.00    +0.000 A 
ATOM     19  C   UNL     1      45.036   2.502   9.343  0.00  0.00    +0.000 A 
ATOM     20  C   UNL     1      44.853   3.890   9.349  0.00  0.00    +0.000 A 
ATOM     21  C   UNL     1      45.551   4.628   8.393  0.00  0.00    +0.000 A 
ATOM     22  N   UNL     1      46.418   4.104   7.495  0.00  0.00    +0.000 NA
BRANCH  17  24
ATOM     23  N   UNL     1      47.943   2.958   5.529  0.00  0.00    +0.000 N 
ATOM     24  C   UNL     1      47.570   2.162   6.579  0.00  0.00    +0.000 C 
ATOM     25  O   UNL     1      48.037   1.036   6.722  0.00  0.00    +0.000 OA
ATOM     26  H   UNL     1      48.660   2.626   4.901  0.00  0.00    +0.000 HD
ATOM     27  H   UNL     1      47.633   3.921   5.492  0.00  0.00    +0.000 HD
ENDBRANCH  17  24
ENDBRANCH  16  20
ENDBRANCH  15  16
ENDBRANCH   1  15
TORSDOF 5
ENDMDL
MODEL 5
REMARK VINA RESULT:    -7.126      4.860      7.701
REMARK INTER + INTRA:         -10.107
REMARK INTER:                  -9.431
REMARK INTRA:                  -0.676
REMARK UNBOUND:                -0.898
REMARK  Name = 
REMARK  5 active torsions:
REMARK  status: ('A' for Active; 'I' for Inactive)
REMARK    1  A    between atoms: C_2  and  C_4
REMARK    2  A    between atoms: C_7  and  C_8
REMARK    3  A    between atoms: C_8  and  O_9
REMARK    4  A    between atoms: O_9  and  C_10
REMARK    5  A    between atoms: C_15  and  N_16
REMARK                            x       y       z     vdW  Elec       q    Type
REMARK                         _______ _______ _______ _____ _____    ______ ____
ROOT
ATOM      1  C   UNL     1      46.783   4.580  14.050  0.00  0.00    +0.000 A 
ATOM      2  C   UNL     1      47.493   5.772  13.989  0.00  0.00    +0.000 A 
ATOM      3  C   UNL     1      47.402   6.551  12.844  0.00  0.00    +0.000 A 
ATOM      4  F   UNL     1      48.088   7.700  12.778  0.00  0.00    +0.000 F 
ATOM      5  C   UNL     1      46.613   6.168  11.763  0.00  0.00    +0.000 A 
ATOM      6  C   UNL     1      45.860   4.988  11.803  0.00  0.00    +0.000 A 
ATOM      7  C   UNL     1      45.969   4.211  12.970  0.00  0.00    +0.000 A 
ENDROOT
BRANCH   6   8
ATOM      8  N   UNL     1      45.053   4.623  10.747  0.00  0.00    +0.000 N 
ATOM      9  C   UNL     1      44.009   3.594  10.865  0.00  0.00    +0.000 C 
ATOM     10  C   UNL     1      44.247   2.449   9.855  0.00  0.00    +0.000 C 
ATOM     11  N   UNL     1      44.411   2.917   8.461  0.00  0.00    +0.000 NA
ATOM     12  C   UNL     1      45.515   3.901   8.421  0.00  0.00    +0.000 C 
ATOM     13  C   UNL     1      45.320   5.100   9.381  0.00  0.00    +0.000 C 
ATOM     14  H   UNL     1      43.554   3.399   8.190  0.00  0.00    +0.000 HD
ENDBRANCH   6   8
BRANCH   1  15
ATOM     15  O   UNL     1      46.793   3.687  15.088  0.00  0.00    +0.000 OA
BRANCH  15  16
ATOM     16  C   UNL     1      47.215   4.174  16.363  0.00  0.00    +0.000 C 
BRANCH  16  20
ATOM     17  C   UNL     1      50.877   2.271  17.403  0.00  0.00    +0.000 A 
ATOM     18  C   UNL     1      50.664   3.555  17.886  0.00  0.00    +0.000 A 
ATOM     19  C   UNL     1      49.468   4.194  17.560  0.00  0.00    +0.000 A 
ATOM     20  C   UNL     1      48.529   3.544  16.752  0.00  0.00    +0.000 A 
ATOM     21  C   UNL     1      48.831   2.245  16.344  0.00  0.00    +0.000 A 
ATOM     22  N   UNL     1      49.979   1.591  16.638  0.00  0.00    +0.000 NA
BRANCH  17  24
ATOM     23  N   UNL     1      52.452   0.467  16.955  0.00  0.00    +0.000 N 
ATOM     24  C   UNL     1      52.167   1.574  17.709  0.00  0.00    +0.000 C 
ATOM     25  O   UNL     1      52.944   1.973  18.572  0.00  0.00    +0.000 OA
ATOM     26  H   UNL     1      53.347   0.015  17.077  0.00  0.00    +0.000 HD
ATOM     27  H   UNL     1      51.854   0.222  16.175  0.00  0.00    +0.000 HD
ENDBRANCH  17  24
ENDBRANCH  16  20
ENDBRANCH  15  16
ENDBRANCH   1  15
TORSDOF 5
ENDMDL
MODEL 6
REMARK VINA RESULT:    -6.890      5.306      7.940
REMARK INTER + INTRA:          -9.802
REMARK INTER:                  -9.115
REMARK INTRA:                  -0.687
REMARK UNBOUND:                -0.898
REMARK  Name = 
REMARK  5 active torsions:
REMARK  status: ('A' for Active; 'I' for Inactive)
REMARK    1  A    between atoms: C_2  and  C_4
REMARK    2  A    between atoms: C_7  and  C_8
REMARK    3  A    between atoms: C_8  and  O_9
REMARK    4  A    between atoms: O_9  and  C_10
REMARK    5  A    between atoms: C_15  and  N_16
REMARK                            x       y       z     vdW  Elec       q    Type
REMARK                         _______ _______ _______ _____ _____    ______ ____
ROOT
ATOM      1  C   UNL     1      47.930   6.015  14.543  0.00  0.00    +0.000 A 
ATOM      2  C   UNL     1      48.383   6.866  13.543  0.00  0.00    +0.000 A 
ATOM      3  C   UNL     1      47.720   6.882  12.324  0.00  0.00    +0.000 A 
ATOM      4  F   UNL     1      48.156   7.700  11.355  0.00  0.00    +0.000 F 
ATOM      5  C   UNL     1      46.614   6.074  12.085  0.00  0.00    +0.000 A 
ATOM      6  C   UNL     1      46.113   5.226  13.080  0.00  0.00    +0.000 A 
ATOM      7  C   UNL     1      46.799   5.220  14.308  0.00  0.00    +0.000 A 
ENDROOT
BRANCH   6   8
ATOM      8  N   UNL     1      44.997   4.447  12.857  0.00  0.00    +0.000 N 
ATOM      9  C   UNL     1      45.070   3.113  12.244  0.00  0.00    +0.000 C 
ATOM     10  C   UNL     1      44.214   3.048  10.960  0.00  0.00    +0.000 C 
ATOM     11  N   UNL     1      42.817   3.492  11.160  0.00  0.00    +0.000 NA
ATOM     12  C   UNL     1      42.832   4.860  11.722  0.00  0.00    +0.000 C 
ATOM     13  C   UNL     1      43.640   4.989  13.036  0.00  0.00    +0.000 C 
ATOM     14  H   UNL     1      42.389   2.876  11.852  0.00  0.00    +0.000 HD
ENDBRANCH   6   8
BRANCH   1  15
ATOM     15  O   UNL     1      48.491   5.855  15.782  0.00  0.00    +0.000 OA
BRANCH  15  16
ATOM     16  C   UNL     1      48.066   4.728  16.550  0.00  0.00    +0.000 C 
BRANCH  16  20
ATOM     17  C   UNL     1      51.323   2.166  17.521  0.00  0.00    +0.000 A 
ATOM     18  C   UNL     1      51.497   3.529  17.726  0.00  0.00    +0.000 A 
ATOM     19  C   UNL     1      50.441   4.384  17.418  0.00  0.00    +0.000 A 
ATOM     20  C   UNL     1      49.250   3.862  16.901  0.00  0.00    +0.000 A 
ATOM     21  C   UNL     1      49.169   2.477  16.761  0.00  0.00    +0.000 A 
ATOM     22  N   UNL     1      50.172   1.613  17.048  0.00  0.00    +0.000 NA
BRANCH  17  24
ATOM     23  N   UNL     1      52.107  -0.017  18.264  0.00  0.00    +0.000 N 
ATOM     24  C   UNL     1      52.454   1.227  17.810  0.00  0.00    +0.000 C 
ATOM     25  O   UNL     1      53.628   1.537  17.637  0.00  0.00    +0.000 OA
ATOM     26  H   UNL     1      52.835  -0.704  18.397  0.00  0.00    +0.000 HD
ATOM     27  H   UNL     1      51.132  -0.289  18.293  0.00  0.00    +0.000 HD
ENDBRANCH  17  24
ENDBRANCH  16  20
ENDBRANCH  15  16
ENDBRANCH   1  15
TORSDOF 5
ENDMDL
MODEL 7
REMARK VINA RESULT:    -6.549      3.739      7.417
REMARK INTER + INTRA:          -9.361
REMARK INTER:                  -9.025
REMARK INTRA:                  -0.336
REMARK UNBOUND:                -0.898
REMARK  Name = 
REMARK  5 active torsions:
REMARK  status: ('A' for Active; 'I' for Inactive)
REMARK    1  A    between atoms: C_2  and  C_4
REMARK    2  A    between atoms: C_7  and  C_8
REMARK    3  A    between atoms: C_8  and  O_9
REMARK    4  A    between atoms: O_9  and  C_10
REMARK    5  A    between atoms: C_15  and  N_16
REMARK                            x       y       z     vdW  Elec       q    Type
REMARK                         _______ _______ _______ _____ _____    ______ ____
ROOT
ATOM      1  C   UNL     1      46.968   7.182  12.266  0.00  0.00    +0.000 A 
ATOM      2  C   UNL     1      46.355   8.427  12.321  0.00  0.00    +0.000 A 
ATOM      3  C   UNL     1      45.061   8.561  11.840  0.00  0.00    +0.000 A 
ATOM      4  F   UNL     1      44.467   9.762  11.889  0.00  0.00    +0.000 F 
ATOM      5  C   UNL     1      44.364   7.479  11.312  0.00  0.00    +0.000 A 
ATOM      6  C   UNL     1      44.939   6.204  11.269  0.00  0.00    +0.000 A 
ATOM      7  C   UNL     1      46.253   6.088  11.758  0.00  0.00    +0.000 A 
ENDROOT
BRANCH   6   8
ATOM      8  N   UNL     1      44.239   5.123  10.776  0.00  0.00    +0.000 N 
ATOM      9  C   UNL     1      43.090   4.534  11.478  0.00  0.00    +0.000 C 
ATOM     10  C   UNL     1      43.336   3.040  11.783  0.00  0.00    +0.000 C 
ATOM     11  N   UNL     1      43.723   2.252  10.591  0.00  0.00    +0.000 NA
ATOM     12  C   UNL     1      44.917   2.876   9.981  0.00  0.00    +0.000 C 
ATOM     13  C   UNL     1      44.726   4.366   9.611  0.00  0.00    +0.000 C 
ATOM     14  H   UNL     1      42.961   2.311   9.916  0.00  0.00    +0.000 HD
ENDBRANCH   6   8
BRANCH   1  15
ATOM     15  O   UNL     1      48.245   6.892  12.665  0.00  0.00    +0.000 OA
BRANCH  15  16
ATOM     16  C   UNL     1      48.652   7.370  13.949  0.00  0.00    +0.000 C 
BRANCH  16  20
ATOM     17  C   UNL     1      47.800   4.358  16.833  0.00  0.00    +0.000 A 
ATOM     18  C   UNL     1      48.654   5.385  17.213  0.00  0.00    +0.000 A 
ATOM     19  C   UNL     1      48.943   6.383  16.284  0.00  0.00    +0.000 A 
ATOM     20  C   UNL     1      48.386   6.323  15.002  0.00  0.00    +0.000 A 
ATOM     21  C   UNL     1      47.518   5.265  14.733  0.00  0.00    +0.000 A 
ATOM     22  N   UNL     1      47.214   4.276  15.607  0.00  0.00    +0.000 NA
BRANCH  17  24
ATOM     23  N   UNL     1      48.323   3.163  18.890  0.00  0.00    +0.000 N 
ATOM     24  C   UNL     1      47.500   3.254  17.800  0.00  0.00    +0.000 C 
ATOM     25  O   UNL     1      46.560   2.480  17.646  0.00  0.00    +0.000 OA
ATOM     26  H   UNL     1      48.108   2.482  19.604  0.00  0.00    +0.000 HD
ATOM     27  H   UNL     1      49.020   3.878  19.055  0.00  0.00    +0.000 HD
ENDBRANCH  17  24
ENDBRANCH  16  20
ENDBRANCH  15  16
ENDBRANCH   1  15
TORSDOF 5
ENDMDL
MODEL 8
REMARK VINA RESULT:    -6.285      4.799      6.955
REMARK INTER + INTRA:          -9.020
REMARK INTER:                  -8.331
REMARK INTRA:                  -0.689
REMARK UNBOUND:                -0.898
REMARK  Name = 
REMARK  5 active torsions:
REMARK  status: ('A' for Active; 'I' for Inactive)
REMARK    1  A    between atoms: C_2  and  C_4
REMARK    2  A    between atoms: C_7  and  C_8
REMARK    3  A    between atoms: C_8  and  O_9
REMARK    4  A    between atoms: O_9  and  C_10
REMARK    5  A    between atoms: C_15  and  N_16
REMARK                            x       y       z     vdW  Elec       q    Type
REMARK                         _______ _______ _______ _____ _____    ______ ____
ROOT
ATOM      1  C   UNL     1      46.520   4.666  13.966  0.00  0.00    +0.000 A 
ATOM      2  C   UNL     1      45.535   4.596  12.991  0.00  0.00    +0.000 A 
ATOM      3  C   UNL     1      45.443   5.616  12.054  0.00  0.00    +0.000 A 
ATOM      4  F   UNL     1      44.492   5.556  11.112  0.00  0.00    +0.000 F 
ATOM      5  C   UNL     1      46.318   6.699  12.068  0.00  0.00    +0.000 A 
ATOM      6  C   UNL     1      47.342   6.785  13.019  0.00  0.00    +0.000 A 
ATOM      7  C   UNL     1      47.416   5.744  13.961  0.00  0.00    +0.000 A 
ENDROOT
BRANCH   6   8
ATOM      8  N   UNL     1      48.230   7.840  13.015  0.00  0.00    +0.000 N 
ATOM      9  C   UNL     1      47.820   9.222  12.726  0.00  0.00    +0.000 C 
ATOM     10  C   UNL     1      48.598   9.788  11.518  0.00  0.00    +0.000 C 
ATOM     11  N   UNL     1      50.066   9.660  11.651  0.00  0.00    +0.000 NA
ATOM     12  C   UNL     1      50.397   8.236  11.880  0.00  0.00    +0.000 C 
ATOM     13  C   UNL     1      49.682   7.616  13.104  0.00  0.00    +0.000 C 
ATOM     14  H   UNL     1      50.352  10.183  12.479  0.00  0.00    +0.000 HD
ENDBRANCH   6   8
BRANCH   1  15
ATOM     15  O   UNL     1      46.720   3.764  14.977  0.00  0.00    +0.000 OA
BRANCH  15  16
ATOM     16  C   UNL     1      47.160   4.280  16.234  0.00  0.00    +0.000 C 
BRANCH  16  20
ATOM     17  C   UNL     1      50.728   2.250  17.360  0.00  0.00    +0.000 A 
ATOM     18  C   UNL     1      50.545   3.539  17.844  0.00  0.00    +0.000 A 
ATOM     19  C   UNL     1      49.381   4.220  17.489  0.00  0.00    +0.000 A 
ATOM     20  C   UNL     1      48.442   3.604  16.654  0.00  0.00    +0.000 A 
ATOM     21  C   UNL     1      48.710   2.297  16.249  0.00  0.00    +0.000 A 
ATOM     22  N   UNL     1      49.828   1.604  16.570  0.00  0.00    +0.000 NA
BRANCH  17  24
ATOM     23  N   UNL     1      51.834   0.208  18.094  0.00  0.00    +0.000 N 
ATOM     24  C   UNL     1      51.985   1.509  17.697  0.00  0.00    +0.000 C 
ATOM     25  O   UNL     1      53.097   2.022  17.607  0.00  0.00    +0.000 OA
ATOM     26  H   UNL     1      52.661  -0.349  18.255  0.00  0.00    +0.000 HD
ATOM     27  H   UNL     1      50.921  -0.228  18.053  0.00  0.00    +0.000 HD
ENDBRANCH  17  24
ENDBRANCH  16  20
ENDBRANCH  15  16
ENDBRANCH   1  15
TORSDOF 5
ENDMDL
MODEL 9
REMARK VINA RESULT:    -6.182      4.421      6.564
REMARK INTER + INTRA:          -8.887
REMARK INTER:                  -8.191
REMARK INTRA:                  -0.696
REMARK UNBOUND:                -0.898
REMARK  Name = 
REMARK  5 active torsions:
REMARK  status: ('A' for Active; 'I' for Inactive)
REMARK    1  A    between atoms: C_2  and  C_4
REMARK    2  A    between atoms: C_7  and  C_8
REMARK    3  A    between atoms: C_8  and  O_9
REMARK    4  A    between atoms: O_9  and  C_10
REMARK    5  A    between atoms: C_15  and  N_16
REMARK                            x       y       z     vdW  Elec       q    Type
REMARK                         _______ _______ _______ _____ _____    ______ ____
ROOT
ATOM      1  C   UNL     1      49.110   7.218  14.980  0.00  0.00    +0.000 A 
ATOM      2  C   UNL     1      50.352   7.763  14.683  0.00  0.00    +0.000 A 
ATOM      3  C   UNL     1      51.446   7.404  15.456  0.00  0.00    +0.000 A 
ATOM      4  F   UNL     1      52.646   7.930  15.175  0.00  0.00    +0.000 F 
ATOM      5  C   UNL     1      51.328   6.508  16.515  0.00  0.00    +0.000 A 
ATOM      6  C   UNL     1      50.097   5.917  16.823  0.00  0.00    +0.000 A 
ATOM      7  C   UNL     1      48.999   6.296  16.031  0.00  0.00    +0.000 A 
ENDROOT
BRANCH   6   8
ATOM      8  N   UNL     1      49.983   5.004  17.851  0.00  0.00    +0.000 N 
ATOM      9  C   UNL     1      49.764   3.570  17.618  0.00  0.00    +0.000 C 
ATOM     10  C   UNL     1      48.467   3.091  18.307  0.00  0.00    +0.000 C 
ATOM     11  N   UNL     1      48.401   3.437  19.744  0.00  0.00    +0.000 NA
ATOM     12  C   UNL     1      48.572   4.900  19.885  0.00  0.00    +0.000 C 
ATOM     13  C   UNL     1      49.875   5.443  19.252  0.00  0.00    +0.000 C 
ATOM     14  H   UNL     1      49.188   2.986  20.211  0.00  0.00    +0.000 HD
ENDBRANCH   6   8
BRANCH   1  15
ATOM     15  O   UNL     1      47.932   7.495  14.339  0.00  0.00    +0.000 OA
BRANCH  15  16
ATOM     16  C   UNL     1      47.902   7.310  12.923  0.00  0.00    +0.000 C 
BRANCH  16  20
ATOM     17  C   UNL     1      44.917   4.420  11.998  0.00  0.00    +0.000 A 
ATOM     18  C   UNL     1      45.238   5.346  11.014  0.00  0.00    +0.000 A 
ATOM     19  C   UNL     1      46.216   6.299  11.296  0.00  0.00    +0.000 A 
ATOM     20  C   UNL     1      46.834   6.312  12.551  0.00  0.00    +0.000 A 
ATOM     21  C   UNL     1      46.458   5.319  13.457  0.00  0.00    +0.000 A 
ATOM     22  N   UNL     1      45.513   4.379  13.221  0.00  0.00    +0.000 NA
BRANCH  17  24
ATOM     23  N   UNL     1      43.874   2.279  12.510  0.00  0.00    +0.000 N 
ATOM     24  C   UNL     1      43.845   3.407  11.735  0.00  0.00    +0.000 C 
ATOM     25  O   UNL     1      42.973   3.576  10.887  0.00  0.00    +0.000 OA
ATOM     26  H   UNL     1      43.124   1.609  12.417  0.00  0.00    +0.000 HD
ATOM     27  H   UNL     1      44.532   2.212  13.277  0.00  0.00    +0.000 HD
ENDBRANCH  17  24
ENDBRANCH  16  20
ENDBRANCH  15  16
ENDBRANCH   1  15
TORSDOF 5
ENDMDL
