MODEL 1
REMARK VINA RESULT:    -7.996      0.000      0.000
REMARK INTER + INTRA:         -11.282
REMARK INTER:                 -10.334
REMARK INTRA:                  -0.948
REMARK UNBOUND:                -0.948
REMARK  Name = 
REMARK  5 active torsions:
REMARK  status: ('A' for Active; 'I' for Inactive)
REMARK    1  A    between atoms: C_2  and  C_3
REMARK    2  A    between atoms: C_6  and  N_7
REMARK    3  A    between atoms: N_7  and  C_8
REMARK    4  A    between atoms: C_8  and  C_9
REMARK    5  A    between atoms: C_14  and  N_15
REMARK                            x       y       z     vdW  Elec       q    Type
REMARK                         _______ _______ _______ _____ _____    ______ ____
ROOT
ATOM      1  C   UNL     1      45.026   5.771  11.686  0.00  0.00    +0.000 A 
ATOM      2  C   UNL     1      44.487   7.048  11.451  0.00  0.00    +0.000 A 
ATOM      3  C   UNL     1      45.186   8.194  11.815  0.00  0.00    +0.000 A 
ATOM      4  C   UNL     1      46.441   8.084  12.407  0.00  0.00    +0.000 A 
ATOM      5  F   UNL     1      47.046   9.211  12.812  0.00  0.00    +0.000 F 
ATOM      6  C   UNL     1      47.062   6.837  12.577  0.00  0.00    +0.000 A 
ATOM      7  C   UNL     1      46.343   5.703  12.167  0.00  0.00    +0.000 A 
ENDROOT
BRANCH   6   8
ATOM      8  N   UNL     1      48.290   6.630  13.197  0.00  0.00    +0.000 N 
ATOM      9  C   UNL     1      48.407   6.676  14.658  0.00  0.00    +0.000 C 
ATOM     10  C   UNL     1      49.153   7.931  15.152  0.00  0.00    +0.000 C 
ATOM     11  N   UNL     1      50.441   8.161  14.458  0.00  0.00    +0.000 NA
ATOM     12  C   UNL     1      50.169   8.256  13.009  0.00  0.00    +0.000 C 
ATOM     13  C   UNL     1      49.493   6.994  12.429  0.00  0.00    +0.000 C 
ATOM     14  H   UNL     1      51.027   7.339  14.613  0.00  0.00    +0.000 HD
ENDBRANCH   6   8
BRANCH   1  15
ATOM     15  C   UNL     1      44.154   4.524  11.594  0.00  0.00    +0.000 C 
ATOM     16  C   UNL     1      44.184   3.449  12.671  0.00  0.00    +0.000 C 
ATOM     17  C   UNL     1      43.112   4.480  12.714  0.00  0.00    +0.000 C 
BRANCH  15  18
ATOM     18  N   UNL     1      43.790   4.127  10.229  0.00  0.00    +0.000 N 
ATOM     19  H   UNL     1      42.813   3.941  10.028  0.00  0.00    +0.000 HD
BRANCH  18  23
ATOM     20  C   UNL     1      46.608   2.519   7.510  0.00  0.00    +0.000 A 
ATOM     21  C   UNL     1      45.928   1.665   8.379  0.00  0.00    +0.000 A 
ATOM     22  C   UNL     1      44.995   2.183   9.283  0.00  0.00    +0.000 A 
ATOM     23  C   UNL     1      44.687   3.549   9.307  0.00  0.00    +0.000 A 
ATOM     24  C   UNL     1      45.395   4.396   8.442  0.00  0.00    +0.000 A 
ATOM     25  C   UNL     1      46.345   3.889   7.547  0.00  0.00    +0.000 A 
BRANCH  20  27
ATOM     26  N   UNL     1      48.360   1.572   5.851  0.00  0.00    +0.000 NA
ATOM     27  C   UNL     1      47.576   1.994   6.595  0.00  0.00    +0.000 C 
ENDBRANCH  20  27
ENDBRANCH  18  23
ENDBRANCH  15  18
ENDBRANCH   1  15
TORSDOF 5
ENDMDL
MODEL 2
REMARK VINA RESULT:    -7.663      1.423      2.070
REMARK INTER + INTRA:         -10.851
REMARK INTER:                 -10.044
REMARK INTRA:                  -0.807
REMARK UNBOUND:                -0.948
REMARK  Name = 
REMARK  5 active torsions:
REMARK  status: ('A' for Active; 'I' for Inactive)
REMARK    1  A    between atoms: C_2  and  C_3
REMARK    2  A    between atoms: C_6  and  N_7
REMARK    3  A    between atoms: N_7  and  C_8
REMARK    4  A    between atoms: C_8  and  C_9
REMARK    5  A    between atoms: C_14  and  N_15
REMARK                            x       y       z     vdW  Elec       q    Type
REMARK                         _______ _______ _______ _____ _____    ______ ____
ROOT
ATOM      1  C   UNL     1      45.300   5.257  12.501  0.00  0.00    +0.000 A 
ATOM      2  C   UNL     1      45.881   4.572  13.584  0.00  0.00    +0.000 A 
ATOM      3  C   UNL     1      47.093   4.991  14.122  0.00  0.00    +0.000 A 
ATOM      4  C   UNL     1      47.738   6.108  13.597  0.00  0.00    +0.000 A 
ATOM      5  F   UNL     1      48.942   6.430  14.095  0.00  0.00    +0.000 F 
ATOM      6  C   UNL     1      47.155   6.878  12.580  0.00  0.00    +0.000 A 
ATOM      7  C   UNL     1      45.913   6.447  12.083  0.00  0.00    +0.000 A 
ENDROOT
BRANCH   6   8
ATOM      8  N   UNL     1      47.745   7.978  11.967  0.00  0.00    +0.000 N 
ATOM      9  C   UNL     1      49.045   7.854  11.299  0.00  0.00    +0.000 C 
ATOM     10  C   UNL     1      50.178   8.553  12.077  0.00  0.00    +0.000 C 
ATOM     11  N   UNL     1      49.853   9.945  12.463  0.00  0.00    +0.000 NA
ATOM     12  C   UNL     1      48.613   9.920  13.265  0.00  0.00    +0.000 C 
ATOM     13  C   UNL     1      47.411   9.304  12.516  0.00  0.00    +0.000 C 
ATOM     14  H   UNL     1      49.661  10.467  11.607  0.00  0.00    +0.000 HD
ENDBRANCH   6   8
BRANCH   1  15
ATOM     15  C   UNL     1      44.159   4.634  11.703  0.00  0.00    +0.000 C 
ATOM     16  C   UNL     1      43.445   3.379  12.183  0.00  0.00    +0.000 C 
ATOM     17  C   UNL     1      42.834   4.706  12.464  0.00  0.00    +0.000 C 
BRANCH  15  18
ATOM     18  N   UNL     1      44.200   4.900  10.261  0.00  0.00    +0.000 N 
ATOM     19  H   UNL     1      43.417   5.391   9.842  0.00  0.00    +0.000 HD
BRANCH  18  23
ATOM     20  C   UNL     1      46.675   2.792   7.551  0.00  0.00    +0.000 A 
ATOM     21  C   UNL     1      45.849   2.081   8.421  0.00  0.00    +0.000 A 
ATOM     22  C   UNL     1      45.026   2.764   9.322  0.00  0.00    +0.000 A 
ATOM     23  C   UNL     1      44.975   4.164   9.342  0.00  0.00    +0.000 A 
ATOM     24  C   UNL     1      45.828   4.863   8.476  0.00  0.00    +0.000 A 
ATOM     25  C   UNL     1      46.670   4.187   7.584  0.00  0.00    +0.000 A 
BRANCH  20  27
ATOM     26  N   UNL     1      48.223   1.533   5.896  0.00  0.00    +0.000 NA
ATOM     27  C   UNL     1      47.531   2.094   6.639  0.00  0.00    +0.000 C 
ENDBRANCH  20  27
ENDBRANCH  18  23
ENDBRANCH  15  18
ENDBRANCH   1  15
TORSDOF 5
ENDMDL
MODEL 3
REMARK VINA RESULT:    -7.324      2.559      4.000
REMARK INTER + INTRA:         -10.413
REMARK INTER:                 -10.043
REMARK INTRA:                  -0.370
REMARK UNBOUND:                -0.948
REMARK  Name = 
REMARK  5 active torsions:
REMARK  status: ('A' for Active; 'I' for Inactive)
REMARK    1  A    between atoms: C_2  and  C_3
REMARK    2  A    between atoms: C_6  and  N_7
REMARK    3  A    between atoms: N_7  and  C_8
REMARK    4  A    between atoms: C_8  and  C_9
REMARK    5  A    between atoms: C_14  and  N_15
REMARK                            x       y       z     vdW  Elec       q    Type
REMARK                         _______ _______ _______ _____ _____    ______ ____
ROOT
ATOM      1  C   UNL     1      44.704   6.342  12.010  0.00  0.00    +0.000 A 
ATOM      2  C   UNL     1      45.818   6.580  12.836  0.00  0.00    +0.000 A 
ATOM      3  C   UNL     1      46.371   7.852  12.935  0.00  0.00    +0.000 A 
ATOM      4  C   UNL     1      45.815   8.909  12.221  0.00  0.00    +0.000 A 
ATOM      5  F   UNL     1      46.428  10.102  12.284  0.00  0.00    +0.000 F 
ATOM      6  C   UNL     1      44.650   8.743  11.457  0.00  0.00    +0.000 A 
ATOM      7  C   UNL     1      44.096   7.453  11.407  0.00  0.00    +0.000 A 
ENDROOT
BRANCH   6   8
ATOM      8  N   UNL     1      44.053   9.729  10.679  0.00  0.00    +0.000 N 
ATOM      9  C   UNL     1      44.729  11.009  10.444  0.00  0.00    +0.000 C 
ATOM     10  C   UNL     1      44.063  12.177  11.198  0.00  0.00    +0.000 C 
ATOM     11  N   UNL     1      42.598  12.247  10.995  0.00  0.00    +0.000 NA
ATOM     12  C   UNL     1      42.014  10.957  11.418  0.00  0.00    +0.000 C 
ATOM     13  C   UNL     1      42.580   9.747  10.643  0.00  0.00    +0.000 C 
ATOM     14  H   UNL     1      42.429  12.354   9.995  0.00  0.00    +0.000 HD
ENDBRANCH   6   8
BRANCH   1  15
ATOM     15  C   UNL     1      44.292   4.920  11.644  0.00  0.00    +0.000 C 
ATOM     16  C   UNL     1      44.761   3.721  12.455  0.00  0.00    +0.000 C 
ATOM     17  C   UNL     1      43.415   4.291  12.728  0.00  0.00    +0.000 C 
BRANCH  15  18
ATOM     18  N   UNL     1      43.975   4.717  10.225  0.00  0.00    +0.000 N 
ATOM     19  H   UNL     1      43.004   4.776   9.938  0.00  0.00    +0.000 HD
BRANCH  18  23
ATOM     20  C   UNL     1      46.599   2.712   7.578  0.00  0.00    +0.000 A 
ATOM     21  C   UNL     1      45.716   1.970   8.362  0.00  0.00    +0.000 A 
ATOM     22  C   UNL     1      44.843   2.619   9.241  0.00  0.00    +0.000 A 
ATOM     23  C   UNL     1      44.801   4.017   9.323  0.00  0.00    +0.000 A 
ATOM     24  C   UNL     1      45.711   4.746   8.544  0.00  0.00    +0.000 A 
ATOM     25  C   UNL     1      46.601   4.104   7.675  0.00  0.00    +0.000 A 
BRANCH  20  27
ATOM     26  N   UNL     1      48.235   1.510   5.965  0.00  0.00    +0.000 NA
ATOM     27  C   UNL     1      47.505   2.049   6.688  0.00  0.00    +0.000 C 
ENDBRANCH  20  27
ENDBRANCH  18  23
ENDBRANCH  15  18
ENDBRANCH   1  15
TORSDOF 5
ENDMDL
MODEL 4
REMARK VINA RESULT:    -6.699      2.648      3.386
REMARK INTER + INTRA:          -9.606
REMARK INTER:                  -9.484
REMARK INTRA:                  -0.122
REMARK UNBOUND:                -0.948
REMARK  Name = 
REMARK  5 active torsions:
REMARK  status: ('A' for Active; 'I' for Inactive)
REMARK    1  A    between atoms: C_2  and  C_3
REMARK    2  A    between atoms: C_6  and  N_7
REMARK    3  A    between atoms: N_7  and  C_8
REMARK    4  A    between atoms: C_8  and  C_9
REMARK    5  A    between atoms: C_14  and  N_15
REMARK                            x       y       z     vdW  Elec       q    Type
REMARK                         _______ _______ _______ _____ _____    ______ ____
ROOT
ATOM      1  C   UNL     1      45.756   4.968  13.042  0.00  0.00    +0.000 A 
ATOM      2  C   UNL     1      46.649   5.975  12.633  0.00  0.00    +0.000 A 
ATOM      3  C   UNL     1      47.729   6.336  13.432  0.00  0.00    +0.000 A 
ATOM      4  C   UNL     1      47.942   5.689  14.646  0.00  0.00    +0.000 A 
ATOM      5  F   UNL     1      48.949   6.123  15.420  0.00  0.00    +0.000 F 
ATOM      6  C   UNL     1      47.136   4.617  15.054  0.00  0.00    +0.000 A 
ATOM      7  C   UNL     1      46.075   4.254  14.207  0.00  0.00    +0.000 A 
ENDROOT
BRANCH   6   8
ATOM      8  N   UNL     1      47.248   3.944  16.267  0.00  0.00    +0.000 N 
ATOM      9  C   UNL     1      47.072   4.657  17.536  0.00  0.00    +0.000 C 
ATOM     10  C   UNL     1      48.398   4.832  18.304  0.00  0.00    +0.000 C 
ATOM     11  N   UNL     1      49.165   3.574  18.445  0.00  0.00    +0.000 NA
ATOM     12  C   UNL     1      49.417   3.037  17.092  0.00  0.00    +0.000 C 
ATOM     13  C   UNL     1      48.125   2.761  16.292  0.00  0.00    +0.000 C 
ATOM     14  H   UNL     1      48.576   2.905  18.941  0.00  0.00    +0.000 HD
ENDBRANCH   6   8
BRANCH   1  15
ATOM     15  C   UNL     1      44.411   4.786  12.348  0.00  0.00    +0.000 C 
ATOM     16  C   UNL     1      43.123   5.325  12.953  0.00  0.00    +0.000 C 
ATOM     17  C   UNL     1      43.817   6.126  11.909  0.00  0.00    +0.000 C 
BRANCH  15  18
ATOM     18  N   UNL     1      44.326   3.615  11.467  0.00  0.00    +0.000 N 
ATOM     19  H   UNL     1      44.111   2.716  11.885  0.00  0.00    +0.000 HD
BRANCH  18  23
ATOM     20  C   UNL     1      46.052   3.238   7.621  0.00  0.00    +0.000 A 
ATOM     21  C   UNL     1      45.841   4.509   8.157  0.00  0.00    +0.000 A 
ATOM     22  C   UNL     1      45.271   4.648   9.427  0.00  0.00    +0.000 A 
ATOM     23  C   UNL     1      44.944   3.529  10.204  0.00  0.00    +0.000 A 
ATOM     24  C   UNL     1      45.143   2.260   9.640  0.00  0.00    +0.000 A 
ATOM     25  C   UNL     1      45.695   2.112   8.363  0.00  0.00    +0.000 A 
BRANCH  20  27
ATOM     26  N   UNL     1      47.082   2.971   5.257  0.00  0.00    +0.000 NA
ATOM     27  C   UNL     1      46.620   3.093   6.315  0.00  0.00    +0.000 C 
ENDBRANCH  20  27
ENDBRANCH  18  23
ENDBRANCH  15  18
ENDBRANCH   1  15
TORSDOF 5
ENDMDL
MODEL 5
REMARK VINA RESULT:    -6.406      3.447      7.671
REMARK INTER + INTRA:          -9.227
REMARK INTER:                  -8.776
REMARK INTRA:                  -0.450
REMARK UNBOUND:                -0.948
REMARK  Name = 
REMARK  5 active torsions:
REMARK  status: ('A' for Active; 'I' for Inactive)
REMARK    1  A    between atoms: C_2  and  C_3
REMARK    2  A    between atoms: C_6  and  N_7
REMARK    3  A    between atoms: N_7  and  C_8
REMARK    4  A    between atoms: C_8  and  C_9
REMARK    5  A    between atoms: C_14  and  N_15
REMARK                            x       y       z     vdW  Elec       q    Type
REMARK                         _______ _______ _______ _____ _____    ______ ____
ROOT
ATOM      1  C   UNL     1      47.755   6.690  14.107  0.00  0.00    +0.000 A 
ATOM      2  C   UNL     1      48.179   7.307  12.916  0.00  0.00    +0.000 A 
ATOM      3  C   UNL     1      47.559   7.017  11.705  0.00  0.00    +0.000 A 
ATOM      4  C   UNL     1      46.498   6.117  11.665  0.00  0.00    +0.000 A 
ATOM      5  F   UNL     1      45.981   5.808  10.466  0.00  0.00    +0.000 F 
ATOM      6  C   UNL     1      45.979   5.547  12.837  0.00  0.00    +0.000 A 
ATOM      7  C   UNL     1      46.605   5.888  14.047  0.00  0.00    +0.000 A 
ENDROOT
BRANCH   6   8
ATOM      8  N   UNL     1      44.954   4.607  12.887  0.00  0.00    +0.000 N 
ATOM      9  C   UNL     1      45.115   3.292  12.258  0.00  0.00    +0.000 C 
ATOM     10  C   UNL     1      44.256   3.137  10.986  0.00  0.00    +0.000 C 
ATOM     11  N   UNL     1      42.840   3.518  11.183  0.00  0.00    +0.000 NA
ATOM     12  C   UNL     1      42.804   4.914  11.665  0.00  0.00    +0.000 C 
ATOM     13  C   UNL     1      43.579   5.127  12.984  0.00  0.00    +0.000 C 
ATOM     14  H   UNL     1      42.458   2.924  11.920  0.00  0.00    +0.000 HD
ENDBRANCH   6   8
BRANCH   1  15
ATOM     15  C   UNL     1      48.614   6.746  15.366  0.00  0.00    +0.000 C 
ATOM     16  C   UNL     1      50.048   7.254  15.329  0.00  0.00    +0.000 C 
ATOM     17  C   UNL     1      48.965   8.186  15.745  0.00  0.00    +0.000 C 
BRANCH  15  18
ATOM     18  N   UNL     1      48.248   5.776  16.404  0.00  0.00    +0.000 N 
ATOM     19  H   UNL     1      47.562   6.053  17.099  0.00  0.00    +0.000 HD
BRANCH  18  23
ATOM     20  C   UNL     1      50.666   2.454  17.421  0.00  0.00    +0.000 A 
ATOM     21  C   UNL     1      51.128   3.744  17.680  0.00  0.00    +0.000 A 
ATOM     22  C   UNL     1      50.340   4.851  17.349  0.00  0.00    +0.000 A 
ATOM     23  C   UNL     1      49.061   4.695  16.798  0.00  0.00    +0.000 A 
ATOM     24  C   UNL     1      48.621   3.391  16.524  0.00  0.00    +0.000 A 
ATOM     25  C   UNL     1      49.412   2.278  16.834  0.00  0.00    +0.000 A 
BRANCH  20  27
ATOM     26  N   UNL     1      52.139   0.403  18.004  0.00  0.00    +0.000 NA
ATOM     27  C   UNL     1      51.477   1.319  17.743  0.00  0.00    +0.000 C 
ENDBRANCH  20  27
ENDBRANCH  18  23
ENDBRANCH  15  18
ENDBRANCH   1  15
TORSDOF 5
ENDMDL
MODEL 6
REMARK VINA RESULT:    -5.926      4.338      8.136
REMARK INTER + INTRA:          -8.607
REMARK INTER:                  -8.105
REMARK INTRA:                  -0.502
REMARK UNBOUND:                -0.948
REMARK  Name = 
REMARK  5 active torsions:
REMARK  status: ('A' for Active; 'I' for Inactive)
REMARK    1  A    between atoms: C_2  and  C_3
REMARK    2  A    between atoms: C_6  and  N_7
REMARK    3  A    between atoms: N_7  and  C_8
REMARK    4  A    between atoms: C_8  and  C_9
REMARK    5  A    between atoms: C_14  and  N_15
REMARK                            x       y       z     vdW  Elec       q    Type
REMARK                         _______ _______ _______ _____ _____    ______ ____
ROOT
ATOM      1  C   UNL     1      45.117   8.984  11.749  0.00  0.00    +0.000 A 
ATOM      2  C   UNL     1      46.328   8.707  12.408  0.00  0.00    +0.000 A 
ATOM      3  C   UNL     1      46.687   7.399  12.716  0.00  0.00    +0.000 A 
ATOM      4  C   UNL     1      45.849   6.346  12.359  0.00  0.00    +0.000 A 
ATOM      5  F   UNL     1      46.197   5.108  12.745  0.00  0.00    +0.000 F 
ATOM      6  C   UNL     1      44.678   6.562  11.619  0.00  0.00    +0.000 A 
ATOM      7  C   UNL     1      44.362   7.892  11.294  0.00  0.00    +0.000 A 
ENDROOT
BRANCH   6   8
ATOM      8  N   UNL     1      43.762   5.579  11.260  0.00  0.00    +0.000 N 
ATOM      9  C   UNL     1      42.936   4.918  12.276  0.00  0.00    +0.000 C 
ATOM     10  C   UNL     1      43.359   3.456  12.522  0.00  0.00    +0.000 C 
ATOM     11  N   UNL     1      43.492   2.666  11.277  0.00  0.00    +0.000 NA
ATOM     12  C   UNL     1      44.469   3.348  10.404  0.00  0.00    +0.000 C 
ATOM     13  C   UNL     1      44.067   4.796  10.050  0.00  0.00    +0.000 C 
ATOM     14  H   UNL     1      42.588   2.679  10.804  0.00  0.00    +0.000 HD
ENDBRANCH   6   8
BRANCH   1  15
ATOM     15  C   UNL     1      44.564  10.404  11.693  0.00  0.00    +0.000 C 
ATOM     16  C   UNL     1      45.483  11.617  11.692  0.00  0.00    +0.000 C 
ATOM     17  C   UNL     1      44.957  11.112  10.395  0.00  0.00    +0.000 C 
BRANCH  15  18
ATOM     18  N   UNL     1      43.211  10.560  12.241  0.00  0.00    +0.000 N 
ATOM     19  H   UNL     1      42.955  10.003  13.050  0.00  0.00    +0.000 HD
BRANCH  18  23
ATOM     20  C   UNL     1      39.800  11.917  10.136  0.00  0.00    +0.000 A 
ATOM     21  C   UNL     1      40.717  12.846  10.628  0.00  0.00    +0.000 A 
ATOM     22  C   UNL     1      41.849  12.411  11.326  0.00  0.00    +0.000 A 
ATOM     23  C   UNL     1      42.112  11.047  11.506  0.00  0.00    +0.000 A 
ATOM     24  C   UNL     1      41.168  10.129  11.024  0.00  0.00    +0.000 A 
ATOM     25  C   UNL     1      40.023  10.555  10.342  0.00  0.00    +0.000 A 
BRANCH  20  27
ATOM     26  N   UNL     1      37.688  12.718   8.864  0.00  0.00    +0.000 NA
ATOM     27  C   UNL     1      38.632  12.360   9.435  0.00  0.00    +0.000 C 
ENDBRANCH  20  27
ENDBRANCH  18  23
ENDBRANCH  15  18
ENDBRANCH   1  15
TORSDOF 5
ENDMDL
MODEL 7
REMARK VINA RESULT:    -5.833      4.116      6.766
REMARK INTER + INTRA:          -8.486
REMARK INTER:                  -7.400
REMARK INTRA:                  -1.086
REMARK UNBOUND:                -0.948
REMARK  Name = 
REMARK  5 active torsions:
REMARK  status: ('A' for Active; 'I' for Inactive)
REMARK    1  A    between atoms: C_2  and  C_3
REMARK    2  A    between atoms: C_6  and  N_7
REMARK    3  A    between atoms: N_7  and  C_8
REMARK    4  A    between atoms: C_8  and  C_9
REMARK    5  A    between atoms: C_14  and  N_15
REMARK                            x       y       z     vdW  Elec       q    Type
REMARK                         _______ _______ _______ _____ _____    ______ ____
ROOT
ATOM      1  C   UNL     1      49.080   7.495  16.117  0.00  0.00    +0.000 A 
ATOM      2  C   UNL     1      48.587   8.408  17.066  0.00  0.00    +0.000 A 
ATOM      3  C   UNL     1      48.048   7.962  18.269  0.00  0.00    +0.000 A 
ATOM      4  C   UNL     1      48.004   6.599  18.548  0.00  0.00    +0.000 A 
ATOM      5  F   UNL     1      47.405   6.210  19.684  0.00  0.00    +0.000 F 
ATOM      6  C   UNL     1      48.566   5.656  17.675  0.00  0.00    +0.000 A 
ATOM      7  C   UNL     1      49.134   6.142  16.486  0.00  0.00    +0.000 A 
ENDROOT
BRANCH   6   8
ATOM      8  N   UNL     1      48.527   4.276  17.851  0.00  0.00    +0.000 N 
ATOM      9  C   UNL     1      49.739   3.535  18.214  0.00  0.00    +0.000 C 
ATOM     10  C   UNL     1      50.275   2.674  17.052  0.00  0.00    +0.000 C 
ATOM     11  N   UNL     1      49.240   1.824  16.424  0.00  0.00    +0.000 NA
ATOM     12  C   UNL     1      48.147   2.702  15.957  0.00  0.00    +0.000 C 
ATOM     13  C   UNL     1      47.507   3.537  17.088  0.00  0.00    +0.000 C 
ATOM     14  H   UNL     1      48.860   1.212  17.147  0.00  0.00    +0.000 HD
ENDBRANCH   6   8
BRANCH   1  15
ATOM     15  C   UNL     1      49.370   7.935  14.686  0.00  0.00    +0.000 C 
ATOM     16  C   UNL     1      49.457   9.406  14.308  0.00  0.00    +0.000 C 
ATOM     17  C   UNL     1      50.714   8.659  14.581  0.00  0.00    +0.000 C 
BRANCH  15  18
ATOM     18  N   UNL     1      48.963   6.976  13.652  0.00  0.00    +0.000 N 
ATOM     19  H   UNL     1      49.602   6.798  12.885  0.00  0.00    +0.000 HD
BRANCH  18  23
ATOM     20  C   UNL     1      44.938   5.846  12.993  0.00  0.00    +0.000 A 
ATOM     21  C   UNL     1      45.320   7.172  12.791  0.00  0.00    +0.000 A 
ATOM     22  C   UNL     1      46.647   7.560  13.006  0.00  0.00    +0.000 A 
ATOM     23  C   UNL     1      47.625   6.629  13.379  0.00  0.00    +0.000 A 
ATOM     24  C   UNL     1      47.218   5.304  13.598  0.00  0.00    +0.000 A 
ATOM     25  C   UNL     1      45.889   4.912  13.405  0.00  0.00    +0.000 A 
BRANCH  20  27
ATOM     26  N   UNL     1      42.475   5.125  12.623  0.00  0.00    +0.000 NA
ATOM     27  C   UNL     1      43.576   5.450  12.790  0.00  0.00    +0.000 C 
ENDBRANCH  20  27
ENDBRANCH  18  23
ENDBRANCH  15  18
ENDBRANCH   1  15
TORSDOF 5
ENDMDL
MODEL 8
REMARK VINA RESULT:    -5.805      2.733      7.917
REMARK INTER + INTRA:          -8.450
REMARK INTER:                  -7.407
REMARK INTRA:                  -1.043
REMARK UNBOUND:                -0.948
REMARK  Name = 
REMARK  5 active torsions:
REMARK  status: ('A' for Active; 'I' for Inactive)
REMARK    1  A    between atoms: C_2  and  C_3
REMARK    2  A    between atoms: C_6  and  N_7
REMARK    3  A    between atoms: N_7  and  C_8
REMARK    4  A    between atoms: C_8  and  C_9
REMARK    5  A    between atoms: C_14  and  N_15
REMARK                            x       y       z     vdW  Elec       q    Type
REMARK                         _______ _______ _______ _____ _____    ______ ____
ROOT
ATOM      1  C   UNL     1      47.581   8.147  12.594  0.00  0.00    +0.000 A 
ATOM      2  C   UNL     1      46.701   9.222  12.378  0.00  0.00    +0.000 A 
ATOM      3  C   UNL     1      45.387   8.997  11.979  0.00  0.00    +0.000 A 
ATOM      4  C   UNL     1      44.928   7.695  11.802  0.00  0.00    +0.000 A 
ATOM      5  F   UNL     1      43.678   7.527  11.342  0.00  0.00    +0.000 F 
ATOM      6  C   UNL     1      45.738   6.588  12.095  0.00  0.00    +0.000 A 
ATOM      7  C   UNL     1      47.048   6.851  12.529  0.00  0.00    +0.000 A 
ENDROOT
BRANCH   6   8
ATOM      8  N   UNL     1      45.378   5.258  11.906  0.00  0.00    +0.000 N 
ATOM      9  C   UNL     1      45.128   4.735  10.559  0.00  0.00    +0.000 C 
ATOM     10  C   UNL     1      43.635   4.452  10.302  0.00  0.00    +0.000 C 
ATOM     11  N   UNL     1      42.999   3.643  11.367  0.00  0.00    +0.000 NA
ATOM     12  C   UNL     1      43.179   4.353  12.650  0.00  0.00    +0.000 C 
ATOM     13  C   UNL     1      44.660   4.599  13.011  0.00  0.00    +0.000 C 
ATOM     14  H   UNL     1      43.503   2.758  11.427  0.00  0.00    +0.000 HD
ENDBRANCH   6   8
BRANCH   1  15
ATOM     15  C   UNL     1      49.084   8.378  12.714  0.00  0.00    +0.000 C 
ATOM     16  C   UNL     1      50.080   7.577  11.889  0.00  0.00    +0.000 C 
ATOM     17  C   UNL     1      49.675   8.927  11.414  0.00  0.00    +0.000 C 
BRANCH  15  18
ATOM     18  N   UNL     1      49.523   8.908  14.010  0.00  0.00    +0.000 N 
ATOM     19  H   UNL     1      50.331   9.522  14.027  0.00  0.00    +0.000 HD
BRANCH  18  23
ATOM     20  C   UNL     1      48.471   7.173  17.724  0.00  0.00    +0.000 A 
ATOM     21  C   UNL     1      49.116   6.396  16.762  0.00  0.00    +0.000 A 
ATOM     22  C   UNL     1      49.469   6.956  15.530  0.00  0.00    +0.000 A 
ATOM     23  C   UNL     1      49.230   8.308  15.251  0.00  0.00    +0.000 A 
ATOM     24  C   UNL     1      48.561   9.068  16.221  0.00  0.00    +0.000 A 
ATOM     25  C   UNL     1      48.187   8.511  17.449  0.00  0.00    +0.000 A 
BRANCH  20  27
ATOM     26  N   UNL     1      47.785   6.129  19.995  0.00  0.00    +0.000 NA
ATOM     27  C   UNL     1      48.094   6.597  18.980  0.00  0.00    +0.000 C 
ENDBRANCH  20  27
ENDBRANCH  18  23
ENDBRANCH  15  18
ENDBRANCH   1  15
TORSDOF 5
ENDMDL
MODEL 9
REMARK VINA RESULT:    -5.605      3.414      5.987
REMARK INTER + INTRA:          -8.192
REMARK INTER:                  -7.644
REMARK INTRA:                  -0.548
REMARK UNBOUND:                -0.948
REMARK  Name = 
REMARK  5 active torsions:
REMARK  status: ('A' for Active; 'I' for Inactive)
REMARK    1  A    between atoms: C_2  and  C_3
REMARK    2  A    between atoms: C_6  and  N_7
REMARK    3  A    between atoms: N_7  and  C_8
REMARK    4  A    between atoms: C_8  and  C_9
REMARK    5  A    between atoms: C_14  and  N_15
REMARK                            x       y       z     vdW  Elec       q    Type
REMARK                         _______ _______ _______ _____ _____    ______ ____
ROOT
ATOM      1  C   UNL     1      49.362   7.571  14.505  0.00  0.00    +0.000 A 
ATOM      2  C   UNL     1      50.451   8.419  14.773  0.00  0.00    +0.000 A 
ATOM      3  C   UNL     1      51.158   8.316  15.966  0.00  0.00    +0.000 A 
ATOM      4  C   UNL     1      50.796   7.355  16.907  0.00  0.00    +0.000 A 
ATOM      5  F   UNL     1      51.454   7.342  18.076  0.00  0.00    +0.000 F 
ATOM      6  C   UNL     1      49.778   6.426  16.648  0.00  0.00    +0.000 A 
ATOM      7  C   UNL     1      49.108   6.536  15.418  0.00  0.00    +0.000 A 
ENDROOT
BRANCH   6   8
ATOM      8  N   UNL     1      49.322   5.465  17.544  0.00  0.00    +0.000 N 
ATOM      9  C   UNL     1      49.187   4.063  17.133  0.00  0.00    +0.000 C 
ATOM     10  C   UNL     1      47.715   3.628  16.990  0.00  0.00    +0.000 C 
ATOM     11  N   UNL     1      46.884   3.972  18.166  0.00  0.00    +0.000 NA
ATOM     12  C   UNL     1      46.974   5.431  18.380  0.00  0.00    +0.000 C 
ATOM     13  C   UNL     1      48.419   5.927  18.612  0.00  0.00    +0.000 C 
ATOM     14  H   UNL     1      47.292   3.511  18.979  0.00  0.00    +0.000 HD
ENDBRANCH   6   8
BRANCH   1  15
ATOM     15  C   UNL     1      48.392   7.877  13.369  0.00  0.00    +0.000 C 
ATOM     16  C   UNL     1      48.736   8.880  12.277  0.00  0.00    +0.000 C 
ATOM     17  C   UNL     1      48.950   7.431  12.016  0.00  0.00    +0.000 C 
BRANCH  15  18
ATOM     18  N   UNL     1      46.977   7.664  13.694  0.00  0.00    +0.000 N 
ATOM     19  H   UNL     1      46.625   8.032  14.571  0.00  0.00    +0.000 HD
BRANCH  18  23
ATOM     20  C   UNL     1      44.581   4.504  12.214  0.00  0.00    +0.000 A 
ATOM     21  C   UNL     1      44.316   5.812  11.811  0.00  0.00    +0.000 A 
ATOM     22  C   UNL     1      45.099   6.866  12.292  0.00  0.00    +0.000 A 
ATOM     23  C   UNL     1      46.186   6.634  13.144  0.00  0.00    +0.000 A 
ATOM     24  C   UNL     1      46.425   5.315  13.557  0.00  0.00    +0.000 A 
ATOM     25  C   UNL     1      45.634   4.256  13.096  0.00  0.00    +0.000 A 
BRANCH  20  27
ATOM     26  N   UNL     1      43.109   2.553  11.348  0.00  0.00    +0.000 NA
ATOM     27  C   UNL     1      43.770   3.424  11.736  0.00  0.00    +0.000 C 
ENDBRANCH  20  27
ENDBRANCH  18  23
ENDBRANCH  15  18
ENDBRANCH   1  15
TORSDOF 5
ENDMDL
