MODEL 1
REMARK VINA RESULT:    -8.771      0.000      0.000
REMARK INTER + INTRA:         -14.174
REMARK INTER:                 -12.873
REMARK INTRA:                  -1.301
REMARK UNBOUND:                -1.301
REMARK  Name = 
REMARK  9 active torsions:
REMARK  status: ('A' for Active; 'I' for Inactive)
REMARK    1  A    between atoms: C_1  and  C_2
REMARK    2  A    between atoms: C_2  and  C_3
REMARK    3  A    between atoms: C_3  and  N_4
REMARK    4  A    between atoms: C_3  and  C_12
REMARK    5  A    between atoms: N_4  and  C_5
REMARK    6  A    between atoms: C_5  and  C_6
REMARK    7  A    between atoms: C_15  and  C_16
REMARK    8  A    between atoms: C_16  and  N_17
REMARK    9  A    between atoms: C_18  and  C_20
REMARK                            x       y       z     vdW  Elec       q    Type
REMARK                         _______ _______ _______ _____ _____    ______ ____
ROOT
ATOM      1  C   UNL     1      45.417   4.347  12.226  0.00  0.00    +0.000 A 
ATOM      2  C   UNL     1      45.866   5.499  11.551  0.00  0.00    +0.000 A 
ATOM      3  C   UNL     1      46.802   6.361  12.134  0.00  0.00    +0.000 A 
ATOM      4  C   UNL     1      47.364   6.056  13.377  0.00  0.00    +0.000 A 
ATOM      5  C   UNL     1      46.948   4.895  14.038  0.00  0.00    +0.000 A 
ATOM      6  C   UNL     1      45.982   4.062  13.477  0.00  0.00    +0.000 A 
ENDROOT
BRANCH   1   7
ATOM      7  C   UNL     1      44.264   3.521  11.641  0.00  0.00    +0.000 C 
BRANCH   7   9
ATOM      8  C   UNL     1      42.428   5.390  11.801  0.00  0.00    +0.000 C 
ATOM      9  C   UNL     1      43.228   4.437  10.923  0.00  0.00    +0.000 C 
ENDBRANCH   7   9
BRANCH   7  10
ATOM     10  N   UNL     1      44.758   2.464  10.732  0.00  0.00    +0.000 NA
ATOM     11  H   UNL     1      44.387   1.569  11.039  0.00  0.00    +0.000 HD
BRANCH  10  12
ATOM     12  C   UNL     1      44.353   2.669   9.335  0.00  0.00    +0.000 C 
BRANCH  12  13
ATOM     13  C   UNL     1      45.508   2.559   8.369  0.00  0.00    +0.000 A 
ATOM     14  C   UNL     1      46.174   1.337   8.178  0.00  0.00    +0.000 A 
ATOM     15  C   UNL     1      47.223   1.237   7.261  0.00  0.00    +0.000 A 
ATOM     16  C   UNL     1      47.608   2.355   6.527  0.00  0.00    +0.000 A 
ATOM     17  C   UNL     1      46.947   3.570   6.702  0.00  0.00    +0.000 A 
ATOM     18  C   UNL     1      45.902   3.672   7.617  0.00  0.00    +0.000 A 
ENDBRANCH  12  13
ENDBRANCH  10  12
ENDBRANCH   7  10
ENDBRANCH   1   7
BRANCH   4  19
ATOM     19  C   UNL     1      48.384   6.951  14.023  0.00  0.00    +0.000 C 
BRANCH  19  20
ATOM     20  N   UNL     1      48.211   7.026  15.453  0.00  0.00    +0.000 N 
ATOM     21  C   UNL     1      49.182   6.624  16.332  0.00  0.00    +0.000 C 
ATOM     22  O   UNL     1      50.254   6.151  15.957  0.00  0.00    +0.000 OA
ATOM     23  H   UNL     1      47.274   7.217  15.793  0.00  0.00    +0.000 HD
BRANCH  21  24
ATOM     24  C   UNL     1      48.914   6.848  17.757  0.00  0.00    +0.000 A 
ATOM     25  C   UNL     1      48.780   8.144  18.232  0.00  0.00    +0.000 A 
ATOM     26  S   UNL     1      48.455   8.235  19.904  0.00  0.00    +0.000 S 
ATOM     27  C   UNL     1      48.517   6.543  20.059  0.00  0.00    +0.000 A 
ATOM     28  N   UNL     1      48.361   5.948  21.274  0.00  0.00    +0.000 NA
ATOM     29  C   UNL     1      48.462   4.663  21.253  0.00  0.00    +0.000 A 
ATOM     30  N   UNL     1      48.685   3.912  20.125  0.00  0.00    +0.000 N 
ATOM     31  C   UNL     1      48.792   4.468  18.872  0.00  0.00    +0.000 A 
ATOM     32  O   UNL     1      48.882   3.761  17.871  0.00  0.00    +0.000 OA
ATOM     33  C   UNL     1      48.742   5.917  18.847  0.00  0.00    +0.000 A 
ATOM     34  H   UNL     1      48.723   2.908  20.174  0.00  0.00    +0.000 HD
ENDBRANCH  21  24
ENDBRANCH  19  20
ENDBRANCH   4  19
TORSDOF 8
ENDMDL
MODEL 2
REMARK VINA RESULT:    -8.446      1.373      2.021
REMARK INTER + INTRA:         -13.697
REMARK INTER:                 -12.370
REMARK INTRA:                  -1.327
REMARK UNBOUND:                -1.301
REMARK  Name = 
REMARK  9 active torsions:
REMARK  status: ('A' for Active; 'I' for Inactive)
REMARK    1  A    between atoms: C_1  and  C_2
REMARK    2  A    between atoms: C_2  and  C_3
REMARK    3  A    between atoms: C_3  and  N_4
REMARK    4  A    between atoms: C_3  and  C_12
REMARK    5  A    between atoms: N_4  and  C_5
REMARK    6  A    between atoms: C_5  and  C_6
REMARK    7  A    between atoms: C_15  and  C_16
REMARK    8  A    between atoms: C_16  and  N_17
REMARK    9  A    between atoms: C_18  and  C_20
REMARK                            x       y       z     vdW  Elec       q    Type
REMARK                         _______ _______ _______ _____ _____    ______ ____
ROOT
ATOM      1  C   UNL     1      45.464   4.352  12.283  0.00  0.00    +0.000 A 
ATOM      2  C   UNL     1      45.912   5.580  11.758  0.00  0.00    +0.000 A 
ATOM      3  C   UNL     1      46.830   6.373  12.455  0.00  0.00    +0.000 A 
ATOM      4  C   UNL     1      47.374   5.926  13.664  0.00  0.00    +0.000 A 
ATOM      5  C   UNL     1      46.959   4.692  14.175  0.00  0.00    +0.000 A 
ATOM      6  C   UNL     1      46.011   3.924  13.501  0.00  0.00    +0.000 A 
ENDROOT
BRANCH   1   7
ATOM      7  C   UNL     1      44.329   3.592  11.583  0.00  0.00    +0.000 C 
BRANCH   7   9
ATOM      8  C   UNL     1      42.415   5.380  11.765  0.00  0.00    +0.000 C 
ATOM      9  C   UNL     1      43.352   4.576  10.873  0.00  0.00    +0.000 C 
ENDBRANCH   7   9
BRANCH   7  10
ATOM     10  N   UNL     1      44.852   2.585  10.635  0.00  0.00    +0.000 NA
ATOM     11  H   UNL     1      44.516   1.667  10.914  0.00  0.00    +0.000 HD
BRANCH  10  12
ATOM     12  C   UNL     1      44.426   2.823   9.249  0.00  0.00    +0.000 C 
BRANCH  12  13
ATOM     13  C   UNL     1      45.534   2.596   8.250  0.00  0.00    +0.000 A 
ATOM     14  C   UNL     1      46.217   1.369   8.197  0.00  0.00    +0.000 A 
ATOM     15  C   UNL     1      47.222   1.157   7.250  0.00  0.00    +0.000 A 
ATOM     16  C   UNL     1      47.546   2.166   6.348  0.00  0.00    +0.000 A 
ATOM     17  C   UNL     1      46.867   3.383   6.386  0.00  0.00    +0.000 A 
ATOM     18  C   UNL     1      45.866   3.598   7.331  0.00  0.00    +0.000 A 
ENDBRANCH  12  13
ENDBRANCH  10  12
ENDBRANCH   7  10
ENDBRANCH   1   7
BRANCH   4  19
ATOM     19  C   UNL     1      48.374   6.747  14.429  0.00  0.00    +0.000 C 
BRANCH  19  20
ATOM     20  N   UNL     1      48.166   6.663  15.854  0.00  0.00    +0.000 N 
ATOM     21  C   UNL     1      49.123   6.178  16.707  0.00  0.00    +0.000 C 
ATOM     22  O   UNL     1      50.210   5.761  16.311  0.00  0.00    +0.000 OA
ATOM     23  H   UNL     1      47.219   6.804  16.190  0.00  0.00    +0.000 HD
BRANCH  21  24
ATOM     24  C   UNL     1      48.818   6.241  18.141  0.00  0.00    +0.000 A 
ATOM     25  C   UNL     1      49.082   5.142  18.946  0.00  0.00    +0.000 A 
ATOM     26  S   UNL     1      48.689   5.379  20.589  0.00  0.00    +0.000 S 
ATOM     27  C   UNL     1      48.118   6.951  20.276  0.00  0.00    +0.000 A 
ATOM     28  N   UNL     1      47.586   7.710  21.274  0.00  0.00    +0.000 NA
ATOM     29  C   UNL     1      47.164   8.867  20.893  0.00  0.00    +0.000 A 
ATOM     30  N   UNL     1      47.242   9.346  19.607  0.00  0.00    +0.000 N 
ATOM     31  C   UNL     1      47.823   8.635  18.584  0.00  0.00    +0.000 A 
ATOM     32  O   UNL     1      47.974   9.136  17.472  0.00  0.00    +0.000 OA
ATOM     33  C   UNL     1      48.263   7.303  18.947  0.00  0.00    +0.000 A 
ATOM     34  H   UNL     1      46.920  10.272  19.384  0.00  0.00    +0.000 HD
ENDBRANCH  21  24
ENDBRANCH  19  20
ENDBRANCH   4  19
TORSDOF 8
ENDMDL
MODEL 3
REMARK VINA RESULT:    -8.075      2.231      2.471
REMARK INTER + INTRA:         -13.153
REMARK INTER:                 -12.201
REMARK INTRA:                  -0.952
REMARK UNBOUND:                -1.301
REMARK  Name = 
REMARK  9 active torsions:
REMARK  status: ('A' for Active; 'I' for Inactive)
REMARK    1  A    between atoms: C_1  and  C_2
REMARK    2  A    between atoms: C_2  and  C_3
REMARK    3  A    between atoms: C_3  and  N_4
REMARK    4  A    between atoms: C_3  and  C_12
REMARK    5  A    between atoms: N_4  and  C_5
REMARK    6  A    between atoms: C_5  and  C_6
REMARK    7  A    between atoms: C_15  and  C_16
REMARK    8  A    between atoms: C_16  and  N_17
REMARK    9  A    between atoms: C_18  and  C_20
REMARK                            x       y       z     vdW  Elec       q    Type
REMARK                         _______ _______ _______ _____ _____    ______ ____
ROOT
ATOM      1  C   UNL     1      45.519   4.673  12.326  0.00  0.00    +0.000 A 
ATOM      2  C   UNL     1      45.593   6.050  12.038  0.00  0.00    +0.000 A 
ATOM      3  C   UNL     1      46.440   6.896  12.762  0.00  0.00    +0.000 A 
ATOM      4  C   UNL     1      47.285   6.376  13.747  0.00  0.00    +0.000 A 
ATOM      5  C   UNL     1      47.241   5.004  14.016  0.00  0.00    +0.000 A 
ATOM      6  C   UNL     1      46.364   4.169  13.324  0.00  0.00    +0.000 A 
ENDROOT
BRANCH   1   7
ATOM      7  C   UNL     1      44.456   3.806  11.638  0.00  0.00    +0.000 C 
BRANCH   7   9
ATOM      8  C   UNL     1      42.361   5.375  11.843  0.00  0.00    +0.000 C 
ATOM      9  C   UNL     1      43.379   4.691  10.941  0.00  0.00    +0.000 C 
ENDBRANCH   7   9
BRANCH   7  10
ATOM     10  N   UNL     1      45.064   2.857  10.681  0.00  0.00    +0.000 NA
ATOM     11  H   UNL     1      44.861   1.909  10.987  0.00  0.00    +0.000 HD
BRANCH  10  12
ATOM     12  C   UNL     1      44.555   3.012   9.313  0.00  0.00    +0.000 C 
BRANCH  12  13
ATOM     13  C   UNL     1      45.577   2.646   8.264  0.00  0.00    +0.000 A 
ATOM     14  C   UNL     1      46.197   1.385   8.270  0.00  0.00    +0.000 A 
ATOM     15  C   UNL     1      47.120   1.044   7.279  0.00  0.00    +0.000 A 
ATOM     16  C   UNL     1      47.426   1.957   6.274  0.00  0.00    +0.000 A 
ATOM     17  C   UNL     1      46.809   3.207   6.253  0.00  0.00    +0.000 A 
ATOM     18  C   UNL     1      45.889   3.550   7.242  0.00  0.00    +0.000 A 
ENDBRANCH  12  13
ENDBRANCH  10  12
ENDBRANCH   7  10
ENDBRANCH   1   7
BRANCH   4  19
ATOM     19  C   UNL     1      48.218   7.255  14.532  0.00  0.00    +0.000 C 
BRANCH  19  20
ATOM     20  N   UNL     1      49.260   6.496  15.180  0.00  0.00    +0.000 N 
ATOM     21  C   UNL     1      49.328   6.358  16.541  0.00  0.00    +0.000 C 
ATOM     22  O   UNL     1      48.519   6.892  17.299  0.00  0.00    +0.000 OA
ATOM     23  H   UNL     1      50.050   6.217  14.607  0.00  0.00    +0.000 HD
BRANCH  21  24
ATOM     24  C   UNL     1      50.380   5.479  17.062  0.00  0.00    +0.000 A 
ATOM     25  C   UNL     1      51.548   6.033  17.568  0.00  0.00    +0.000 A 
ATOM     26  S   UNL     1      52.663   4.880  18.149  0.00  0.00    +0.000 S 
ATOM     27  C   UNL     1      51.638   3.595  17.712  0.00  0.00    +0.000 A 
ATOM     28  N   UNL     1      52.022   2.302  17.901  0.00  0.00    +0.000 NA
ATOM     29  C   UNL     1      51.165   1.429  17.498  0.00  0.00    +0.000 A 
ATOM     30  N   UNL     1      49.945   1.727  16.938  0.00  0.00    +0.000 N 
ATOM     31  C   UNL     1      49.496   3.017  16.783  0.00  0.00    +0.000 A 
ATOM     32  O   UNL     1      48.357   3.246  16.381  0.00  0.00    +0.000 OA
ATOM     33  C   UNL     1      50.447   4.040  17.169  0.00  0.00    +0.000 A 
ATOM     34  H   UNL     1      49.309   0.996  16.672  0.00  0.00    +0.000 HD
ENDBRANCH  21  24
ENDBRANCH  19  20
ENDBRANCH   4  19
TORSDOF 8
ENDMDL
MODEL 4
REMARK VINA RESULT:    -7.763      1.993      2.679
REMARK INTER + INTRA:         -12.694
REMARK INTER:                 -11.282
REMARK INTRA:                  -1.412
REMARK UNBOUND:                -1.301
REMARK  Name = 
REMARK  9 active torsions:
REMARK  status: ('A' for Active; 'I' for Inactive)
REMARK    1  A    between atoms: C_1  and  C_2
REMARK    2  A    between atoms: C_2  and  C_3
REMARK    3  A    between atoms: C_3  and  N_4
REMARK    4  A    between atoms: C_3  and  C_12
REMARK    5  A    between atoms: N_4  and  C_5
REMARK    6  A    between atoms: C_5  and  C_6
REMARK    7  A    between atoms: C_15  and  C_16
REMARK    8  A    between atoms: C_16  and  N_17
REMARK    9  A    between atoms: C_18  and  C_20
REMARK                            x       y       z     vdW  Elec       q    Type
REMARK                         _______ _______ _______ _____ _____    ______ ____
ROOT
ATOM      1  C   UNL     1      45.707   5.284  11.780  0.00  0.00    +0.000 A 
ATOM      2  C   UNL     1      46.058   4.863  13.077  0.00  0.00    +0.000 A 
ATOM      3  C   UNL     1      46.990   5.573  13.842  0.00  0.00    +0.000 A 
ATOM      4  C   UNL     1      47.544   6.761  13.356  0.00  0.00    +0.000 A 
ATOM      5  C   UNL     1      47.175   7.205  12.082  0.00  0.00    +0.000 A 
ATOM      6  C   UNL     1      46.280   6.471  11.303  0.00  0.00    +0.000 A 
ENDROOT
BRANCH   1   7
ATOM      7  C   UNL     1      44.821   4.392  10.901  0.00  0.00    +0.000 C 
BRANCH   7   9
ATOM      8  C   UNL     1      42.634   5.687  11.559  0.00  0.00    +0.000 C 
ATOM      9  C   UNL     1      43.359   4.353  11.439  0.00  0.00    +0.000 C 
ENDBRANCH   7   9
BRANCH   7  10
ATOM     10  N   UNL     1      44.855   4.818   9.485  0.00  0.00    +0.000 NA
ATOM     11  H   UNL     1      45.812   5.055   9.238  0.00  0.00    +0.000 HD
BRANCH  10  12
ATOM     12  C   UNL     1      44.391   3.777   8.559  0.00  0.00    +0.000 C 
BRANCH  12  13
ATOM     13  C   UNL     1      45.526   2.991   7.947  0.00  0.00    +0.000 A 
ATOM     14  C   UNL     1      46.379   3.579   6.997  0.00  0.00    +0.000 A 
ATOM     15  C   UNL     1      47.445   2.854   6.458  0.00  0.00    +0.000 A 
ATOM     16  C   UNL     1      47.667   1.542   6.868  0.00  0.00    +0.000 A 
ATOM     17  C   UNL     1      46.832   0.954   7.816  0.00  0.00    +0.000 A 
ATOM     18  C   UNL     1      45.767   1.675   8.355  0.00  0.00    +0.000 A 
ENDBRANCH  12  13
ENDBRANCH  10  12
ENDBRANCH   7  10
ENDBRANCH   1   7
BRANCH   4  19
ATOM     19  C   UNL     1      48.535   7.556  14.158  0.00  0.00    +0.000 C 
BRANCH  19  20
ATOM     20  N   UNL     1      49.086   6.791  15.250  0.00  0.00    +0.000 N 
ATOM     21  C   UNL     1      48.996   7.202  16.554  0.00  0.00    +0.000 C 
ATOM     22  O   UNL     1      48.460   8.262  16.874  0.00  0.00    +0.000 OA
ATOM     23  H   UNL     1      49.706   6.025  15.007  0.00  0.00    +0.000 HD
BRANCH  21  24
ATOM     24  C   UNL     1      49.511   6.281  17.572  0.00  0.00    +0.000 A 
ATOM     25  C   UNL     1      48.654   5.786  18.545  0.00  0.00    +0.000 A 
ATOM     26  S   UNL     1      49.401   4.716  19.643  0.00  0.00    +0.000 S 
ATOM     27  C   UNL     1      50.908   4.902  18.877  0.00  0.00    +0.000 A 
ATOM     28  N   UNL     1      52.016   4.274  19.358  0.00  0.00    +0.000 NA
ATOM     29  C   UNL     1      53.096   4.526  18.701  0.00  0.00    +0.000 A 
ATOM     30  N   UNL     1      53.170   5.335  17.593  0.00  0.00    +0.000 N 
ATOM     31  C   UNL     1      52.066   5.942  17.042  0.00  0.00    +0.000 A 
ATOM     32  O   UNL     1      52.148   6.570  15.989  0.00  0.00    +0.000 OA
ATOM     33  C   UNL     1      50.833   5.736  17.777  0.00  0.00    +0.000 A 
ATOM     34  H   UNL     1      54.041   5.466  17.109  0.00  0.00    +0.000 HD
ENDBRANCH  21  24
ENDBRANCH  19  20
ENDBRANCH   4  19
TORSDOF 8
ENDMDL
MODEL 5
REMARK VINA RESULT:    -7.726      4.224      6.396
REMARK INTER + INTRA:         -12.641
REMARK INTER:                 -11.236
REMARK INTRA:                  -1.405
REMARK UNBOUND:                -1.301
REMARK  Name = 
REMARK  9 active torsions:
REMARK  status: ('A' for Active; 'I' for Inactive)
REMARK    1  A    between atoms: C_1  and  C_2
REMARK    2  A    between atoms: C_2  and  C_3
REMARK    3  A    between atoms: C_3  and  N_4
REMARK    4  A    between atoms: C_3  and  C_12
REMARK    5  A    between atoms: N_4  and  C_5
REMARK    6  A    between atoms: C_5  and  C_6
REMARK    7  A    between atoms: C_15  and  C_16
REMARK    8  A    between atoms: C_16  and  N_17
REMARK    9  A    between atoms: C_18  and  C_20
REMARK                            x       y       z     vdW  Elec       q    Type
REMARK                         _______ _______ _______ _____ _____    ______ ____
ROOT
ATOM      1  C   UNL     1      45.537   4.533  12.080  0.00  0.00    +0.000 A 
ATOM      2  C   UNL     1      45.913   5.663  11.329  0.00  0.00    +0.000 A 
ATOM      3  C   UNL     1      46.830   6.594  11.829  0.00  0.00    +0.000 A 
ATOM      4  C   UNL     1      47.446   6.383  13.067  0.00  0.00    +0.000 A 
ATOM      5  C   UNL     1      47.103   5.245  13.805  0.00  0.00    +0.000 A 
ATOM      6  C   UNL     1      46.155   4.342  13.324  0.00  0.00    +0.000 A 
ENDROOT
BRANCH   1   7
ATOM      7  C   UNL     1      44.402   3.628  11.583  0.00  0.00    +0.000 C 
BRANCH   7   9
ATOM      8  C   UNL     1      42.448   5.361  11.844  0.00  0.00    +0.000 C 
ATOM      9  C   UNL     1      43.267   4.467  10.923  0.00  0.00    +0.000 C 
ENDBRANCH   7   9
BRANCH   7  10
ATOM     10  N   UNL     1      44.902   2.589  10.657  0.00  0.00    +0.000 NA
ATOM     11  H   UNL     1      44.567   1.681  10.973  0.00  0.00    +0.000 HD
BRANCH  10  12
ATOM     12  C   UNL     1      44.449   2.783   9.274  0.00  0.00    +0.000 C 
BRANCH  12  13
ATOM     13  C   UNL     1      45.549   2.564   8.262  0.00  0.00    +0.000 A 
ATOM     14  C   UNL     1      46.234   1.339   8.197  0.00  0.00    +0.000 A 
ATOM     15  C   UNL     1      47.230   1.135   7.240  0.00  0.00    +0.000 A 
ATOM     16  C   UNL     1      47.543   2.150   6.340  0.00  0.00    +0.000 A 
ATOM     17  C   UNL     1      46.862   3.364   6.390  0.00  0.00    +0.000 A 
ATOM     18  C   UNL     1      45.869   3.572   7.346  0.00  0.00    +0.000 A 
ENDBRANCH  12  13
ENDBRANCH  10  12
ENDBRANCH   7  10
ENDBRANCH   1   7
BRANCH   4  19
ATOM     19  C   UNL     1      48.446   7.355  13.626  0.00  0.00    +0.000 C 
BRANCH  19  20
ATOM     20  N   UNL     1      48.891   8.304  12.635  0.00  0.00    +0.000 N 
ATOM     21  C   UNL     1      50.019   9.065  12.802  0.00  0.00    +0.000 C 
ATOM     22  O   UNL     1      50.710   9.004  13.818  0.00  0.00    +0.000 OA
ATOM     23  H   UNL     1      48.243   8.526  11.887  0.00  0.00    +0.000 HD
BRANCH  21  24
ATOM     24  C   UNL     1      50.412   9.916  11.674  0.00  0.00    +0.000 A 
ATOM     25  C   UNL     1      51.729   9.909  11.237  0.00  0.00    +0.000 A 
ATOM     26  S   UNL     1      52.020  10.938   9.908  0.00  0.00    +0.000 S 
ATOM     27  C   UNL     1      50.401  11.458   9.892  0.00  0.00    +0.000 A 
ATOM     28  N   UNL     1      49.980  12.399   9.002  0.00  0.00    +0.000 NA
ATOM     29  C   UNL     1      48.738  12.724   9.120  0.00  0.00    +0.000 A 
ATOM     30  N   UNL     1      47.869  12.180  10.035  0.00  0.00    +0.000 N 
ATOM     31  C   UNL     1      48.239  11.188  10.912  0.00  0.00    +0.000 A 
ATOM     32  O   UNL     1      47.411  10.648  11.642  0.00  0.00    +0.000 OA
ATOM     33  C   UNL     1      49.641  10.826  10.859  0.00  0.00    +0.000 A 
ATOM     34  H   UNL     1      46.903  12.457  10.053  0.00  0.00    +0.000 HD
ENDBRANCH  21  24
ENDBRANCH  19  20
ENDBRANCH   4  19
TORSDOF 8
ENDMDL
MODEL 6
REMARK VINA RESULT:    -7.550      4.314      6.465
REMARK INTER + INTRA:         -12.383
REMARK INTER:                 -11.050
REMARK INTRA:                  -1.333
REMARK UNBOUND:                -1.301
REMARK  Name = 
REMARK  9 active torsions:
REMARK  status: ('A' for Active; 'I' for Inactive)
REMARK    1  A    between atoms: C_1  and  C_2
REMARK    2  A    between atoms: C_2  and  C_3
REMARK    3  A    between atoms: C_3  and  N_4
REMARK    4  A    between atoms: C_3  and  C_12
REMARK    5  A    between atoms: N_4  and  C_5
REMARK    6  A    between atoms: C_5  and  C_6
REMARK    7  A    between atoms: C_15  and  C_16
REMARK    8  A    between atoms: C_16  and  N_17
REMARK    9  A    between atoms: C_18  and  C_20
REMARK                            x       y       z     vdW  Elec       q    Type
REMARK                         _______ _______ _______ _____ _____    ______ ____
ROOT
ATOM      1  C   UNL     1      45.660   4.798  12.160  0.00  0.00    +0.000 A 
ATOM      2  C   UNL     1      46.061   5.884  11.357  0.00  0.00    +0.000 A 
ATOM      3  C   UNL     1      47.022   6.798  11.802  0.00  0.00    +0.000 A 
ATOM      4  C   UNL     1      47.655   6.612  13.035  0.00  0.00    +0.000 A 
ATOM      5  C   UNL     1      47.287   5.517  13.823  0.00  0.00    +0.000 A 
ATOM      6  C   UNL     1      46.297   4.633  13.398  0.00  0.00    +0.000 A 
ENDROOT
BRANCH   1   7
ATOM      7  C   UNL     1      44.482   3.918  11.721  0.00  0.00    +0.000 C 
BRANCH   7   9
ATOM      8  C   UNL     1      42.432   5.558  11.746  0.00  0.00    +0.000 C 
ATOM      9  C   UNL     1      43.429   4.749  10.928  0.00  0.00    +0.000 C 
ENDBRANCH   7   9
BRANCH   7  10
ATOM     10  N   UNL     1      44.938   2.751  10.936  0.00  0.00    +0.000 NA
ATOM     11  H   UNL     1      44.649   1.902  11.415  0.00  0.00    +0.000 HD
BRANCH  10  12
ATOM     12  C   UNL     1      44.382   2.717   9.577  0.00  0.00    +0.000 C 
BRANCH  12  13
ATOM     13  C   UNL     1      45.445   2.568   8.515  0.00  0.00    +0.000 A 
ATOM     14  C   UNL     1      46.103   1.341   8.321  0.00  0.00    +0.000 A 
ATOM     15  C   UNL     1      47.064   1.204   7.317  0.00  0.00    +0.000 A 
ATOM     16  C   UNL     1      47.370   2.288   6.499  0.00  0.00    +0.000 A 
ATOM     17  C   UNL     1      46.716   3.506   6.677  0.00  0.00    +0.000 A 
ATOM     18  C   UNL     1      45.758   3.646   7.680  0.00  0.00    +0.000 A 
ENDBRANCH  12  13
ENDBRANCH  10  12
ENDBRANCH   7  10
ENDBRANCH   1   7
BRANCH   4  19
ATOM     19  C   UNL     1      48.703   7.566  13.535  0.00  0.00    +0.000 C 
BRANCH  19  20
ATOM     20  N   UNL     1      49.162   8.459  12.499  0.00  0.00    +0.000 N 
ATOM     21  C   UNL     1      50.310   9.196  12.621  0.00  0.00    +0.000 C 
ATOM     22  O   UNL     1      51.011   9.161  13.632  0.00  0.00    +0.000 OA
ATOM     23  H   UNL     1      48.511   8.664  11.748  0.00  0.00    +0.000 HD
BRANCH  21  24
ATOM     24  C   UNL     1      50.713   9.986  11.453  0.00  0.00    +0.000 A 
ATOM     25  C   UNL     1      50.075  11.190  11.188  0.00  0.00    +0.000 A 
ATOM     26  S   UNL     1      50.668  11.995   9.806  0.00  0.00    +0.000 S 
ATOM     27  C   UNL     1      51.777  10.745   9.492  0.00  0.00    +0.000 A 
ATOM     28  N   UNL     1      52.587  10.790   8.398  0.00  0.00    +0.000 NA
ATOM     29  C   UNL     1      53.356   9.765   8.264  0.00  0.00    +0.000 A 
ATOM     30  N   UNL     1      53.407   8.703   9.135  0.00  0.00    +0.000 N 
ATOM     31  C   UNL     1      52.649   8.646  10.281  0.00  0.00    +0.000 A 
ATOM     32  O   UNL     1      52.797   7.735  11.093  0.00  0.00    +0.000 OA
ATOM     33  C   UNL     1      51.724   9.749  10.449  0.00  0.00    +0.000 A 
ATOM     34  H   UNL     1      54.054   7.948   8.987  0.00  0.00    +0.000 HD
ENDBRANCH  21  24
ENDBRANCH  19  20
ENDBRANCH   4  19
TORSDOF 8
ENDMDL
MODEL 7
REMARK VINA RESULT:    -7.384      3.508      8.607
REMARK INTER + INTRA:         -12.138
REMARK INTER:                 -10.078
REMARK INTRA:                  -2.060
REMARK UNBOUND:                -1.301
REMARK  Name = 
REMARK  9 active torsions:
REMARK  status: ('A' for Active; 'I' for Inactive)
REMARK    1  A    between atoms: C_1  and  C_2
REMARK    2  A    between atoms: C_2  and  C_3
REMARK    3  A    between atoms: C_3  and  N_4
REMARK    4  A    between atoms: C_3  and  C_12
REMARK    5  A    between atoms: N_4  and  C_5
REMARK    6  A    between atoms: C_5  and  C_6
REMARK    7  A    between atoms: C_15  and  C_16
REMARK    8  A    between atoms: C_16  and  N_17
REMARK    9  A    between atoms: C_18  and  C_20
REMARK                            x       y       z     vdW  Elec       q    Type
REMARK                         _______ _______ _______ _____ _____    ______ ____
ROOT
ATOM      1  C   UNL     1      48.722   7.931  16.450  0.00  0.00    +0.000 A 
ATOM      2  C   UNL     1      49.295   6.907  15.671  0.00  0.00    +0.000 A 
ATOM      3  C   UNL     1      49.198   6.918  14.276  0.00  0.00    +0.000 A 
ATOM      4  C   UNL     1      48.584   7.989  13.619  0.00  0.00    +0.000 A 
ATOM      5  C   UNL     1      48.042   9.027  14.384  0.00  0.00    +0.000 A 
ATOM      6  C   UNL     1      48.100   8.992  15.776  0.00  0.00    +0.000 A 
ENDROOT
BRANCH   1   7
ATOM      7  C   UNL     1      48.690   7.802  17.979  0.00  0.00    +0.000 C 
BRANCH   7   9
ATOM      8  C   UNL     1      47.517   9.656  19.420  0.00  0.00    +0.000 C 
ATOM      9  C   UNL     1      48.756   9.202  18.659  0.00  0.00    +0.000 C 
ENDBRANCH   7   9
BRANCH   7  10
ATOM     10  N   UNL     1      47.506   7.044  18.436  0.00  0.00    +0.000 NA
ATOM     11  H   UNL     1      46.965   6.760  17.622  0.00  0.00    +0.000 HD
BRANCH  10  12
ATOM     12  C   UNL     1      47.852   5.835  19.195  0.00  0.00    +0.000 C 
BRANCH  12  13
ATOM     13  C   UNL     1      48.173   4.658  18.305  0.00  0.00    +0.000 A 
ATOM     14  C   UNL     1      47.291   4.264  17.285  0.00  0.00    +0.000 A 
ATOM     15  C   UNL     1      47.609   3.192  16.448  0.00  0.00    +0.000 A 
ATOM     16  C   UNL     1      48.811   2.512  16.622  0.00  0.00    +0.000 A 
ATOM     17  C   UNL     1      49.697   2.902  17.625  0.00  0.00    +0.000 A 
ATOM     18  C   UNL     1      49.381   3.970  18.462  0.00  0.00    +0.000 A 
ENDBRANCH  12  13
ENDBRANCH  10  12
ENDBRANCH   7  10
ENDBRANCH   1   7
BRANCH   4  19
ATOM     19  C   UNL     1      48.478   8.039  12.121  0.00  0.00    +0.000 C 
BRANCH  19  20
ATOM     20  N   UNL     1      47.731   6.924  11.593  0.00  0.00    +0.000 N 
ATOM     21  C   UNL     1      46.361   6.910  11.556  0.00  0.00    +0.000 C 
ATOM     22  O   UNL     1      45.681   7.837  11.991  0.00  0.00    +0.000 OA
ATOM     23  H   UNL     1      48.247   6.068  11.416  0.00  0.00    +0.000 HD
BRANCH  21  24
ATOM     24  C   UNL     1      45.732   5.757  10.902  0.00  0.00    +0.000 A 
ATOM     25  C   UNL     1      45.864   5.590   9.531  0.00  0.00    +0.000 A 
ATOM     26  S   UNL     1      45.091   4.195   8.927  0.00  0.00    +0.000 S 
ATOM     27  C   UNL     1      44.521   3.781  10.475  0.00  0.00    +0.000 A 
ATOM     28  N   UNL     1      43.733   2.686  10.657  0.00  0.00    +0.000 NA
ATOM     29  C   UNL     1      43.346   2.506  11.873  0.00  0.00    +0.000 A 
ATOM     30  N   UNL     1      43.690   3.310  12.933  0.00  0.00    +0.000 N 
ATOM     31  C   UNL     1      44.530   4.391  12.802  0.00  0.00    +0.000 A 
ATOM     32  O   UNL     1      44.905   5.024  13.787  0.00  0.00    +0.000 OA
ATOM     33  C   UNL     1      44.948   4.671  11.443  0.00  0.00    +0.000 A 
ATOM     34  H   UNL     1      43.378   3.095  13.864  0.00  0.00    +0.000 HD
ENDBRANCH  21  24
ENDBRANCH  19  20
ENDBRANCH   4  19
TORSDOF 8
ENDMDL
MODEL 8
REMARK VINA RESULT:    -7.287      1.963      3.233
REMARK INTER + INTRA:         -11.996
REMARK INTER:                 -10.662
REMARK INTRA:                  -1.334
REMARK UNBOUND:                -1.301
REMARK  Name = 
REMARK  9 active torsions:
REMARK  status: ('A' for Active; 'I' for Inactive)
REMARK    1  A    between atoms: C_1  and  C_2
REMARK    2  A    between atoms: C_2  and  C_3
REMARK    3  A    between atoms: C_3  and  N_4
REMARK    4  A    between atoms: C_3  and  C_12
REMARK    5  A    between atoms: N_4  and  C_5
REMARK    6  A    between atoms: C_5  and  C_6
REMARK    7  A    between atoms: C_15  and  C_16
REMARK    8  A    between atoms: C_16  and  N_17
REMARK    9  A    between atoms: C_18  and  C_20
REMARK                            x       y       z     vdW  Elec       q    Type
REMARK                         _______ _______ _______ _____ _____    ______ ____
ROOT
ATOM      1  C   UNL     1      45.523   5.157  12.161  0.00  0.00    +0.000 A 
ATOM      2  C   UNL     1      46.121   4.799  13.385  0.00  0.00    +0.000 A 
ATOM      3  C   UNL     1      47.280   5.438  13.839  0.00  0.00    +0.000 A 
ATOM      4  C   UNL     1      47.832   6.498  13.113  0.00  0.00    +0.000 A 
ATOM      5  C   UNL     1      47.224   6.882  11.913  0.00  0.00    +0.000 A 
ATOM      6  C   UNL     1      46.095   6.214  11.440  0.00  0.00    +0.000 A 
ENDROOT
BRANCH   1   7
ATOM      7  C   UNL     1      44.360   4.323  11.607  0.00  0.00    +0.000 C 
BRANCH   7   9
ATOM      8  C   UNL     1      42.093   5.636  11.773  0.00  0.00    +0.000 C 
ATOM      9  C   UNL     1      43.294   5.233  10.927  0.00  0.00    +0.000 C 
ENDBRANCH   7   9
BRANCH   7  10
ATOM     10  N   UNL     1      44.837   3.276  10.677  0.00  0.00    +0.000 NA
ATOM     11  H   UNL     1      44.390   2.396  10.919  0.00  0.00    +0.000 HD
BRANCH  10  12
ATOM     12  C   UNL     1      44.528   3.571   9.271  0.00  0.00    +0.000 C 
BRANCH  12  13
ATOM     13  C   UNL     1      45.495   2.920   8.312  0.00  0.00    +0.000 A 
ATOM     14  C   UNL     1      46.071   3.653   7.261  0.00  0.00    +0.000 A 
ATOM     15  C   UNL     1      46.987   3.049   6.395  0.00  0.00    +0.000 A 
ATOM     16  C   UNL     1      47.336   1.714   6.578  0.00  0.00    +0.000 A 
ATOM     17  C   UNL     1      46.777   0.982   7.624  0.00  0.00    +0.000 A 
ATOM     18  C   UNL     1      45.862   1.581   8.487  0.00  0.00    +0.000 A 
ENDBRANCH  12  13
ENDBRANCH  10  12
ENDBRANCH   7  10
ENDBRANCH   1   7
BRANCH   4  19
ATOM     19  C   UNL     1      49.067   7.215  13.580  0.00  0.00    +0.000 C 
BRANCH  19  20
ATOM     20  N   UNL     1      48.914   7.745  14.913  0.00  0.00    +0.000 N 
ATOM     21  C   UNL     1      49.520   7.177  16.003  0.00  0.00    +0.000 C 
ATOM     22  O   UNL     1      50.214   6.165  15.917  0.00  0.00    +0.000 OA
ATOM     23  H   UNL     1      48.194   8.447  15.049  0.00  0.00    +0.000 HD
BRANCH  21  24
ATOM     24  C   UNL     1      49.361   7.875  17.283  0.00  0.00    +0.000 A 
ATOM     25  C   UNL     1      48.965   7.163  18.407  0.00  0.00    +0.000 A 
ATOM     26  S   UNL     1      48.842   8.113  19.818  0.00  0.00    +0.000 S 
ATOM     27  C   UNL     1      49.280   9.520  18.969  0.00  0.00    +0.000 A 
ATOM     28  N   UNL     1      49.325  10.727  19.596  0.00  0.00    +0.000 NA
ATOM     29  C   UNL     1      49.641  11.714  18.829  0.00  0.00    +0.000 A 
ATOM     30  N   UNL     1      49.936  11.604  17.491  0.00  0.00    +0.000 N 
ATOM     31  C   UNL     1      49.959  10.397  16.833  0.00  0.00    +0.000 A 
ATOM     32  O   UNL     1      50.333  10.320  15.665  0.00  0.00    +0.000 OA
ATOM     33  C   UNL     1      49.555   9.261  17.638  0.00  0.00    +0.000 A 
ATOM     34  H   UNL     1      50.205  12.411  16.956  0.00  0.00    +0.000 HD
ENDBRANCH  21  24
ENDBRANCH  19  20
ENDBRANCH   4  19
TORSDOF 8
ENDMDL
MODEL 9
REMARK VINA RESULT:    -7.223      3.271      9.180
REMARK INTER + INTRA:         -11.903
REMARK INTER:                  -9.831
REMARK INTRA:                  -2.072
REMARK UNBOUND:                -1.301
REMARK  Name = 
REMARK  9 active torsions:
REMARK  status: ('A' for Active; 'I' for Inactive)
REMARK    1  A    between atoms: C_1  and  C_2
REMARK    2  A    between atoms: C_2  and  C_3
REMARK    3  A    between atoms: C_3  and  N_4
REMARK    4  A    between atoms: C_3  and  C_12
REMARK    5  A    between atoms: N_4  and  C_5
REMARK    6  A    between atoms: C_5  and  C_6
REMARK    7  A    between atoms: C_15  and  C_16
REMARK    8  A    between atoms: C_16  and  N_17
REMARK    9  A    between atoms: C_18  and  C_20
REMARK                            x       y       z     vdW  Elec       q    Type
REMARK                         _______ _______ _______ _____ _____    ______ ____
ROOT
ATOM      1  C   UNL     1      48.747   8.062  16.305  0.00  0.00    +0.000 A 
ATOM      2  C   UNL     1      49.112   6.893  15.608  0.00  0.00    +0.000 A 
ATOM      3  C   UNL     1      48.760   6.711  14.266  0.00  0.00    +0.000 A 
ATOM      4  C   UNL     1      48.093   7.723  13.567  0.00  0.00    +0.000 A 
ATOM      5  C   UNL     1      47.758   8.900  14.243  0.00  0.00    +0.000 A 
ATOM      6  C   UNL     1      48.069   9.061  15.593  0.00  0.00    +0.000 A 
ENDROOT
BRANCH   1   7
ATOM      7  C   UNL     1      48.991   8.156  17.817  0.00  0.00    +0.000 C 
BRANCH   7   9
ATOM      8  C   UNL     1      48.015  10.216  19.120  0.00  0.00    +0.000 C 
ATOM      9  C   UNL     1      49.138   9.641  18.267  0.00  0.00    +0.000 C 
ENDBRANCH   7   9
BRANCH   7  10
ATOM     10  N   UNL     1      47.928   7.472  18.583  0.00  0.00    +0.000 NA
ATOM     11  H   UNL     1      47.214   7.149  17.935  0.00  0.00    +0.000 HD
BRANCH  10  12
ATOM     12  C   UNL     1      48.417   6.309  19.335  0.00  0.00    +0.000 C 
BRANCH  12  13
ATOM     13  C   UNL     1      48.441   5.046  18.508  0.00  0.00    +0.000 A 
ATOM     14  C   UNL     1      47.287   4.598  17.843  0.00  0.00    +0.000 A 
ATOM     15  C   UNL     1      47.326   3.444  17.056  0.00  0.00    +0.000 A 
ATOM     16  C   UNL     1      48.517   2.735  16.925  0.00  0.00    +0.000 A 
ATOM     17  C   UNL     1      49.669   3.177  17.573  0.00  0.00    +0.000 A 
ATOM     18  C   UNL     1      49.633   4.327  18.360  0.00  0.00    +0.000 A 
ENDBRANCH  12  13
ENDBRANCH  10  12
ENDBRANCH   7  10
ENDBRANCH   1   7
BRANCH   4  19
ATOM     19  C   UNL     1      47.716   7.565  12.121  0.00  0.00    +0.000 C 
BRANCH  19  20
ATOM     20  N   UNL     1      46.975   6.350  11.884  0.00  0.00    +0.000 N 
ATOM     21  C   UNL     1      45.607   6.301  11.945  0.00  0.00    +0.000 C 
ATOM     22  O   UNL     1      44.925   7.285  12.228  0.00  0.00    +0.000 OA
ATOM     23  H   UNL     1      47.507   5.487  11.849  0.00  0.00    +0.000 HD
BRANCH  21  24
ATOM     24  C   UNL     1      44.977   5.027  11.584  0.00  0.00    +0.000 A 
ATOM     25  C   UNL     1      44.228   4.341  12.530  0.00  0.00    +0.000 A 
ATOM     26  S   UNL     1      43.550   2.887  11.952  0.00  0.00    +0.000 S 
ATOM     27  C   UNL     1      44.262   3.104  10.423  0.00  0.00    +0.000 A 
ATOM     28  N   UNL     1      44.110   2.171   9.444  0.00  0.00    +0.000 NA
ATOM     29  C   UNL     1      44.728   2.446   8.347  0.00  0.00    +0.000 A 
ATOM     30  N   UNL     1      45.471   3.581   8.128  0.00  0.00    +0.000 N 
ATOM     31  C   UNL     1      45.603   4.574   9.070  0.00  0.00    +0.000 A 
ATOM     32  O   UNL     1      46.183   5.624   8.804  0.00  0.00    +0.000 OA
ATOM     33  C   UNL     1      44.974   4.288  10.343  0.00  0.00    +0.000 A 
ATOM     34  H   UNL     1      45.903   3.748   7.236  0.00  0.00    +0.000 HD
ENDBRANCH  21  24
ENDBRANCH  19  20
ENDBRANCH   4  19
TORSDOF 8
ENDMDL
