MODEL 1
REMARK VINA RESULT:    -7.866      0.000      0.000
REMARK INTER + INTRA:         -11.577
REMARK INTER:                 -10.855
REMARK INTRA:                  -0.721
REMARK UNBOUND:                -0.721
REMARK  Name = 
REMARK  7 active torsions:
REMARK  status: ('A' for Active; 'I' for Inactive)
REMARK    1  A    between atoms: N_1  and  C_2
REMARK    2  A    between atoms: C_2  and  C_3
REMARK    3  A    between atoms: C_7  and  C_8
REMARK    4  A    between atoms: C_8  and  C_9
REMARK    5  A    between atoms: C_9  and  C_10
REMARK    6  A    between atoms: C_10  and  C_11
REMARK    7  A    between atoms: C_14  and  C_15
REMARK                            x       y       z     vdW  Elec       q    Type
REMARK                         _______ _______ _______ _____ _____    ______ ____
ROOT
ATOM      1  C   UNL     1      43.321   3.752  11.457  0.00  0.00    +0.000 C 
ENDROOT
BRANCH   1   2
ATOM      2  C   UNL     1      43.382   4.647  12.694  0.00  0.00    +0.000 C 
BRANCH   2   7
ATOM      3  C   UNL     1      46.025   7.405  12.890  0.00  0.00    +0.000 A 
ATOM      4  C   UNL     1      47.143   6.665  13.298  0.00  0.00    +0.000 A 
ATOM      5  C   UNL     1      47.059   5.283  13.462  0.00  0.00    +0.000 A 
ATOM      6  C   UNL     1      45.848   4.625  13.248  0.00  0.00    +0.000 A 
ATOM      7  C   UNL     1      44.711   5.343  12.858  0.00  0.00    +0.000 A 
ATOM      8  C   UNL     1      44.816   6.729  12.660  0.00  0.00    +0.000 A 
BRANCH   3   9
ATOM      9  C   UNL     1      46.094   8.908  12.781  0.00  0.00    +0.000 C 
BRANCH   9  10
ATOM     10  N   UNL     1      44.774   9.529  12.800  0.00  0.00    +0.000 NA
ATOM     11  H   UNL     1      44.458   9.668  11.842  0.00  0.00    +0.000 HD
ATOM     12  H   UNL     1      44.858  10.456  13.213  0.00  0.00    +0.000 HD
ENDBRANCH   9  10
ENDBRANCH   3   9
ENDBRANCH   2   7
ENDBRANCH   1   2
BRANCH   1  13
ATOM     13  C   UNL     1      43.648   4.553  10.192  0.00  0.00    +0.000 C 
BRANCH  13  14
ATOM     14  C   UNL     1      44.613   3.809   9.304  0.00  0.00    +0.000 A 
ATOM     15  C   UNL     1      44.760   2.430   9.418  0.00  0.00    +0.000 A 
ATOM     16  C   UNL     1      45.691   1.784   8.606  0.00  0.00    +0.000 A 
ATOM     17  C   UNL     1      46.458   2.522   7.701  0.00  0.00    +0.000 A 
ATOM     18  C   UNL     1      46.241   3.890   7.657  0.00  0.00    +0.000 A 
ATOM     19  N   UNL     1      45.343   4.547   8.434  0.00  0.00    +0.000 NA
BRANCH  17  20
ATOM     20  C   UNL     1      47.449   1.812   6.854  0.00  0.00    +0.000 C 
ATOM     21  N   UNL     1      48.537   2.495   6.386  0.00  0.00    +0.000 N 
ATOM     22  O   UNL     1      47.307   0.628   6.573  0.00  0.00    +0.000 OA
ATOM     23  H   UNL     1      48.758   3.461   6.565  0.00  0.00    +0.000 HD
ATOM     24  H   UNL     1      49.189   1.965   5.820  0.00  0.00    +0.000 HD
ENDBRANCH  17  20
ENDBRANCH  13  14
ENDBRANCH   1  13
TORSDOF 7
ENDMDL
MODEL 2
REMARK VINA RESULT:    -7.780      2.010      2.580
REMARK INTER + INTRA:         -11.458
REMARK INTER:                 -10.441
REMARK INTRA:                  -1.018
REMARK UNBOUND:                -0.721
REMARK  Name = 
REMARK  7 active torsions:
REMARK  status: ('A' for Active; 'I' for Inactive)
REMARK    1  A    between atoms: N_1  and  C_2
REMARK    2  A    between atoms: C_2  and  C_3
REMARK    3  A    between atoms: C_7  and  C_8
REMARK    4  A    between atoms: C_8  and  C_9
REMARK    5  A    between atoms: C_9  and  C_10
REMARK    6  A    between atoms: C_10  and  C_11
REMARK    7  A    between atoms: C_14  and  C_15
REMARK                            x       y       z     vdW  Elec       q    Type
REMARK                         _______ _______ _______ _____ _____    ______ ____
ROOT
ATOM      1  C   UNL     1      43.347   5.042  10.639  0.00  0.00    +0.000 C 
ENDROOT
BRANCH   1   2
ATOM      2  C   UNL     1      43.557   5.697  12.004  0.00  0.00    +0.000 C 
BRANCH   2   7
ATOM      3  C   UNL     1      46.920   5.352  13.793  0.00  0.00    +0.000 A 
ATOM      4  C   UNL     1      47.745   6.102  12.944  0.00  0.00    +0.000 A 
ATOM      5  C   UNL     1      47.214   6.752  11.831  0.00  0.00    +0.000 A 
ATOM      6  C   UNL     1      45.855   6.639  11.536  0.00  0.00    +0.000 A 
ATOM      7  C   UNL     1      45.013   5.881  12.357  0.00  0.00    +0.000 A 
ATOM      8  C   UNL     1      45.550   5.261  13.496  0.00  0.00    +0.000 A 
BRANCH   3   9
ATOM      9  C   UNL     1      47.504   4.588  14.956  0.00  0.00    +0.000 C 
BRANCH   9  10
ATOM     10  N   UNL     1      47.474   3.146  14.746  0.00  0.00    +0.000 NA
ATOM     11  H   UNL     1      46.594   2.776  15.100  0.00  0.00    +0.000 HD
ATOM     12  H   UNL     1      48.210   2.721  15.307  0.00  0.00    +0.000 HD
ENDBRANCH   9  10
ENDBRANCH   3   9
ENDBRANCH   2   7
ENDBRANCH   1   2
BRANCH   1  13
ATOM     13  C   UNL     1      43.796   3.577  10.668  0.00  0.00    +0.000 C 
BRANCH  13  14
ATOM     14  C   UNL     1      44.781   3.282   9.566  0.00  0.00    +0.000 A 
ATOM     15  C   UNL     1      45.280   4.309   8.769  0.00  0.00    +0.000 A 
ATOM     16  C   UNL     1      46.158   3.991   7.735  0.00  0.00    +0.000 A 
ATOM     17  C   UNL     1      46.520   2.660   7.512  0.00  0.00    +0.000 A 
ATOM     18  C   UNL     1      45.975   1.706   8.356  0.00  0.00    +0.000 A 
ATOM     19  N   UNL     1      45.117   1.985   9.371  0.00  0.00    +0.000 NA
BRANCH  17  20
ATOM     20  C   UNL     1      47.451   2.346   6.398  0.00  0.00    +0.000 C 
ATOM     21  N   UNL     1      47.406   3.099   5.258  0.00  0.00    +0.000 N 
ATOM     22  O   UNL     1      48.256   1.427   6.488  0.00  0.00    +0.000 OA
ATOM     23  H   UNL     1      46.795   3.882   5.084  0.00  0.00    +0.000 HD
ATOM     24  H   UNL     1      48.066   2.852   4.532  0.00  0.00    +0.000 HD
ENDBRANCH  17  20
ENDBRANCH  13  14
ENDBRANCH   1  13
TORSDOF 7
ENDMDL
MODEL 3
REMARK VINA RESULT:    -7.553      2.680      6.683
REMARK INTER + INTRA:         -11.144
REMARK INTER:                 -10.260
REMARK INTRA:                  -0.884
REMARK UNBOUND:                -0.721
REMARK  Name = 
REMARK  7 active torsions:
REMARK  status: ('A' for Active; 'I' for Inactive)
REMARK    1  A    between atoms: N_1  and  C_2
REMARK    2  A    between atoms: C_2  and  C_3
REMARK    3  A    between atoms: C_7  and  C_8
REMARK    4  A    between atoms: C_8  and  C_9
REMARK    5  A    between atoms: C_9  and  C_10
REMARK    6  A    between atoms: C_10  and  C_11
REMARK    7  A    between atoms: C_14  and  C_15
REMARK                            x       y       z     vdW  Elec       q    Type
REMARK                         _______ _______ _______ _____ _____    ______ ____
ROOT
ATOM      1  C   UNL     1      43.318   3.689  11.046  0.00  0.00    +0.000 C 
ENDROOT
BRANCH   1   2
ATOM      2  C   UNL     1      44.032   2.506  10.395  0.00  0.00    +0.000 C 
BRANCH   2   7
ATOM      3  C   UNL     1      46.598   2.318   7.565  0.00  0.00    +0.000 A 
ATOM      4  C   UNL     1      46.770   3.679   7.278  0.00  0.00    +0.000 A 
ATOM      5  C   UNL     1      46.101   4.651   8.021  0.00  0.00    +0.000 A 
ATOM      6  C   UNL     1      45.230   4.274   9.043  0.00  0.00    +0.000 A 
ATOM      7  C   UNL     1      45.026   2.921   9.338  0.00  0.00    +0.000 A 
ATOM      8  C   UNL     1      45.733   1.952   8.608  0.00  0.00    +0.000 A 
BRANCH   3   9
ATOM      9  C   UNL     1      47.265   1.263   6.717  0.00  0.00    +0.000 C 
BRANCH   9  10
ATOM     10  N   UNL     1      48.431   1.775   6.007  0.00  0.00    +0.000 NA
ATOM     11  H   UNL     1      48.188   1.924   5.029  0.00  0.00    +0.000 HD
ATOM     12  H   UNL     1      49.156   1.059   6.016  0.00  0.00    +0.000 HD
ENDBRANCH   9  10
ENDBRANCH   3   9
ENDBRANCH   2   7
ENDBRANCH   1   2
BRANCH   1  13
ATOM     13  C   UNL     1      43.534   3.684  12.563  0.00  0.00    +0.000 C 
BRANCH  13  14
ATOM     14  C   UNL     1      44.738   4.505  12.950  0.00  0.00    +0.000 A 
ATOM     15  C   UNL     1      44.840   5.837  12.560  0.00  0.00    +0.000 A 
ATOM     16  C   UNL     1      45.986   6.552  12.904  0.00  0.00    +0.000 A 
ATOM     17  C   UNL     1      47.008   5.927  13.625  0.00  0.00    +0.000 A 
ATOM     18  C   UNL     1      46.817   4.599  13.971  0.00  0.00    +0.000 A 
ATOM     19  N   UNL     1      45.713   3.877  13.650  0.00  0.00    +0.000 NA
BRANCH  17  20
ATOM     20  C   UNL     1      48.223   6.707  13.972  0.00  0.00    +0.000 C 
ATOM     21  N   UNL     1      48.178   7.580  15.023  0.00  0.00    +0.000 N 
ATOM     22  O   UNL     1      49.260   6.578  13.333  0.00  0.00    +0.000 OA
ATOM     23  H   UNL     1      47.385   7.754  15.621  0.00  0.00    +0.000 HD
ATOM     24  H   UNL     1      49.034   8.081  15.226  0.00  0.00    +0.000 HD
ENDBRANCH  17  20
ENDBRANCH  13  14
ENDBRANCH   1  13
TORSDOF 7
ENDMDL
MODEL 4
REMARK VINA RESULT:    -7.079      1.439      1.944
REMARK INTER + INTRA:         -10.490
REMARK INTER:                 -10.165
REMARK INTRA:                  -0.325
REMARK UNBOUND:                -0.721
REMARK  Name = 
REMARK  7 active torsions:
REMARK  status: ('A' for Active; 'I' for Inactive)
REMARK    1  A    between atoms: N_1  and  C_2
REMARK    2  A    between atoms: C_2  and  C_3
REMARK    3  A    between atoms: C_7  and  C_8
REMARK    4  A    between atoms: C_8  and  C_9
REMARK    5  A    between atoms: C_9  and  C_10
REMARK    6  A    between atoms: C_10  and  C_11
REMARK    7  A    between atoms: C_14  and  C_15
REMARK                            x       y       z     vdW  Elec       q    Type
REMARK                         _______ _______ _______ _____ _____    ______ ____
ROOT
ATOM      1  C   UNL     1      43.728   4.113  11.591  0.00  0.00    +0.000 C 
ENDROOT
BRANCH   1   2
ATOM      2  C   UNL     1      45.150   4.133  12.149  0.00  0.00    +0.000 C 
BRANCH   2   7
ATOM      3  C   UNL     1      47.392   7.005  13.315  0.00  0.00    +0.000 A 
ATOM      4  C   UNL     1      46.527   8.095  13.147  0.00  0.00    +0.000 A 
ATOM      5  C   UNL     1      45.218   7.902  12.707  0.00  0.00    +0.000 A 
ATOM      6  C   UNL     1      44.764   6.618  12.403  0.00  0.00    +0.000 A 
ATOM      7  C   UNL     1      45.614   5.514  12.544  0.00  0.00    +0.000 A 
ATOM      8  C   UNL     1      46.917   5.716  13.023  0.00  0.00    +0.000 A 
BRANCH   3   9
ATOM      9  C   UNL     1      48.829   7.219  13.722  0.00  0.00    +0.000 C 
BRANCH   9  10
ATOM     10  N   UNL     1      49.768   6.795  12.689  0.00  0.00    +0.000 NA
ATOM     11  H   UNL     1      50.165   5.894  12.949  0.00  0.00    +0.000 HD
ATOM     12  H   UNL     1      50.543   7.455  12.666  0.00  0.00    +0.000 HD
ENDBRANCH   9  10
ENDBRANCH   3   9
ENDBRANCH   2   7
ENDBRANCH   1   2
BRANCH   1  13
ATOM     13  C   UNL     1      43.704   4.636  10.152  0.00  0.00    +0.000 C 
BRANCH  13  14
ATOM     14  C   UNL     1      44.664   3.875   9.273  0.00  0.00    +0.000 A 
ATOM     15  C   UNL     1      44.707   2.484   9.314  0.00  0.00    +0.000 A 
ATOM     16  C   UNL     1      45.636   1.817   8.515  0.00  0.00    +0.000 A 
ATOM     17  C   UNL     1      46.502   2.546   7.696  0.00  0.00    +0.000 A 
ATOM     18  C   UNL     1      46.384   3.926   7.721  0.00  0.00    +0.000 A 
ATOM     19  N   UNL     1      45.491   4.604   8.487  0.00  0.00    +0.000 NA
BRANCH  17  20
ATOM     20  C   UNL     1      47.488   1.813   6.862  0.00  0.00    +0.000 C 
ATOM     21  N   UNL     1      48.573   2.483   6.369  0.00  0.00    +0.000 N 
ATOM     22  O   UNL     1      47.344   0.622   6.613  0.00  0.00    +0.000 OA
ATOM     23  H   UNL     1      48.795   3.454   6.521  0.00  0.00    +0.000 HD
ATOM     24  H   UNL     1      49.221   1.938   5.814  0.00  0.00    +0.000 HD
ENDBRANCH  17  20
ENDBRANCH  13  14
ENDBRANCH   1  13
TORSDOF 7
ENDMDL
MODEL 5
REMARK VINA RESULT:    -6.659      2.734      6.740
REMARK INTER + INTRA:          -9.911
REMARK INTER:                  -9.285
REMARK INTRA:                  -0.626
REMARK UNBOUND:                -0.721
REMARK  Name = 
REMARK  7 active torsions:
REMARK  status: ('A' for Active; 'I' for Inactive)
REMARK    1  A    between atoms: N_1  and  C_2
REMARK    2  A    between atoms: C_2  and  C_3
REMARK    3  A    between atoms: C_7  and  C_8
REMARK    4  A    between atoms: C_8  and  C_9
REMARK    5  A    between atoms: C_9  and  C_10
REMARK    6  A    between atoms: C_10  and  C_11
REMARK    7  A    between atoms: C_14  and  C_15
REMARK                            x       y       z     vdW  Elec       q    Type
REMARK                         _______ _______ _______ _____ _____    ______ ____
ROOT
ATOM      1  C   UNL     1      43.611   4.083  10.179  0.00  0.00    +0.000 C 
ENDROOT
BRANCH   1   2
ATOM      2  C   UNL     1      44.388   4.379   8.896  0.00  0.00    +0.000 C 
BRANCH   2   7
ATOM      3  C   UNL     1      47.167   2.352   7.223  0.00  0.00    +0.000 A 
ATOM      4  C   UNL     1      46.837   1.057   7.648  0.00  0.00    +0.000 A 
ATOM      5  C   UNL     1      45.703   0.834   8.427  0.00  0.00    +0.000 A 
ATOM      6  C   UNL     1      44.898   1.904   8.816  0.00  0.00    +0.000 A 
ATOM      7  C   UNL     1      45.215   3.209   8.421  0.00  0.00    +0.000 A 
ATOM      8  C   UNL     1      46.338   3.419   7.605  0.00  0.00    +0.000 A 
BRANCH   3   9
ATOM      9  C   UNL     1      48.432   2.606   6.441  0.00  0.00    +0.000 C 
BRANCH   9  10
ATOM     10  N   UNL     1      48.306   2.221   5.040  0.00  0.00    +0.000 NA
ATOM     11  H   UNL     1      48.222   1.208   4.979  0.00  0.00    +0.000 HD
ATOM     12  H   UNL     1      49.169   2.467   4.557  0.00  0.00    +0.000 HD
ENDBRANCH   9  10
ENDBRANCH   3   9
ENDBRANCH   2   7
ENDBRANCH   1   2
BRANCH   1  13
ATOM     13  C   UNL     1      43.492   5.343  11.042  0.00  0.00    +0.000 C 
BRANCH  13  14
ATOM     14  C   UNL     1      44.736   5.565  11.865  0.00  0.00    +0.000 A 
ATOM     15  C   UNL     1      44.979   4.798  13.001  0.00  0.00    +0.000 A 
ATOM     16  C   UNL     1      46.120   5.061  13.757  0.00  0.00    +0.000 A 
ATOM     17  C   UNL     1      46.994   6.080  13.371  0.00  0.00    +0.000 A 
ATOM     18  C   UNL     1      46.671   6.789  12.225  0.00  0.00    +0.000 A 
ATOM     19  N   UNL     1      45.568   6.557  11.468  0.00  0.00    +0.000 NA
BRANCH  17  20
ATOM     20  C   UNL     1      48.198   6.346  14.198  0.00  0.00    +0.000 C 
ATOM     21  N   UNL     1      48.128   6.174  15.553  0.00  0.00    +0.000 N 
ATOM     22  O   UNL     1      49.249   6.712  13.685  0.00  0.00    +0.000 OA
ATOM     23  H   UNL     1      47.323   5.865  16.075  0.00  0.00    +0.000 HD
ATOM     24  H   UNL     1      48.978   6.359  16.072  0.00  0.00    +0.000 HD
ENDBRANCH  17  20
ENDBRANCH  13  14
ENDBRANCH   1  13
TORSDOF 7
ENDMDL
MODEL 6
REMARK VINA RESULT:    -6.209      3.995      7.395
REMARK INTER + INTRA:          -9.289
REMARK INTER:                  -8.526
REMARK INTRA:                  -0.763
REMARK UNBOUND:                -0.721
REMARK  Name = 
REMARK  7 active torsions:
REMARK  status: ('A' for Active; 'I' for Inactive)
REMARK    1  A    between atoms: N_1  and  C_2
REMARK    2  A    between atoms: C_2  and  C_3
REMARK    3  A    between atoms: C_7  and  C_8
REMARK    4  A    between atoms: C_8  and  C_9
REMARK    5  A    between atoms: C_9  and  C_10
REMARK    6  A    between atoms: C_10  and  C_11
REMARK    7  A    between atoms: C_14  and  C_15
REMARK                            x       y       z     vdW  Elec       q    Type
REMARK                         _______ _______ _______ _____ _____    ______ ____
ROOT
ATOM      1  C   UNL     1      46.028   6.800  12.585  0.00  0.00    +0.000 C 
ENDROOT
BRANCH   1   2
ATOM      2  C   UNL     1      45.709   6.779  11.090  0.00  0.00    +0.000 C 
BRANCH   2   7
ATOM      3  C   UNL     1      45.320   3.732   8.811  0.00  0.00    +0.000 A 
ATOM      4  C   UNL     1      44.706   2.828   9.687  0.00  0.00    +0.000 A 
ATOM      5  C   UNL     1      44.377   3.211  10.987  0.00  0.00    +0.000 A 
ATOM      6  C   UNL     1      44.683   4.495  11.437  0.00  0.00    +0.000 A 
ATOM      7  C   UNL     1      45.313   5.412  10.587  0.00  0.00    +0.000 A 
ATOM      8  C   UNL     1      45.606   5.029   9.269  0.00  0.00    +0.000 A 
BRANCH   3   9
ATOM      9  C   UNL     1      45.742   3.299   7.428  0.00  0.00    +0.000 C 
BRANCH   9  10
ATOM     10  N   UNL     1      46.730   4.196   6.841  0.00  0.00    +0.000 NA
ATOM     11  H   UNL     1      46.786   5.044   7.403  0.00  0.00    +0.000 HD
ATOM     12  H   UNL     1      46.401   4.483   5.921  0.00  0.00    +0.000 HD
ENDBRANCH   9  10
ENDBRANCH   3   9
ENDBRANCH   2   7
ENDBRANCH   1   2
BRANCH   1  13
ATOM     13  C   UNL     1      47.490   6.413  12.832  0.00  0.00    +0.000 C 
BRANCH  13  14
ATOM     14  C   UNL     1      47.667   5.767  14.182  0.00  0.00    +0.000 A 
ATOM     15  C   UNL     1      46.942   4.628  14.522  0.00  0.00    +0.000 A 
ATOM     16  C   UNL     1      47.105   4.082  15.794  0.00  0.00    +0.000 A 
ATOM     17  C   UNL     1      47.981   4.681  16.703  0.00  0.00    +0.000 A 
ATOM     18  C   UNL     1      48.660   5.811  16.276  0.00  0.00    +0.000 A 
ATOM     19  N   UNL     1      48.523   6.365  15.044  0.00  0.00    +0.000 NA
BRANCH  17  20
ATOM     20  C   UNL     1      48.130   4.086  18.055  0.00  0.00    +0.000 C 
ATOM     21  N   UNL     1      47.706   4.793  19.146  0.00  0.00    +0.000 N 
ATOM     22  O   UNL     1      48.623   2.975  18.206  0.00  0.00    +0.000 OA
ATOM     23  H   UNL     1      47.277   5.705  19.136  0.00  0.00    +0.000 HD
ATOM     24  H   UNL     1      47.820   4.342  20.045  0.00  0.00    +0.000 HD
ENDBRANCH  17  20
ENDBRANCH  13  14
ENDBRANCH   1  13
TORSDOF 7
ENDMDL
MODEL 7
REMARK VINA RESULT:    -6.055      4.069      7.003
REMARK INTER + INTRA:          -9.078
REMARK INTER:                  -8.242
REMARK INTRA:                  -0.836
REMARK UNBOUND:                -0.721
REMARK  Name = 
REMARK  7 active torsions:
REMARK  status: ('A' for Active; 'I' for Inactive)
REMARK    1  A    between atoms: N_1  and  C_2
REMARK    2  A    between atoms: C_2  and  C_3
REMARK    3  A    between atoms: C_7  and  C_8
REMARK    4  A    between atoms: C_8  and  C_9
REMARK    5  A    between atoms: C_9  and  C_10
REMARK    6  A    between atoms: C_10  and  C_11
REMARK    7  A    between atoms: C_14  and  C_15
REMARK                            x       y       z     vdW  Elec       q    Type
REMARK                         _______ _______ _______ _____ _____    ______ ____
ROOT
ATOM      1  C   UNL     1      46.330   7.355  12.665  0.00  0.00    +0.000 C 
ENDROOT
BRANCH   1   2
ATOM      2  C   UNL     1      45.968   7.294  11.181  0.00  0.00    +0.000 C 
BRANCH   2   7
ATOM      3  C   UNL     1      44.224   3.890  11.185  0.00  0.00    +0.000 A 
ATOM      4  C   UNL     1      44.500   3.454   9.882  0.00  0.00    +0.000 A 
ATOM      5  C   UNL     1      45.281   4.229   9.025  0.00  0.00    +0.000 A 
ATOM      6  C   UNL     1      45.773   5.463   9.450  0.00  0.00    +0.000 A 
ATOM      7  C   UNL     1      45.497   5.930  10.741  0.00  0.00    +0.000 A 
ATOM      8  C   UNL     1      44.742   5.125  11.608  0.00  0.00    +0.000 A 
BRANCH   3   9
ATOM      9  C   UNL     1      43.321   3.088  12.090  0.00  0.00    +0.000 C 
BRANCH   9  10
ATOM     10  N   UNL     1      43.170   1.708  11.643  0.00  0.00    +0.000 NA
ATOM     11  H   UNL     1      42.242   1.587  11.243  0.00  0.00    +0.000 HD
ATOM     12  H   UNL     1      43.213   1.097  12.457  0.00  0.00    +0.000 HD
ENDBRANCH   9  10
ENDBRANCH   3   9
ENDBRANCH   2   7
ENDBRANCH   1   2
BRANCH   1  13
ATOM     13  C   UNL     1      47.725   6.771  12.907  0.00  0.00    +0.000 C 
BRANCH  13  14
ATOM     14  C   UNL     1      47.723   5.802  14.062  0.00  0.00    +0.000 A 
ATOM     15  C   UNL     1      47.061   4.582  13.960  0.00  0.00    +0.000 A 
ATOM     16  C   UNL     1      47.049   3.731  15.064  0.00  0.00    +0.000 A 
ATOM     17  C   UNL     1      47.691   4.111  16.245  0.00  0.00    +0.000 A 
ATOM     18  C   UNL     1      48.325   5.343  16.253  0.00  0.00    +0.000 A 
ATOM     19  N   UNL     1      48.354   6.193  15.194  0.00  0.00    +0.000 NA
BRANCH  17  20
ATOM     20  C   UNL     1      47.657   3.190  17.410  0.00  0.00    +0.000 C 
ATOM     21  N   UNL     1      48.786   3.022  18.162  0.00  0.00    +0.000 N 
ATOM     22  O   UNL     1      46.634   2.584  17.706  0.00  0.00    +0.000 OA
ATOM     23  H   UNL     1      49.673   3.478  18.017  0.00  0.00    +0.000 HD
ATOM     24  H   UNL     1      48.709   2.392  18.950  0.00  0.00    +0.000 HD
ENDBRANCH  17  20
ENDBRANCH  13  14
ENDBRANCH   1  13
TORSDOF 7
ENDMDL
MODEL 8
REMARK VINA RESULT:    -5.942      3.952      5.839
REMARK INTER + INTRA:          -8.922
REMARK INTER:                  -8.159
REMARK INTRA:                  -0.763
REMARK UNBOUND:                -0.721
REMARK  Name = 
REMARK  7 active torsions:
REMARK  status: ('A' for Active; 'I' for Inactive)
REMARK    1  A    between atoms: N_1  and  C_2
REMARK    2  A    between atoms: C_2  and  C_3
REMARK    3  A    between atoms: C_7  and  C_8
REMARK    4  A    between atoms: C_8  and  C_9
REMARK    5  A    between atoms: C_9  and  C_10
REMARK    6  A    between atoms: C_10  and  C_11
REMARK    7  A    between atoms: C_14  and  C_15
REMARK                            x       y       z     vdW  Elec       q    Type
REMARK                         _______ _______ _______ _____ _____    ______ ____
ROOT
ATOM      1  C   UNL     1      48.731   6.881  13.883  0.00  0.00    +0.000 C 
ENDROOT
BRANCH   1   2
ATOM      2  C   UNL     1      48.764   7.267  15.361  0.00  0.00    +0.000 C 
BRANCH   2   7
ATOM      3  C   UNL     1      48.920   4.069  17.454  0.00  0.00    +0.000 A 
ATOM      4  C   UNL     1      50.281   4.042  17.787  0.00  0.00    +0.000 A 
ATOM      5  C   UNL     1      51.132   5.069  17.380  0.00  0.00    +0.000 A 
ATOM      6  C   UNL     1      50.639   6.124  16.612  0.00  0.00    +0.000 A 
ATOM      7  C   UNL     1      49.287   6.166  16.251  0.00  0.00    +0.000 A 
ATOM      8  C   UNL     1      48.432   5.146  16.696  0.00  0.00    +0.000 A 
BRANCH   3   9
ATOM      9  C   UNL     1      48.012   2.924  17.831  0.00  0.00    +0.000 C 
BRANCH   9  10
ATOM     10  N   UNL     1      46.614   3.196  17.517  0.00  0.00    +0.000 NA
ATOM     11  H   UNL     1      46.500   3.229  16.506  0.00  0.00    +0.000 HD
ATOM     12  H   UNL     1      46.379   4.125  17.863  0.00  0.00    +0.000 HD
ENDBRANCH   9  10
ENDBRANCH   3   9
ENDBRANCH   2   7
ENDBRANCH   1   2
BRANCH   1  13
ATOM     13  C   UNL     1      47.468   7.426  13.209  0.00  0.00    +0.000 C 
BRANCH  13  14
ATOM     14  C   UNL     1      46.610   6.312  12.667  0.00  0.00    +0.000 A 
ATOM     15  C   UNL     1      46.364   5.173  13.429  0.00  0.00    +0.000 A 
ATOM     16  C   UNL     1      45.598   4.148  12.877  0.00  0.00    +0.000 A 
ATOM     17  C   UNL     1      45.096   4.273  11.579  0.00  0.00    +0.000 A 
ATOM     18  C   UNL     1      45.391   5.442  10.897  0.00  0.00    +0.000 A 
ATOM     19  N   UNL     1      46.134   6.458  11.407  0.00  0.00    +0.000 NA
BRANCH  17  20
ATOM     20  C   UNL     1      44.290   3.162  11.011  0.00  0.00    +0.000 C 
ATOM     21  N   UNL     1      44.858   2.332  10.085  0.00  0.00    +0.000 N 
ATOM     22  O   UNL     1      43.131   2.980  11.361  0.00  0.00    +0.000 OA
ATOM     23  H   UNL     1      45.803   2.383   9.737  0.00  0.00    +0.000 HD
ATOM     24  H   UNL     1      44.272   1.585   9.734  0.00  0.00    +0.000 HD
ENDBRANCH  17  20
ENDBRANCH  13  14
ENDBRANCH   1  13
TORSDOF 7
ENDMDL
MODEL 9
REMARK VINA RESULT:    -5.924      4.101      7.313
REMARK INTER + INTRA:          -8.897
REMARK INTER:                  -8.252
REMARK INTRA:                  -0.645
REMARK UNBOUND:                -0.721
REMARK  Name = 
REMARK  7 active torsions:
REMARK  status: ('A' for Active; 'I' for Inactive)
REMARK    1  A    between atoms: N_1  and  C_2
REMARK    2  A    between atoms: C_2  and  C_3
REMARK    3  A    between atoms: C_7  and  C_8
REMARK    4  A    between atoms: C_8  and  C_9
REMARK    5  A    between atoms: C_9  and  C_10
REMARK    6  A    between atoms: C_10  and  C_11
REMARK    7  A    between atoms: C_14  and  C_15
REMARK                            x       y       z     vdW  Elec       q    Type
REMARK                         _______ _______ _______ _____ _____    ______ ____
ROOT
ATOM      1  C   UNL     1      47.786   6.585  12.304  0.00  0.00    +0.000 C 
ENDROOT
BRANCH   1   2
ATOM      2  C   UNL     1      46.394   7.179  12.091  0.00  0.00    +0.000 C 
BRANCH   2   7
ATOM      3  C   UNL     1      44.347   4.326  10.574  0.00  0.00    +0.000 A 
ATOM      4  C   UNL     1      43.426   4.090  11.604  0.00  0.00    +0.000 A 
ATOM      5  C   UNL     1      43.434   4.874  12.757  0.00  0.00    +0.000 A 
ATOM      6  C   UNL     1      44.381   5.887  12.908  0.00  0.00    +0.000 A 
ATOM      7  C   UNL     1      45.324   6.132  11.902  0.00  0.00    +0.000 A 
ATOM      8  C   UNL     1      45.283   5.361  10.730  0.00  0.00    +0.000 A 
BRANCH   3   9
ATOM      9  C   UNL     1      44.387   3.433   9.358  0.00  0.00    +0.000 C 
BRANCH   9  10
ATOM     10  N   UNL     1      44.985   2.134   9.641  0.00  0.00    +0.000 NA
ATOM     11  H   UNL     1      44.248   1.433   9.700  0.00  0.00    +0.000 HD
ATOM     12  H   UNL     1      45.420   2.171  10.561  0.00  0.00    +0.000 HD
ENDBRANCH   9  10
ENDBRANCH   3   9
ENDBRANCH   2   7
ENDBRANCH   1   2
BRANCH   1  13
ATOM     13  C   UNL     1      48.391   7.083  13.619  0.00  0.00    +0.000 C 
BRANCH  13  14
ATOM     14  C   UNL     1      48.154   6.103  14.740  0.00  0.00    +0.000 A 
ATOM     15  C   UNL     1      48.615   6.374  16.025  0.00  0.00    +0.000 A 
ATOM     16  C   UNL     1      48.411   5.425  17.026  0.00  0.00    +0.000 A 
ATOM     17  C   UNL     1      47.757   4.227  16.728  0.00  0.00    +0.000 A 
ATOM     18  C   UNL     1      47.332   4.046  15.422  0.00  0.00    +0.000 A 
ATOM     19  N   UNL     1      47.516   4.950  14.426  0.00  0.00    +0.000 NA
BRANCH  17  20
ATOM     20  C   UNL     1      47.559   3.228  17.810  0.00  0.00    +0.000 C 
ATOM     21  N   UNL     1      48.414   3.223  18.877  0.00  0.00    +0.000 N 
ATOM     22  O   UNL     1      46.644   2.416  17.760  0.00  0.00    +0.000 OA
ATOM     23  H   UNL     1      49.188   3.851  19.025  0.00  0.00    +0.000 HD
ATOM     24  H   UNL     1      48.232   2.530  19.592  0.00  0.00    +0.000 HD
ENDBRANCH  17  20
ENDBRANCH  13  14
ENDBRANCH   1  13
TORSDOF 7
ENDMDL
