MODEL 1
REMARK VINA RESULT:    -8.382      0.000      0.000
REMARK INTER + INTRA:         -11.602
REMARK INTER:                 -10.832
REMARK INTRA:                  -0.770
REMARK UNBOUND:                -0.770
REMARK  Name = 
REMARK  5 active torsions:
REMARK  status: ('A' for Active; 'I' for Inactive)
REMARK    1  A    between atoms: C_2  and  C_4
REMARK    2  A    between atoms: C_8  and  O_9
REMARK    3  A    between atoms: O_9  and  C_10
REMARK    4  A    between atoms: C_10  and  C_11
REMARK    5  A    between atoms: C_16  and  N_17
REMARK                            x       y       z     vdW  Elec       q    Type
REMARK                         _______ _______ _______ _____ _____    ______ ____
ROOT
ATOM      1  C   UNL     1      43.367   3.800  11.396  0.00  0.00    +0.000 C 
ENDROOT
BRANCH   1   2
ATOM      2  C   UNL     1      44.567   4.298  12.159  0.00  0.00    +0.000 A 
ATOM      3  C   UNL     1      45.393   3.428  12.871  0.00  0.00    +0.000 A 
ATOM      4  C   UNL     1      46.551   3.918  13.466  0.00  0.00    +0.000 A 
ATOM      5  F   UNL     1      47.357   3.071  14.120  0.00  0.00    +0.000 F 
ATOM      6  C   UNL     1      46.916   5.260  13.360  0.00  0.00    +0.000 A 
ATOM      7  C   UNL     1      46.112   6.156  12.651  0.00  0.00    +0.000 A 
ATOM      8  C   UNL     1      44.916   5.656  12.101  0.00  0.00    +0.000 A 
BRANCH   7   9
ATOM      9  N   UNL     1      46.424   7.500  12.449  0.00  0.00    +0.000 N 
ATOM     10  C   UNL     1      45.443   8.544  12.761  0.00  0.00    +0.000 C 
ATOM     11  C   UNL     1      45.805   9.802  11.964  0.00  0.00    +0.000 C 
ATOM     12  C   UNL     1      47.255  10.236  12.193  0.00  0.00    +0.000 C 
ATOM     13  C   UNL     1      48.226   9.074  12.000  0.00  0.00    +0.000 C 
ATOM     14  C   UNL     1      47.802   7.864  12.827  0.00  0.00    +0.000 C 
ENDBRANCH   7   9
ENDBRANCH   1   2
BRANCH   1  15
ATOM     15  O   UNL     1      43.711   2.704  10.553  0.00  0.00    +0.000 OA
BRANCH  15  20
ATOM     16  C   UNL     1      46.241   2.092   8.007  0.00  0.00    +0.000 A 
ATOM     17  C   UNL     1      46.413   3.358   7.438  0.00  0.00    +0.000 A 
ATOM     18  C   UNL     1      45.656   4.435   7.896  0.00  0.00    +0.000 A 
ATOM     19  C   UNL     1      44.736   4.254   8.929  0.00  0.00    +0.000 A 
ATOM     20  C   UNL     1      44.568   2.998   9.521  0.00  0.00    +0.000 A 
ATOM     21  C   UNL     1      45.325   1.917   9.055  0.00  0.00    +0.000 A 
BRANCH  16  23
ATOM     22  N   UNL     1      46.571  -0.293   7.647  0.00  0.00    +0.000 N 
ATOM     23  C   UNL     1      47.061   0.972   7.478  0.00  0.00    +0.000 C 
ATOM     24  O   UNL     1      48.106   1.167   6.875  0.00  0.00    +0.000 OA
ATOM     25  H   UNL     1      47.080  -1.037   7.189  0.00  0.00    +0.000 HD
ATOM     26  H   UNL     1      45.613  -0.474   7.916  0.00  0.00    +0.000 HD
ENDBRANCH  16  23
ENDBRANCH  15  20
ENDBRANCH   1  15
TORSDOF 5
ENDMDL
MODEL 2
REMARK VINA RESULT:    -7.962      1.401      1.780
REMARK INTER + INTRA:         -11.059
REMARK INTER:                 -10.073
REMARK INTRA:                  -0.986
REMARK UNBOUND:                -0.770
REMARK  Name = 
REMARK  5 active torsions:
REMARK  status: ('A' for Active; 'I' for Inactive)
REMARK    1  A    between atoms: C_2  and  C_4
REMARK    2  A    between atoms: C_8  and  O_9
REMARK    3  A    between atoms: O_9  and  C_10
REMARK    4  A    between atoms: C_10  and  C_11
REMARK    5  A    between atoms: C_16  and  N_17
REMARK                            x       y       z     vdW  Elec       q    Type
REMARK                         _______ _______ _______ _____ _____    ______ ____
ROOT
ATOM      1  C   UNL     1      43.808   4.633  10.645  0.00  0.00    +0.000 C 
ENDROOT
BRANCH   1   2
ATOM      2  C   UNL     1      44.932   4.920  11.607  0.00  0.00    +0.000 A 
ATOM      3  C   UNL     1      45.407   3.948  12.488  0.00  0.00    +0.000 A 
ATOM      4  C   UNL     1      46.519   4.223  13.276  0.00  0.00    +0.000 A 
ATOM      5  F   UNL     1      46.989   3.273  14.097  0.00  0.00    +0.000 F 
ATOM      6  C   UNL     1      47.182   5.449  13.202  0.00  0.00    +0.000 A 
ATOM      7  C   UNL     1      46.734   6.441  12.328  0.00  0.00    +0.000 A 
ATOM      8  C   UNL     1      45.576   6.166  11.576  0.00  0.00    +0.000 A 
BRANCH   7   9
ATOM      9  N   UNL     1      47.365   7.672  12.149  0.00  0.00    +0.000 N 
ATOM     10  C   UNL     1      46.729   8.907  12.622  0.00  0.00    +0.000 C 
ATOM     11  C   UNL     1      47.323  10.085  11.843  0.00  0.00    +0.000 C 
ATOM     12  C   UNL     1      48.852  10.116  11.916  0.00  0.00    +0.000 C 
ATOM     13  C   UNL     1      49.459   8.762  11.557  0.00  0.00    +0.000 C 
ATOM     14  C   UNL     1      48.821   7.644  12.375  0.00  0.00    +0.000 C 
ENDBRANCH   7   9
ENDBRANCH   1   2
BRANCH   1  15
ATOM     15  O   UNL     1      44.262   4.671   9.295  0.00  0.00    +0.000 OA
BRANCH  15  20
ATOM     16  C   UNL     1      46.470   2.628   7.245  0.00  0.00    +0.000 A 
ATOM     17  C   UNL     1      46.240   1.340   7.740  0.00  0.00    +0.000 A 
ATOM     18  C   UNL     1      45.348   1.148   8.792  0.00  0.00    +0.000 A 
ATOM     19  C   UNL     1      44.675   2.239   9.345  0.00  0.00    +0.000 A 
ATOM     20  C   UNL     1      44.880   3.529   8.847  0.00  0.00    +0.000 A 
ATOM     21  C   UNL     1      45.782   3.719   7.794  0.00  0.00    +0.000 A 
BRANCH  16  23
ATOM     22  N   UNL     1      48.755   2.534   6.409  0.00  0.00    +0.000 N 
ATOM     23  C   UNL     1      47.440   2.783   6.130  0.00  0.00    +0.000 C 
ATOM     24  O   UNL     1      47.080   3.074   4.998  0.00  0.00    +0.000 OA
ATOM     25  H   UNL     1      49.390   2.535   5.621  0.00  0.00    +0.000 HD
ATOM     26  H   UNL     1      49.052   2.062   7.252  0.00  0.00    +0.000 HD
ENDBRANCH  16  23
ENDBRANCH  15  20
ENDBRANCH   1  15
TORSDOF 5
ENDMDL
MODEL 3
REMARK VINA RESULT:    -7.824      2.856      6.593
REMARK INTER + INTRA:         -10.881
REMARK INTER:                  -9.900
REMARK INTRA:                  -0.981
REMARK UNBOUND:                -0.770
REMARK  Name = 
REMARK  5 active torsions:
REMARK  status: ('A' for Active; 'I' for Inactive)
REMARK    1  A    between atoms: C_2  and  C_4
REMARK    2  A    between atoms: C_8  and  O_9
REMARK    3  A    between atoms: O_9  and  C_10
REMARK    4  A    between atoms: C_10  and  C_11
REMARK    5  A    between atoms: C_16  and  N_17
REMARK                            x       y       z     vdW  Elec       q    Type
REMARK                         _______ _______ _______ _____ _____    ______ ____
ROOT
ATOM      1  C   UNL     1      44.276   6.571  10.840  0.00  0.00    +0.000 C 
ENDROOT
BRANCH   1   2
ATOM      2  C   UNL     1      44.356   5.079  10.644  0.00  0.00    +0.000 A 
ATOM      3  C   UNL     1      43.560   4.202  11.381  0.00  0.00    +0.000 A 
ATOM      4  C   UNL     1      43.587   2.843  11.086  0.00  0.00    +0.000 A 
ATOM      5  F   UNL     1      42.796   2.009  11.775  0.00  0.00    +0.000 F 
ATOM      6  C   UNL     1      44.385   2.333  10.062  0.00  0.00    +0.000 A 
ATOM      7  C   UNL     1      45.190   3.186   9.304  0.00  0.00    +0.000 A 
ATOM      8  C   UNL     1      45.192   4.551   9.650  0.00  0.00    +0.000 A 
BRANCH   7   9
ATOM      9  N   UNL     1      45.977   2.773   8.229  0.00  0.00    +0.000 N 
ATOM     10  C   UNL     1      46.331   1.358   8.069  0.00  0.00    +0.000 C 
ATOM     11  C   UNL     1      47.586   1.270   7.193  0.00  0.00    +0.000 C 
ATOM     12  C   UNL     1      47.419   2.014   5.866  0.00  0.00    +0.000 C 
ATOM     13  C   UNL     1      46.907   3.435   6.079  0.00  0.00    +0.000 C 
ATOM     14  C   UNL     1      45.657   3.440   6.954  0.00  0.00    +0.000 C 
ENDBRANCH   7   9
ENDBRANCH   1   2
BRANCH   1  15
ATOM     15  O   UNL     1      44.537   6.929  12.195  0.00  0.00    +0.000 OA
BRANCH  15  20
ATOM     16  C   UNL     1      47.175   5.320  14.121  0.00  0.00    +0.000 A 
ATOM     17  C   UNL     1      48.318   6.014  13.711  0.00  0.00    +0.000 A 
ATOM     18  C   UNL     1      48.214   7.025  12.757  0.00  0.00    +0.000 A 
ATOM     19  C   UNL     1      46.968   7.353  12.220  0.00  0.00    +0.000 A 
ATOM     20  C   UNL     1      45.814   6.681  12.636  0.00  0.00    +0.000 A 
ATOM     21  C   UNL     1      45.923   5.662  13.589  0.00  0.00    +0.000 A 
BRANCH  16  23
ATOM     22  N   UNL     1      47.150   4.584  16.441  0.00  0.00    +0.000 N 
ATOM     23  C   UNL     1      47.338   4.243  15.131  0.00  0.00    +0.000 C 
ATOM     24  O   UNL     1      47.583   3.089  14.810  0.00  0.00    +0.000 OA
ATOM     25  H   UNL     1      47.155   3.825  17.109  0.00  0.00    +0.000 HD
ATOM     26  H   UNL     1      46.714   5.453  16.720  0.00  0.00    +0.000 HD
ENDBRANCH  16  23
ENDBRANCH  15  20
ENDBRANCH   1  15
TORSDOF 5
ENDMDL
MODEL 4
REMARK VINA RESULT:    -7.769      2.585      3.999
REMARK INTER + INTRA:         -10.809
REMARK INTER:                  -9.862
REMARK INTRA:                  -0.948
REMARK UNBOUND:                -0.770
REMARK  Name = 
REMARK  5 active torsions:
REMARK  status: ('A' for Active; 'I' for Inactive)
REMARK    1  A    between atoms: C_2  and  C_4
REMARK    2  A    between atoms: C_8  and  O_9
REMARK    3  A    between atoms: O_9  and  C_10
REMARK    4  A    between atoms: C_10  and  C_11
REMARK    5  A    between atoms: C_16  and  N_17
REMARK                            x       y       z     vdW  Elec       q    Type
REMARK                         _______ _______ _______ _____ _____    ______ ____
ROOT
ATOM      1  C   UNL     1      44.728   5.256  11.254  0.00  0.00    +0.000 C 
ENDROOT
BRANCH   1   2
ATOM      2  C   UNL     1      45.995   5.685  11.949  0.00  0.00    +0.000 A 
ATOM      3  C   UNL     1      46.841   6.647  11.398  0.00  0.00    +0.000 A 
ATOM      4  C   UNL     1      47.939   7.091  12.128  0.00  0.00    +0.000 A 
ATOM      5  F   UNL     1      48.729   8.040  11.606  0.00  0.00    +0.000 F 
ATOM      6  C   UNL     1      48.211   6.606  13.407  0.00  0.00    +0.000 A 
ATOM      7  C   UNL     1      47.380   5.645  13.988  0.00  0.00    +0.000 A 
ATOM      8  C   UNL     1      46.305   5.167  13.215  0.00  0.00    +0.000 A 
BRANCH   7   9
ATOM      9  N   UNL     1      47.544   5.144  15.279  0.00  0.00    +0.000 N 
ATOM     10  C   UNL     1      47.492   3.699  15.525  0.00  0.00    +0.000 C 
ATOM     11  C   UNL     1      47.153   3.472  17.003  0.00  0.00    +0.000 C 
ATOM     12  C   UNL     1      48.107   4.219  17.937  0.00  0.00    +0.000 C 
ATOM     13  C   UNL     1      48.241   5.688  17.547  0.00  0.00    +0.000 C 
ATOM     14  C   UNL     1      48.583   5.831  16.068  0.00  0.00    +0.000 C 
ENDBRANCH   7   9
ENDBRANCH   1   2
BRANCH   1  15
ATOM     15  O   UNL     1      44.896   5.241   9.839  0.00  0.00    +0.000 OA
BRANCH  15  20
ATOM     16  C   UNL     1      46.362   2.857   7.511  0.00  0.00    +0.000 A 
ATOM     17  C   UNL     1      45.867   1.634   7.975  0.00  0.00    +0.000 A 
ATOM     18  C   UNL     1      45.045   1.598   9.099  0.00  0.00    +0.000 A 
ATOM     19  C   UNL     1      44.706   2.782   9.755  0.00  0.00    +0.000 A 
ATOM     20  C   UNL     1      45.177   4.014   9.290  0.00  0.00    +0.000 A 
ATOM     21  C   UNL     1      46.008   4.047   8.164  0.00  0.00    +0.000 A 
BRANCH  16  23
ATOM     22  N   UNL     1      48.572   2.590   6.524  0.00  0.00    +0.000 N 
ATOM     23  C   UNL     1      47.245   2.844   6.316  0.00  0.00    +0.000 C 
ATOM     24  O   UNL     1      46.804   3.004   5.187  0.00  0.00    +0.000 OA
ATOM     25  H   UNL     1      49.143   2.475   5.698  0.00  0.00    +0.000 HD
ATOM     26  H   UNL     1      48.924   2.217   7.395  0.00  0.00    +0.000 HD
ENDBRANCH  16  23
ENDBRANCH  15  20
ENDBRANCH   1  15
TORSDOF 5
ENDMDL
MODEL 5
REMARK VINA RESULT:    -7.342      3.117      6.556
REMARK INTER + INTRA:         -10.258
REMARK INTER:                  -9.527
REMARK INTRA:                  -0.731
REMARK UNBOUND:                -0.770
REMARK  Name = 
REMARK  5 active torsions:
REMARK  status: ('A' for Active; 'I' for Inactive)
REMARK    1  A    between atoms: C_2  and  C_4
REMARK    2  A    between atoms: C_8  and  O_9
REMARK    3  A    between atoms: O_9  and  C_10
REMARK    4  A    between atoms: C_10  and  C_11
REMARK    5  A    between atoms: C_16  and  N_17
REMARK                            x       y       z     vdW  Elec       q    Type
REMARK                         _______ _______ _______ _____ _____    ______ ____
ROOT
ATOM      1  C   UNL     1      46.099   4.715  14.009  0.00  0.00    +0.000 C 
ENDROOT
BRANCH   1   2
ATOM      2  C   UNL     1      45.164   4.547  12.840  0.00  0.00    +0.000 A 
ATOM      3  C   UNL     1      43.873   5.076  12.854  0.00  0.00    +0.000 A 
ATOM      4  C   UNL     1      43.087   4.993  11.710  0.00  0.00    +0.000 A 
ATOM      5  F   UNL     1      41.860   5.532  11.721  0.00  0.00    +0.000 F 
ATOM      6  C   UNL     1      43.561   4.402  10.538  0.00  0.00    +0.000 A 
ATOM      7  C   UNL     1      44.850   3.867  10.490  0.00  0.00    +0.000 A 
ATOM      8  C   UNL     1      45.613   3.910  11.673  0.00  0.00    +0.000 A 
BRANCH   7   9
ATOM      9  N   UNL     1      45.425   3.307   9.350  0.00  0.00    +0.000 N 
ATOM     10  C   UNL     1      45.154   1.910   8.992  0.00  0.00    +0.000 C 
ATOM     11  C   UNL     1      46.283   1.417   8.081  0.00  0.00    +0.000 C 
ATOM     12  C   UNL     1      46.491   2.330   6.870  0.00  0.00    +0.000 C 
ATOM     13  C   UNL     1      46.621   3.793   7.286  0.00  0.00    +0.000 C 
ATOM     14  C   UNL     1      45.461   4.210   8.185  0.00  0.00    +0.000 C 
ENDBRANCH   7   9
ENDBRANCH   1   2
BRANCH   1  15
ATOM     15  O   UNL     1      47.411   5.061  13.575  0.00  0.00    +0.000 OA
BRANCH  15  20
ATOM     16  C   UNL     1      49.085   7.918  12.061  0.00  0.00    +0.000 A 
ATOM     17  C   UNL     1      48.133   8.934  12.192  0.00  0.00    +0.000 A 
ATOM     18  C   UNL     1      46.899   8.659  12.777  0.00  0.00    +0.000 A 
ATOM     19  C   UNL     1      46.617   7.374  13.243  0.00  0.00    +0.000 A 
ATOM     20  C   UNL     1      47.568   6.354  13.137  0.00  0.00    +0.000 A 
ATOM     21  C   UNL     1      48.804   6.631  12.543  0.00  0.00    +0.000 A 
BRANCH  16  23
ATOM     22  N   UNL     1      51.167   7.213  11.014  0.00  0.00    +0.000 N 
ATOM     23  C   UNL     1      50.382   8.257  11.420  0.00  0.00    +0.000 C 
ATOM     24  O   UNL     1      50.718   9.414  11.217  0.00  0.00    +0.000 OA
ATOM     25  H   UNL     1      51.993   7.452  10.482  0.00  0.00    +0.000 HD
ATOM     26  H   UNL     1      50.820   6.266  10.943  0.00  0.00    +0.000 HD
ENDBRANCH  16  23
ENDBRANCH  15  20
ENDBRANCH   1  15
TORSDOF 5
ENDMDL
MODEL 6
REMARK VINA RESULT:    -7.340      4.064      7.942
REMARK INTER + INTRA:         -10.255
REMARK INTER:                  -9.551
REMARK INTRA:                  -0.704
REMARK UNBOUND:                -0.770
REMARK  Name = 
REMARK  5 active torsions:
REMARK  status: ('A' for Active; 'I' for Inactive)
REMARK    1  A    between atoms: C_2  and  C_4
REMARK    2  A    between atoms: C_8  and  O_9
REMARK    3  A    between atoms: O_9  and  C_10
REMARK    4  A    between atoms: C_10  and  C_11
REMARK    5  A    between atoms: C_16  and  N_17
REMARK                            x       y       z     vdW  Elec       q    Type
REMARK                         _______ _______ _______ _____ _____    ______ ____
ROOT
ATOM      1  C   UNL     1      46.534   4.704  14.186  0.00  0.00    +0.000 C 
ENDROOT
BRANCH   1   2
ATOM      2  C   UNL     1      45.491   4.524  13.114  0.00  0.00    +0.000 A 
ATOM      3  C   UNL     1      44.188   4.997  13.275  0.00  0.00    +0.000 A 
ATOM      4  C   UNL     1      43.292   4.908  12.215  0.00  0.00    +0.000 A 
ATOM      5  F   UNL     1      42.052   5.394  12.366  0.00  0.00    +0.000 F 
ATOM      6  C   UNL     1      43.666   4.366  10.985  0.00  0.00    +0.000 A 
ATOM      7  C   UNL     1      44.964   3.887  10.791  0.00  0.00    +0.000 A 
ATOM      8  C   UNL     1      45.842   3.935  11.890  0.00  0.00    +0.000 A 
BRANCH   7   9
ATOM      9  N   UNL     1      45.440   3.379   9.583  0.00  0.00    +0.000 N 
ATOM     10  C   UNL     1      45.089   2.019   9.160  0.00  0.00    +0.000 C 
ATOM     11  C   UNL     1      46.135   1.542   8.147  0.00  0.00    +0.000 C 
ATOM     12  C   UNL     1      46.302   2.522   6.982  0.00  0.00    +0.000 C 
ATOM     13  C   UNL     1      46.517   3.950   7.476  0.00  0.00    +0.000 C 
ATOM     14  C   UNL     1      45.437   4.351   8.475  0.00  0.00    +0.000 C 
ENDBRANCH   7   9
ENDBRANCH   1   2
BRANCH   1  15
ATOM     15  O   UNL     1      47.094   3.453  14.576  0.00  0.00    +0.000 OA
BRANCH  15  20
ATOM     16  C   UNL     1      47.884   4.593  17.942  0.00  0.00    +0.000 A 
ATOM     17  C   UNL     1      48.767   3.608  18.398  0.00  0.00    +0.000 A 
ATOM     18  C   UNL     1      49.090   2.530  17.577  0.00  0.00    +0.000 A 
ATOM     19  C   UNL     1      48.544   2.439  16.296  0.00  0.00    +0.000 A 
ATOM     20  C   UNL     1      47.675   3.426  15.820  0.00  0.00    +0.000 A 
ATOM     21  C   UNL     1      47.347   4.505  16.649  0.00  0.00    +0.000 A 
BRANCH  16  23
ATOM     22  N   UNL     1      47.193   5.394  20.135  0.00  0.00    +0.000 N 
ATOM     23  C   UNL     1      47.560   5.717  18.858  0.00  0.00    +0.000 C 
ATOM     24  O   UNL     1      47.660   6.884  18.508  0.00  0.00    +0.000 OA
ATOM     25  H   UNL     1      47.081   6.165  20.780  0.00  0.00    +0.000 HD
ATOM     26  H   UNL     1      47.333   4.472  20.524  0.00  0.00    +0.000 HD
ENDBRANCH  16  23
ENDBRANCH  15  20
ENDBRANCH   1  15
TORSDOF 5
ENDMDL
MODEL 7
REMARK VINA RESULT:    -7.338      2.917      7.017
REMARK INTER + INTRA:         -10.252
REMARK INTER:                  -9.492
REMARK INTRA:                  -0.761
REMARK UNBOUND:                -0.770
REMARK  Name = 
REMARK  5 active torsions:
REMARK  status: ('A' for Active; 'I' for Inactive)
REMARK    1  A    between atoms: C_2  and  C_4
REMARK    2  A    between atoms: C_8  and  O_9
REMARK    3  A    between atoms: O_9  and  C_10
REMARK    4  A    between atoms: C_10  and  C_11
REMARK    5  A    between atoms: C_16  and  N_17
REMARK                            x       y       z     vdW  Elec       q    Type
REMARK                         _______ _______ _______ _____ _____    ______ ____
ROOT
ATOM      1  C   UNL     1      46.235   5.652  13.667  0.00  0.00    +0.000 C 
ENDROOT
BRANCH   1   2
ATOM      2  C   UNL     1      45.238   5.177  12.642  0.00  0.00    +0.000 A 
ATOM      3  C   UNL     1      43.890   5.528  12.716  0.00  0.00    +0.000 A 
ATOM      4  C   UNL     1      43.030   5.160  11.686  0.00  0.00    +0.000 A 
ATOM      5  F   UNL     1      41.743   5.528  11.748  0.00  0.00    +0.000 F 
ATOM      6  C   UNL     1      43.485   4.455  10.571  0.00  0.00    +0.000 A 
ATOM      7  C   UNL     1      44.830   4.093  10.465  0.00  0.00    +0.000 A 
ATOM      8  C   UNL     1      45.676   4.426  11.540  0.00  0.00    +0.000 A 
BRANCH   7   9
ATOM      9  N   UNL     1      45.382   3.437   9.365  0.00  0.00    +0.000 N 
ATOM     10  C   UNL     1      45.007   2.052   9.063  0.00  0.00    +0.000 C 
ATOM     11  C   UNL     1      46.111   1.429   8.203  0.00  0.00    +0.000 C 
ATOM     12  C   UNL     1      46.417   2.266   6.958  0.00  0.00    +0.000 C 
ATOM     13  C   UNL     1      46.654   3.732   7.311  0.00  0.00    +0.000 C 
ATOM     14  C   UNL     1      45.513   4.280   8.162  0.00  0.00    +0.000 C 
ENDBRANCH   7   9
ENDBRANCH   1   2
BRANCH   1  15
ATOM     15  O   UNL     1      47.541   5.759  13.107  0.00  0.00    +0.000 OA
BRANCH  15  20
ATOM     16  C   UNL     1      47.077   9.252  12.189  0.00  0.00    +0.000 A 
ATOM     17  C   UNL     1      48.345   9.615  11.721  0.00  0.00    +0.000 A 
ATOM     18  C   UNL     1      49.383   8.685  11.732  0.00  0.00    +0.000 A 
ATOM     19  C   UNL     1      49.155   7.389  12.196  0.00  0.00    +0.000 A 
ATOM     20  C   UNL     1      47.887   7.007  12.647  0.00  0.00    +0.000 A 
ATOM     21  C   UNL     1      46.849   7.945  12.642  0.00  0.00    +0.000 A 
BRANCH  16  23
ATOM     22  N   UNL     1      44.757   9.887  12.560  0.00  0.00    +0.000 N 
ATOM     23  C   UNL     1      46.006  10.281  12.169  0.00  0.00    +0.000 C 
ATOM     24  O   UNL     1      46.233  11.443  11.865  0.00  0.00    +0.000 OA
ATOM     25  H   UNL     1      44.061  10.616  12.648  0.00  0.00    +0.000 HD
ATOM     26  H   UNL     1      44.587   9.015  13.042  0.00  0.00    +0.000 HD
ENDBRANCH  16  23
ENDBRANCH  15  20
ENDBRANCH   1  15
TORSDOF 5
ENDMDL
MODEL 8
REMARK VINA RESULT:    -7.244      4.209      7.561
REMARK INTER + INTRA:         -10.131
REMARK INTER:                  -9.473
REMARK INTRA:                  -0.659
REMARK UNBOUND:                -0.770
REMARK  Name = 
REMARK  5 active torsions:
REMARK  status: ('A' for Active; 'I' for Inactive)
REMARK    1  A    between atoms: C_2  and  C_4
REMARK    2  A    between atoms: C_8  and  O_9
REMARK    3  A    between atoms: O_9  and  C_10
REMARK    4  A    between atoms: C_10  and  C_11
REMARK    5  A    between atoms: C_16  and  N_17
REMARK                            x       y       z     vdW  Elec       q    Type
REMARK                         _______ _______ _______ _____ _____    ______ ____
ROOT
ATOM      1  C   UNL     1      46.750   4.522  14.294  0.00  0.00    +0.000 C 
ENDROOT
BRANCH   1   2
ATOM      2  C   UNL     1      45.665   4.437  13.252  0.00  0.00    +0.000 A 
ATOM      3  C   UNL     1      44.397   4.975  13.471  0.00  0.00    +0.000 A 
ATOM      4  C   UNL     1      43.465   4.972  12.439  0.00  0.00    +0.000 A 
ATOM      5  F   UNL     1      42.260   5.521  12.647  0.00  0.00    +0.000 F 
ATOM      6  C   UNL     1      43.768   4.451  11.181  0.00  0.00    +0.000 A 
ATOM      7  C   UNL     1      45.030   3.908  10.928  0.00  0.00    +0.000 A 
ATOM      8  C   UNL     1      45.944   3.870  11.999  0.00  0.00    +0.000 A 
BRANCH   7   9
ATOM      9  N   UNL     1      45.439   3.415   9.690  0.00  0.00    +0.000 N 
ATOM     10  C   UNL     1      45.078   2.055   9.278  0.00  0.00    +0.000 C 
ATOM     11  C   UNL     1      46.067   1.598   8.199  0.00  0.00    +0.000 C 
ATOM     12  C   UNL     1      46.152   2.589   7.035  0.00  0.00    +0.000 C 
ATOM     13  C   UNL     1      46.381   4.015   7.527  0.00  0.00    +0.000 C 
ATOM     14  C   UNL     1      45.357   4.396   8.592  0.00  0.00    +0.000 C 
ENDBRANCH   7   9
ENDBRANCH   1   2
BRANCH   1  15
ATOM     15  O   UNL     1      46.293   4.044  15.556  0.00  0.00    +0.000 OA
BRANCH  15  20
ATOM     16  C   UNL     1      49.330   3.171  17.362  0.00  0.00    +0.000 A 
ATOM     17  C   UNL     1      49.225   3.941  18.526  0.00  0.00    +0.000 A 
ATOM     18  C   UNL     1      48.130   4.784  18.705  0.00  0.00    +0.000 A 
ATOM     19  C   UNL     1      47.134   4.853  17.729  0.00  0.00    +0.000 A 
ATOM     20  C   UNL     1      47.217   4.075  16.571  0.00  0.00    +0.000 A 
ATOM     21  C   UNL     1      48.321   3.233  16.391  0.00  0.00    +0.000 A 
BRANCH  16  23
ATOM     22  N   UNL     1      51.555   2.495  18.084  0.00  0.00    +0.000 N 
ATOM     23  C   UNL     1      50.521   2.296  17.211  0.00  0.00    +0.000 C 
ATOM     24  O   UNL     1      50.564   1.403  16.378  0.00  0.00    +0.000 OA
ATOM     25  H   UNL     1      52.312   1.825  18.045  0.00  0.00    +0.000 HD
ATOM     26  H   UNL     1      51.458   3.046  18.926  0.00  0.00    +0.000 HD
ENDBRANCH  16  23
ENDBRANCH  15  20
ENDBRANCH   1  15
TORSDOF 5
ENDMDL
MODEL 9
REMARK VINA RESULT:    -7.170      3.263      7.237
REMARK INTER + INTRA:         -10.035
REMARK INTER:                  -9.141
REMARK INTRA:                  -0.894
REMARK UNBOUND:                -0.770
REMARK  Name = 
REMARK  5 active torsions:
REMARK  status: ('A' for Active; 'I' for Inactive)
REMARK    1  A    between atoms: C_2  and  C_4
REMARK    2  A    between atoms: C_8  and  O_9
REMARK    3  A    between atoms: O_9  and  C_10
REMARK    4  A    between atoms: C_10  and  C_11
REMARK    5  A    between atoms: C_16  and  N_17
REMARK                            x       y       z     vdW  Elec       q    Type
REMARK                         _______ _______ _______ _____ _____    ______ ____
ROOT
ATOM      1  C   UNL     1      46.423   7.281  12.417  0.00  0.00    +0.000 C 
ENDROOT
BRANCH   1   2
ATOM      2  C   UNL     1      45.431   6.316  11.822  0.00  0.00    +0.000 A 
ATOM      3  C   UNL     1      44.068   6.399  12.107  0.00  0.00    +0.000 A 
ATOM      4  C   UNL     1      43.178   5.559  11.447  0.00  0.00    +0.000 A 
ATOM      5  F   UNL     1      41.867   5.667  11.702  0.00  0.00    +0.000 F 
ATOM      6  C   UNL     1      43.613   4.638  10.494  0.00  0.00    +0.000 A 
ATOM      7  C   UNL     1      44.970   4.533  10.182  0.00  0.00    +0.000 A 
ATOM      8  C   UNL     1      45.864   5.353  10.898  0.00  0.00    +0.000 A 
BRANCH   7   9
ATOM      9  N   UNL     1      45.488   3.681   9.207  0.00  0.00    +0.000 N 
ATOM     10  C   UNL     1      44.929   2.337   9.024  0.00  0.00    +0.000 C 
ATOM     11  C   UNL     1      45.981   1.467   8.328  0.00  0.00    +0.000 C 
ATOM     12  C   UNL     1      46.491   2.100   7.031  0.00  0.00    +0.000 C 
ATOM     13  C   UNL     1      46.924   3.548   7.246  0.00  0.00    +0.000 C 
ATOM     14  C   UNL     1      45.825   4.349   7.937  0.00  0.00    +0.000 C 
ENDBRANCH   7   9
ENDBRANCH   1   2
BRANCH   1  15
ATOM     15  O   UNL     1      47.694   6.666  12.603  0.00  0.00    +0.000 OA
BRANCH  15  20
ATOM     16  C   UNL     1      47.927   5.343  15.987  0.00  0.00    +0.000 A 
ATOM     17  C   UNL     1      48.831   6.220  16.595  0.00  0.00    +0.000 A 
ATOM     18  C   UNL     1      49.392   7.261  15.860  0.00  0.00    +0.000 A 
ATOM     19  C   UNL     1      49.044   7.437  14.519  0.00  0.00    +0.000 A 
ATOM     20  C   UNL     1      48.126   6.579  13.904  0.00  0.00    +0.000 A 
ATOM     21  C   UNL     1      47.569   5.530  14.644  0.00  0.00    +0.000 A 
BRANCH  16  23
ATOM     22  N   UNL     1      47.278   4.451  18.157  0.00  0.00    +0.000 N 
ATOM     23  C   UNL     1      47.364   4.240  16.809  0.00  0.00    +0.000 C 
ATOM     24  O   UNL     1      46.949   3.207  16.305  0.00  0.00    +0.000 OA
ATOM     25  H   UNL     1      46.795   3.742  18.693  0.00  0.00    +0.000 HD
ATOM     26  H   UNL     1      47.380   5.367  18.573  0.00  0.00    +0.000 HD
ENDBRANCH  16  23
ENDBRANCH  15  20
ENDBRANCH   1  15
TORSDOF 5
ENDMDL
