MODEL 1
REMARK VINA RESULT:    -8.738      0.000      0.000
REMARK INTER + INTRA:         -12.983
REMARK INTER:                 -11.803
REMARK INTRA:                  -1.180
REMARK UNBOUND:                -1.180
REMARK  Name = 
REMARK  6 active torsions:
REMARK  status: ('A' for Active; 'I' for Inactive)
REMARK    1  A    between atoms: C_2  and  C_19
REMARK    2  A    between atoms: N_3  and  C_4
REMARK    3  A    between atoms: C_4  and  C_5
REMARK    4  A    between atoms: C_8  and  C_9
REMARK    5  A    between atoms: C_9  and  C_10
REMARK    6  A    between atoms: C_10  and  C_11
REMARK                            x       y       z     vdW  Elec       q    Type
REMARK                         _______ _______ _______ _____ _____    ______ ____
ROOT
ATOM      1  O   UNL     1      49.448   6.895  13.894  0.00  0.00    +0.000 OA
ATOM      2  C   UNL     1      48.491   6.608  14.609  0.00  0.00    +0.000 C 
ATOM      3  N   UNL     1      47.199   6.635  14.143  0.00  0.00    +0.000 N 
ATOM      4  H   UNL     1      46.430   6.616  14.804  0.00  0.00    +0.000 HD
ENDROOT
BRANCH   2   5
ATOM      5  C   UNL     1      48.682   6.179  15.997  0.00  0.00    +0.000 A 
ATOM      6  C   UNL     1      49.253   7.048  16.917  0.00  0.00    +0.000 A 
ATOM      7  S   UNL     1      49.391   6.389  18.483  0.00  0.00    +0.000 S 
ATOM      8  C   UNL     1      48.649   4.935  17.996  0.00  0.00    +0.000 A 
ATOM      9  N   UNL     1      48.423   3.933  18.887  0.00  0.00    +0.000 NA
ATOM     10  C   UNL     1      47.821   2.906  18.388  0.00  0.00    +0.000 A 
ATOM     11  N   UNL     1      47.441   2.781  17.075  0.00  0.00    +0.000 N 
ATOM     12  C   UNL     1      47.689   3.750  16.131  0.00  0.00    +0.000 A 
ATOM     13  O   UNL     1      47.396   3.582  14.954  0.00  0.00    +0.000 OA
ATOM     14  C   UNL     1      48.333   4.941  16.650  0.00  0.00    +0.000 A 
ATOM     15  H   UNL     1      46.992   1.940  16.744  0.00  0.00    +0.000 HD
ENDBRANCH   2   5
BRANCH   3  16
ATOM     16  C   UNL     1      46.922   7.145  12.826  0.00  0.00    +0.000 C 
BRANCH  16  17
ATOM     17  C   UNL     1      46.220   6.136  11.957  0.00  0.00    +0.000 A 
ATOM     18  C   UNL     1      46.112   6.348  10.579  0.00  0.00    +0.000 A 
ATOM     19  C   UNL     1      45.520   5.389   9.752  0.00  0.00    +0.000 A 
ATOM     20  C   UNL     1      45.021   4.190  10.279  0.00  0.00    +0.000 A 
ATOM     21  C   UNL     1      45.073   4.011  11.670  0.00  0.00    +0.000 A 
ATOM     22  C   UNL     1      45.664   4.972  12.501  0.00  0.00    +0.000 A 
BRANCH  20  23
ATOM     23  C   UNL     1      44.383   3.122   9.411  0.00  0.00    +0.000 C 
BRANCH  23  24
ATOM     24  C   UNL     1      45.293   1.924   9.093  0.00  0.00    +0.000 C 
BRANCH  24  25
ATOM     25  C   UNL     1      46.150   2.128   7.873  0.00  0.00    +0.000 A 
ATOM     26  C   UNL     1      45.962   3.221   7.026  0.00  0.00    +0.000 A 
ATOM     27  C   UNL     1      46.747   3.352   5.883  0.00  0.00    +0.000 A 
ATOM     28  C   UNL     1      47.706   2.383   5.630  0.00  0.00    +0.000 A 
ATOM     29  N   UNL     1      47.926   1.321   6.432  0.00  0.00    +0.000 NA
ATOM     30  C   UNL     1      47.146   1.217   7.531  0.00  0.00    +0.000 A 
ENDBRANCH  24  25
ENDBRANCH  23  24
ENDBRANCH  20  23
ENDBRANCH  16  17
ENDBRANCH   3  16
TORSDOF 6
ENDMDL
MODEL 2
REMARK VINA RESULT:    -8.064      1.363      1.929
REMARK INTER + INTRA:         -12.072
REMARK INTER:                 -11.057
REMARK INTRA:                  -1.015
REMARK UNBOUND:                -1.180
REMARK  Name = 
REMARK  6 active torsions:
REMARK  status: ('A' for Active; 'I' for Inactive)
REMARK    1  A    between atoms: C_2  and  C_19
REMARK    2  A    between atoms: N_3  and  C_4
REMARK    3  A    between atoms: C_4  and  C_5
REMARK    4  A    between atoms: C_8  and  C_9
REMARK    5  A    between atoms: C_9  and  C_10
REMARK    6  A    between atoms: C_10  and  C_11
REMARK                            x       y       z     vdW  Elec       q    Type
REMARK                         _______ _______ _______ _____ _____    ______ ____
ROOT
ATOM      1  O   UNL     1      49.967   6.707  15.017  0.00  0.00    +0.000 OA
ATOM      2  C   UNL     1      48.913   7.017  15.567  0.00  0.00    +0.000 C 
ATOM      3  N   UNL     1      47.786   7.343  14.852  0.00  0.00    +0.000 N 
ATOM      4  H   UNL     1      47.014   7.807  15.321  0.00  0.00    +0.000 HD
ENDROOT
BRANCH   2   5
ATOM      5  C   UNL     1      48.789   7.015  17.027  0.00  0.00    +0.000 A 
ATOM      6  C   UNL     1      48.530   8.202  17.700  0.00  0.00    +0.000 A 
ATOM      7  S   UNL     1      48.408   8.015  19.390  0.00  0.00    +0.000 S 
ATOM      8  C   UNL     1      48.653   6.332  19.277  0.00  0.00    +0.000 A 
ATOM      9  N   UNL     1      48.629   5.546  20.386  0.00  0.00    +0.000 NA
ATOM     10  C   UNL     1      48.790   4.288  20.147  0.00  0.00    +0.000 A 
ATOM     11  N   UNL     1      48.994   3.746  18.903  0.00  0.00    +0.000 N 
ATOM     12  C   UNL     1      49.069   4.508  17.760  0.00  0.00    +0.000 A 
ATOM     13  O   UNL     1      49.316   4.002  16.672  0.00  0.00    +0.000 OA
ATOM     14  C   UNL     1      48.857   5.927  17.971  0.00  0.00    +0.000 A 
ATOM     15  H   UNL     1      49.135   2.753  18.788  0.00  0.00    +0.000 HD
ENDBRANCH   2   5
BRANCH   3  16
ATOM     16  C   UNL     1      47.856   7.469  13.420  0.00  0.00    +0.000 C 
BRANCH  16  17
ATOM     17  C   UNL     1      47.001   6.453  12.713  0.00  0.00    +0.000 A 
ATOM     18  C   UNL     1      46.587   5.296  13.380  0.00  0.00    +0.000 A 
ATOM     19  C   UNL     1      45.739   4.375  12.756  0.00  0.00    +0.000 A 
ATOM     20  C   UNL     1      45.280   4.587  11.449  0.00  0.00    +0.000 A 
ATOM     21  C   UNL     1      45.750   5.716  10.762  0.00  0.00    +0.000 A 
ATOM     22  C   UNL     1      46.602   6.639  11.385  0.00  0.00    +0.000 A 
BRANCH  20  23
ATOM     23  C   UNL     1      44.350   3.616  10.745  0.00  0.00    +0.000 C 
BRANCH  23  24
ATOM     24  C   UNL     1      44.299   3.770   9.216  0.00  0.00    +0.000 C 
BRANCH  24  25
ATOM     25  C   UNL     1      45.374   2.999   8.498  0.00  0.00    +0.000 A 
ATOM     26  C   UNL     1      46.236   3.621   7.593  0.00  0.00    +0.000 A 
ATOM     27  C   UNL     1      47.189   2.864   6.917  0.00  0.00    +0.000 A 
ATOM     28  C   UNL     1      47.254   1.504   7.177  0.00  0.00    +0.000 A 
ATOM     29  N   UNL     1      46.448   0.870   8.054  0.00  0.00    +0.000 NA
ATOM     30  C   UNL     1      45.529   1.629   8.693  0.00  0.00    +0.000 A 
ENDBRANCH  24  25
ENDBRANCH  23  24
ENDBRANCH  20  23
ENDBRANCH  16  17
ENDBRANCH   3  16
TORSDOF 6
ENDMDL
MODEL 3
REMARK VINA RESULT:    -7.985      2.086      2.961
REMARK INTER + INTRA:         -11.965
REMARK INTER:                 -10.967
REMARK INTRA:                  -0.998
REMARK UNBOUND:                -1.180
REMARK  Name = 
REMARK  6 active torsions:
REMARK  status: ('A' for Active; 'I' for Inactive)
REMARK    1  A    between atoms: C_2  and  C_19
REMARK    2  A    between atoms: N_3  and  C_4
REMARK    3  A    between atoms: C_4  and  C_5
REMARK    4  A    between atoms: C_8  and  C_9
REMARK    5  A    between atoms: C_9  and  C_10
REMARK    6  A    between atoms: C_10  and  C_11
REMARK                            x       y       z     vdW  Elec       q    Type
REMARK                         _______ _______ _______ _____ _____    ______ ____
ROOT
ATOM      1  O   UNL     1      50.167   6.628  15.621  0.00  0.00    +0.000 OA
ATOM      2  C   UNL     1      49.028   6.394  16.018  0.00  0.00    +0.000 C 
ATOM      3  N   UNL     1      47.951   6.364  15.165  0.00  0.00    +0.000 N 
ATOM      4  H   UNL     1      47.011   6.394  15.547  0.00  0.00    +0.000 HD
ENDROOT
BRANCH   2   5
ATOM      5  C   UNL     1      48.761   6.089  17.426  0.00  0.00    +0.000 A 
ATOM      6  C   UNL     1      49.015   4.816  17.918  0.00  0.00    +0.000 A 
ATOM      7  S   UNL     1      48.657   4.641  19.576  0.00  0.00    +0.000 S 
ATOM      8  C   UNL     1      48.192   6.275  19.704  0.00  0.00    +0.000 A 
ATOM      9  N   UNL     1      47.801   6.800  20.896  0.00  0.00    +0.000 NA
ATOM     10  C   UNL     1      47.514   8.057  20.853  0.00  0.00    +0.000 A 
ATOM     11  N   UNL     1      47.564   8.834  19.724  0.00  0.00    +0.000 N 
ATOM     12  C   UNL     1      47.912   8.337  18.490  0.00  0.00    +0.000 A 
ATOM     13  O   UNL     1      47.885   9.041  17.488  0.00  0.00    +0.000 OA
ATOM     14  C   UNL     1      48.279   6.934  18.491  0.00  0.00    +0.000 A 
ATOM     15  H   UNL     1      47.306   9.809  19.755  0.00  0.00    +0.000 HD
ENDBRANCH   2   5
BRANCH   3  16
ATOM     16  C   UNL     1      48.114   6.754  13.789  0.00  0.00    +0.000 C 
BRANCH  16  17
ATOM     17  C   UNL     1      47.153   6.044  12.875  0.00  0.00    +0.000 A 
ATOM     18  C   UNL     1      46.605   4.814  13.248  0.00  0.00    +0.000 A 
ATOM     19  C   UNL     1      45.662   4.175  12.438  0.00  0.00    +0.000 A 
ATOM     20  C   UNL     1      45.239   4.749  11.232  0.00  0.00    +0.000 A 
ATOM     21  C   UNL     1      45.840   5.952  10.831  0.00  0.00    +0.000 A 
ATOM     22  C   UNL     1      46.787   6.593  11.640  0.00  0.00    +0.000 A 
BRANCH  20  23
ATOM     23  C   UNL     1      44.209   4.092  10.333  0.00  0.00    +0.000 C 
BRANCH  23  24
ATOM     24  C   UNL     1      44.478   4.245   8.827  0.00  0.00    +0.000 C 
BRANCH  24  25
ATOM     25  C   UNL     1      45.458   3.238   8.287  0.00  0.00    +0.000 A 
ATOM     26  C   UNL     1      46.394   3.584   7.310  0.00  0.00    +0.000 A 
ATOM     27  C   UNL     1      47.255   2.614   6.805  0.00  0.00    +0.000 A 
ATOM     28  C   UNL     1      47.155   1.324   7.302  0.00  0.00    +0.000 A 
ATOM     29  N   UNL     1      46.274   0.955   8.254  0.00  0.00    +0.000 NA
ATOM     30  C   UNL     1      45.447   1.916   8.723  0.00  0.00    +0.000 A 
ENDBRANCH  24  25
ENDBRANCH  23  24
ENDBRANCH  20  23
ENDBRANCH  16  17
ENDBRANCH   3  16
TORSDOF 6
ENDMDL
MODEL 4
REMARK VINA RESULT:    -7.551      1.922      3.390
REMARK INTER + INTRA:         -11.379
REMARK INTER:                 -10.230
REMARK INTRA:                  -1.149
REMARK UNBOUND:                -1.180
REMARK  Name = 
REMARK  6 active torsions:
REMARK  status: ('A' for Active; 'I' for Inactive)
REMARK    1  A    between atoms: C_2  and  C_19
REMARK    2  A    between atoms: N_3  and  C_4
REMARK    3  A    between atoms: C_4  and  C_5
REMARK    4  A    between atoms: C_8  and  C_9
REMARK    5  A    between atoms: C_9  and  C_10
REMARK    6  A    between atoms: C_10  and  C_11
REMARK                            x       y       z     vdW  Elec       q    Type
REMARK                         _______ _______ _______ _____ _____    ______ ____
ROOT
ATOM      1  O   UNL     1      49.090   4.149  16.710  0.00  0.00    +0.000 OA
ATOM      2  C   UNL     1      48.563   5.221  16.425  0.00  0.00    +0.000 C 
ATOM      3  N   UNL     1      47.446   5.296  15.629  0.00  0.00    +0.000 N 
ATOM      4  H   UNL     1      47.175   6.190  15.232  0.00  0.00    +0.000 HD
ENDROOT
BRANCH   2   5
ATOM      5  C   UNL     1      49.077   6.486  16.959  0.00  0.00    +0.000 A 
ATOM      6  C   UNL     1      49.042   6.724  18.326  0.00  0.00    +0.000 A 
ATOM      7  S   UNL     1      49.688   8.238  18.771  0.00  0.00    +0.000 S 
ATOM      8  C   UNL     1      50.078   8.609  17.154  0.00  0.00    +0.000 A 
ATOM      9  N   UNL     1      50.703   9.773  16.835  0.00  0.00    +0.000 NA
ATOM     10  C   UNL     1      50.971   9.904  15.579  0.00  0.00    +0.000 A 
ATOM     11  N   UNL     1      50.653   8.986  14.611  0.00  0.00    +0.000 N 
ATOM     12  C   UNL     1      49.982   7.817  14.881  0.00  0.00    +0.000 A 
ATOM     13  O   UNL     1      49.655   7.047  13.986  0.00  0.00    +0.000 OA
ATOM     14  C   UNL     1      49.690   7.605  16.286  0.00  0.00    +0.000 A 
ATOM     15  H   UNL     1      50.872   9.160  13.641  0.00  0.00    +0.000 HD
ENDBRANCH   2   5
BRANCH   3  16
ATOM     16  C   UNL     1      46.945   4.111  14.983  0.00  0.00    +0.000 C 
BRANCH  16  17
ATOM     17  C   UNL     1      46.401   4.393  13.609  0.00  0.00    +0.000 A 
ATOM     18  C   UNL     1      46.613   5.639  13.011  0.00  0.00    +0.000 A 
ATOM     19  C   UNL     1      46.169   5.893  11.710  0.00  0.00    +0.000 A 
ATOM     20  C   UNL     1      45.502   4.907  10.970  0.00  0.00    +0.000 A 
ATOM     21  C   UNL     1      45.236   3.681  11.598  0.00  0.00    +0.000 A 
ATOM     22  C   UNL     1      45.678   3.426  12.903  0.00  0.00    +0.000 A 
BRANCH  20  23
ATOM     23  C   UNL     1      45.017   5.142   9.551  0.00  0.00    +0.000 C 
BRANCH  23  24
ATOM     24  C   UNL     1      44.472   3.891   8.843  0.00  0.00    +0.000 C 
BRANCH  24  25
ATOM     25  C   UNL     1      45.544   3.036   8.223  0.00  0.00    +0.000 A 
ATOM     26  C   UNL     1      46.432   3.554   7.277  0.00  0.00    +0.000 A 
ATOM     27  C   UNL     1      47.382   2.721   6.694  0.00  0.00    +0.000 A 
ATOM     28  C   UNL     1      47.419   1.391   7.085  0.00  0.00    +0.000 A 
ATOM     29  N   UNL     1      46.588   0.858   8.004  0.00  0.00    +0.000 NA
ATOM     30  C   UNL     1      45.672   1.689   8.550  0.00  0.00    +0.000 A 
ENDBRANCH  24  25
ENDBRANCH  23  24
ENDBRANCH  20  23
ENDBRANCH  16  17
ENDBRANCH   3  16
TORSDOF 6
ENDMDL
MODEL 5
REMARK VINA RESULT:    -7.426      2.379      4.031
REMARK INTER + INTRA:         -11.211
REMARK INTER:                  -9.947
REMARK INTRA:                  -1.265
REMARK UNBOUND:                -1.180
REMARK  Name = 
REMARK  6 active torsions:
REMARK  status: ('A' for Active; 'I' for Inactive)
REMARK    1  A    between atoms: C_2  and  C_19
REMARK    2  A    between atoms: N_3  and  C_4
REMARK    3  A    between atoms: C_4  and  C_5
REMARK    4  A    between atoms: C_8  and  C_9
REMARK    5  A    between atoms: C_9  and  C_10
REMARK    6  A    between atoms: C_10  and  C_11
REMARK                            x       y       z     vdW  Elec       q    Type
REMARK                         _______ _______ _______ _____ _____    ______ ____
ROOT
ATOM      1  O   UNL     1      48.923   5.752  16.061  0.00  0.00    +0.000 OA
ATOM      2  C   UNL     1      48.609   6.580  15.210  0.00  0.00    +0.000 C 
ATOM      3  N   UNL     1      47.489   6.434  14.428  0.00  0.00    +0.000 N 
ATOM      4  H   UNL     1      47.383   7.005  13.595  0.00  0.00    +0.000 HD
ENDROOT
BRANCH   2   5
ATOM      5  C   UNL     1      49.397   7.800  15.009  0.00  0.00    +0.000 A 
ATOM      6  C   UNL     1      49.717   8.602  16.097  0.00  0.00    +0.000 A 
ATOM      7  S   UNL     1      50.644   9.972  15.684  0.00  0.00    +0.000 S 
ATOM      8  C   UNL     1      50.688   9.517  14.042  0.00  0.00    +0.000 A 
ATOM      9  N   UNL     1      51.369  10.257  13.129  0.00  0.00    +0.000 NA
ATOM     10  C   UNL     1      51.348   9.774  11.932  0.00  0.00    +0.000 A 
ATOM     11  N   UNL     1      50.692   8.627  11.562  0.00  0.00    +0.000 N 
ATOM     12  C   UNL     1      49.955   7.871  12.443  0.00  0.00    +0.000 A 
ATOM     13  O   UNL     1      49.327   6.888  12.069  0.00  0.00    +0.000 OA
ATOM     14  C   UNL     1      49.977   8.353  13.810  0.00  0.00    +0.000 A 
ATOM     15  H   UNL     1      50.698   8.315  10.602  0.00  0.00    +0.000 HD
ENDBRANCH   2   5
BRANCH   3  16
ATOM     16  C   UNL     1      46.724   5.216  14.492  0.00  0.00    +0.000 C 
BRANCH  16  17
ATOM     17  C   UNL     1      46.159   4.824  13.154  0.00  0.00    +0.000 A 
ATOM     18  C   UNL     1      45.739   3.510  12.925  0.00  0.00    +0.000 A 
ATOM     19  C   UNL     1      45.153   3.147  11.709  0.00  0.00    +0.000 A 
ATOM     20  C   UNL     1      44.968   4.089  10.687  0.00  0.00    +0.000 A 
ATOM     21  C   UNL     1      45.450   5.390  10.898  0.00  0.00    +0.000 A 
ATOM     22  C   UNL     1      46.040   5.755  12.115  0.00  0.00    +0.000 A 
BRANCH  20  23
ATOM     23  C   UNL     1      44.325   3.735   9.359  0.00  0.00    +0.000 C 
BRANCH  23  24
ATOM     24  C   UNL     1      44.667   2.331   8.834  0.00  0.00    +0.000 C 
BRANCH  24  25
ATOM     25  C   UNL     1      45.817   2.316   7.864  0.00  0.00    +0.000 A 
ATOM     26  C   UNL     1      46.035   3.372   6.977  0.00  0.00    +0.000 A 
ATOM     27  C   UNL     1      47.084   3.302   6.064  0.00  0.00    +0.000 A 
ATOM     28  C   UNL     1      47.890   2.174   6.075  0.00  0.00    +0.000 A 
ATOM     29  N   UNL     1      47.719   1.140   6.925  0.00  0.00    +0.000 NA
ATOM     30  C   UNL     1      46.690   1.233   7.797  0.00  0.00    +0.000 A 
ENDBRANCH  24  25
ENDBRANCH  23  24
ENDBRANCH  20  23
ENDBRANCH  16  17
ENDBRANCH   3  16
TORSDOF 6
ENDMDL
MODEL 6
REMARK VINA RESULT:    -7.396      2.276      3.184
REMARK INTER + INTRA:         -11.169
REMARK INTER:                 -10.102
REMARK INTRA:                  -1.067
REMARK UNBOUND:                -1.180
REMARK  Name = 
REMARK  6 active torsions:
REMARK  status: ('A' for Active; 'I' for Inactive)
REMARK    1  A    between atoms: C_2  and  C_19
REMARK    2  A    between atoms: N_3  and  C_4
REMARK    3  A    between atoms: C_4  and  C_5
REMARK    4  A    between atoms: C_8  and  C_9
REMARK    5  A    between atoms: C_9  and  C_10
REMARK    6  A    between atoms: C_10  and  C_11
REMARK                            x       y       z     vdW  Elec       q    Type
REMARK                         _______ _______ _______ _____ _____    ______ ____
ROOT
ATOM      1  O   UNL     1      49.281   3.954  16.801  0.00  0.00    +0.000 OA
ATOM      2  C   UNL     1      48.782   5.066  16.641  0.00  0.00    +0.000 C 
ATOM      3  N   UNL     1      47.603   5.245  15.959  0.00  0.00    +0.000 N 
ATOM      4  H   UNL     1      47.341   6.176  15.652  0.00  0.00    +0.000 HD
ENDROOT
BRANCH   2   5
ATOM      5  C   UNL     1      49.402   6.265  17.210  0.00  0.00    +0.000 A 
ATOM      6  C   UNL     1      50.594   6.744  16.683  0.00  0.00    +0.000 A 
ATOM      7  S   UNL     1      51.167   8.151  17.458  0.00  0.00    +0.000 S 
ATOM      8  C   UNL     1      49.817   8.194  18.497  0.00  0.00    +0.000 A 
ATOM      9  N   UNL     1      49.666   9.193  19.407  0.00  0.00    +0.000 NA
ATOM     10  C   UNL     1      48.580   9.120  20.100  0.00  0.00    +0.000 A 
ATOM     11  N   UNL     1      47.639   8.129  19.980  0.00  0.00    +0.000 N 
ATOM     12  C   UNL     1      47.772   7.076  19.105  0.00  0.00    +0.000 A 
ATOM     13  O   UNL     1      46.946   6.171  19.066  0.00  0.00    +0.000 OA
ATOM     14  C   UNL     1      48.960   7.132  18.276  0.00  0.00    +0.000 A 
ATOM     15  H   UNL     1      46.820   8.119  20.569  0.00  0.00    +0.000 HD
ENDBRANCH   2   5
BRANCH   3  16
ATOM     16  C   UNL     1      46.990   4.132  15.283  0.00  0.00    +0.000 C 
BRANCH  16  17
ATOM     17  C   UNL     1      46.539   4.485  13.891  0.00  0.00    +0.000 A 
ATOM     18  C   UNL     1      46.940   5.690  13.306  0.00  0.00    +0.000 A 
ATOM     19  C   UNL     1      46.582   6.001  11.991  0.00  0.00    +0.000 A 
ATOM     20  C   UNL     1      45.814   5.114  11.223  0.00  0.00    +0.000 A 
ATOM     21  C   UNL     1      45.360   3.937  11.836  0.00  0.00    +0.000 A 
ATOM     22  C   UNL     1      45.716   3.625  13.155  0.00  0.00    +0.000 A 
BRANCH  20  23
ATOM     23  C   UNL     1      45.417   5.412   9.789  0.00  0.00    +0.000 C 
BRANCH  23  24
ATOM     24  C   UNL     1      44.674   4.269   9.078  0.00  0.00    +0.000 C 
BRANCH  24  25
ATOM     25  C   UNL     1      45.591   3.293   8.391  0.00  0.00    +0.000 A 
ATOM     26  C   UNL     1      46.467   3.701   7.383  0.00  0.00    +0.000 A 
ATOM     27  C   UNL     1      47.268   2.761   6.742  0.00  0.00    +0.000 A 
ATOM     28  C   UNL     1      47.174   1.437   7.140  0.00  0.00    +0.000 A 
ATOM     29  N   UNL     1      46.351   1.006   8.119  0.00  0.00    +0.000 NA
ATOM     30  C   UNL     1      45.580   1.940   8.720  0.00  0.00    +0.000 A 
ENDBRANCH  24  25
ENDBRANCH  23  24
ENDBRANCH  20  23
ENDBRANCH  16  17
ENDBRANCH   3  16
TORSDOF 6
ENDMDL
MODEL 7
REMARK VINA RESULT:    -7.182      1.936      2.807
REMARK INTER + INTRA:         -10.880
REMARK INTER:                 -10.072
REMARK INTRA:                  -0.808
REMARK UNBOUND:                -1.180
REMARK  Name = 
REMARK  6 active torsions:
REMARK  status: ('A' for Active; 'I' for Inactive)
REMARK    1  A    between atoms: C_2  and  C_19
REMARK    2  A    between atoms: N_3  and  C_4
REMARK    3  A    between atoms: C_4  and  C_5
REMARK    4  A    between atoms: C_8  and  C_9
REMARK    5  A    between atoms: C_9  and  C_10
REMARK    6  A    between atoms: C_10  and  C_11
REMARK                            x       y       z     vdW  Elec       q    Type
REMARK                         _______ _______ _______ _____ _____    ______ ____
ROOT
ATOM      1  O   UNL     1      49.338   6.713  13.467  0.00  0.00    +0.000 OA
ATOM      2  C   UNL     1      48.703   6.894  14.503  0.00  0.00    +0.000 C 
ATOM      3  N   UNL     1      47.445   7.446  14.499  0.00  0.00    +0.000 N 
ATOM      4  H   UNL     1      47.048   7.788  15.369  0.00  0.00    +0.000 HD
ENDROOT
BRANCH   2   5
ATOM      5  C   UNL     1      49.241   6.490  15.804  0.00  0.00    +0.000 A 
ATOM      6  C   UNL     1      48.470   5.714  16.660  0.00  0.00    +0.000 A 
ATOM      7  S   UNL     1      49.255   5.329  18.124  0.00  0.00    +0.000 S 
ATOM      8  C   UNL     1      50.670   6.149  17.646  0.00  0.00    +0.000 A 
ATOM      9  N   UNL     1      51.768   6.173  18.446  0.00  0.00    +0.000 NA
ATOM     10  C   UNL     1      52.779   6.797  17.941  0.00  0.00    +0.000 A 
ATOM     11  N   UNL     1      52.785   7.416  16.716  0.00  0.00    +0.000 N 
ATOM     12  C   UNL     1      51.684   7.454  15.893  0.00  0.00    +0.000 A 
ATOM     13  O   UNL     1      51.700   8.070  14.834  0.00  0.00    +0.000 OA
ATOM     14  C   UNL     1      50.532   6.734  16.401  0.00  0.00    +0.000 A 
ATOM     15  H   UNL     1      53.604   7.906  16.389  0.00  0.00    +0.000 HD
ENDBRANCH   2   5
BRANCH   3  16
ATOM     16  C   UNL     1      46.892   7.964  13.275  0.00  0.00    +0.000 C 
BRANCH  16  17
ATOM     17  C   UNL     1      46.176   6.907  12.478  0.00  0.00    +0.000 A 
ATOM     18  C   UNL     1      46.394   6.796  11.102  0.00  0.00    +0.000 A 
ATOM     19  C   UNL     1      45.785   5.778  10.361  0.00  0.00    +0.000 A 
ATOM     20  C   UNL     1      44.944   4.842  10.977  0.00  0.00    +0.000 A 
ATOM     21  C   UNL     1      44.679   4.996  12.346  0.00  0.00    +0.000 A 
ATOM     22  C   UNL     1      45.285   6.017  13.089  0.00  0.00    +0.000 A 
BRANCH  20  23
ATOM     23  C   UNL     1      44.277   3.717  10.207  0.00  0.00    +0.000 C 
BRANCH  23  24
ATOM     24  C   UNL     1      44.392   3.828   8.678  0.00  0.00    +0.000 C 
BRANCH  24  25
ATOM     25  C   UNL     1      45.472   2.959   8.093  0.00  0.00    +0.000 A 
ATOM     26  C   UNL     1      46.297   3.416   7.063  0.00  0.00    +0.000 A 
ATOM     27  C   UNL     1      47.256   2.567   6.518  0.00  0.00    +0.000 A 
ATOM     28  C   UNL     1      47.366   1.284   7.031  0.00  0.00    +0.000 A 
ATOM     29  N   UNL     1      46.597   0.811   8.035  0.00  0.00    +0.000 NA
ATOM     30  C   UNL     1      45.671   1.655   8.541  0.00  0.00    +0.000 A 
ENDBRANCH  24  25
ENDBRANCH  23  24
ENDBRANCH  20  23
ENDBRANCH  16  17
ENDBRANCH   3  16
TORSDOF 6
ENDMDL
MODEL 8
REMARK VINA RESULT:    -7.136      3.129      4.817
REMARK INTER + INTRA:         -10.818
REMARK INTER:                  -9.738
REMARK INTRA:                  -1.080
REMARK UNBOUND:                -1.180
REMARK  Name = 
REMARK  6 active torsions:
REMARK  status: ('A' for Active; 'I' for Inactive)
REMARK    1  A    between atoms: C_2  and  C_19
REMARK    2  A    between atoms: N_3  and  C_4
REMARK    3  A    between atoms: C_4  and  C_5
REMARK    4  A    between atoms: C_8  and  C_9
REMARK    5  A    between atoms: C_9  and  C_10
REMARK    6  A    between atoms: C_10  and  C_11
REMARK                            x       y       z     vdW  Elec       q    Type
REMARK                         _______ _______ _______ _____ _____    ______ ____
ROOT
ATOM      1  O   UNL     1      49.272   6.502  14.392  0.00  0.00    +0.000 OA
ATOM      2  C   UNL     1      48.821   7.337  13.612  0.00  0.00    +0.000 C 
ATOM      3  N   UNL     1      47.487   7.384  13.286  0.00  0.00    +0.000 N 
ATOM      4  H   UNL     1      47.189   7.927  12.481  0.00  0.00    +0.000 HD
ENDROOT
BRANCH   2   5
ATOM      5  C   UNL     1      49.681   8.364  13.016  0.00  0.00    +0.000 A 
ATOM      6  C   UNL     1      50.356   8.098  11.833  0.00  0.00    +0.000 A 
ATOM      7  S   UNL     1      51.301   9.404  11.279  0.00  0.00    +0.000 S 
ATOM      8  C   UNL     1      50.804  10.387  12.578  0.00  0.00    +0.000 A 
ATOM      9  N   UNL     1      51.229  11.674  12.685  0.00  0.00    +0.000 NA
ATOM     10  C   UNL     1      50.744  12.311  13.697  0.00  0.00    +0.000 A 
ATOM     11  N   UNL     1      49.888  11.773  14.624  0.00  0.00    +0.000 N 
ATOM     12  C   UNL     1      49.466  10.464  14.580  0.00  0.00    +0.000 A 
ATOM     13  O   UNL     1      48.753   9.995  15.458  0.00  0.00    +0.000 OA
ATOM     14  C   UNL     1      49.956   9.715  13.439  0.00  0.00    +0.000 A 
ATOM     15  H   UNL     1      49.561  12.321  15.406  0.00  0.00    +0.000 HD
ENDBRANCH   2   5
BRANCH   3  16
ATOM     16  C   UNL     1      46.599   6.349  13.746  0.00  0.00    +0.000 C 
BRANCH  16  17
ATOM     17  C   UNL     1      46.075   5.501  12.620  0.00  0.00    +0.000 A 
ATOM     18  C   UNL     1      45.654   4.190  12.863  0.00  0.00    +0.000 A 
ATOM     19  C   UNL     1      45.104   3.413  11.839  0.00  0.00    +0.000 A 
ATOM     20  C   UNL     1      44.958   3.926  10.543  0.00  0.00    +0.000 A 
ATOM     21  C   UNL     1      45.441   5.219  10.289  0.00  0.00    +0.000 A 
ATOM     22  C   UNL     1      45.995   5.998  11.314  0.00  0.00    +0.000 A 
BRANCH  20  23
ATOM     23  C   UNL     1      44.355   3.117   9.409  0.00  0.00    +0.000 C 
BRANCH  23  24
ATOM     24  C   UNL     1      45.151   1.860   9.023  0.00  0.00    +0.000 C 
BRANCH  24  25
ATOM     25  C   UNL     1      46.080   2.071   7.858  0.00  0.00    +0.000 A 
ATOM     26  C   UNL     1      46.009   3.221   7.069  0.00  0.00    +0.000 A 
ATOM     27  C   UNL     1      46.857   3.360   5.974  0.00  0.00    +0.000 A 
ATOM     28  C   UNL     1      47.758   2.341   5.707  0.00  0.00    +0.000 A 
ATOM     29  N   UNL     1      47.866   1.222   6.453  0.00  0.00    +0.000 NA
ATOM     30  C   UNL     1      47.027   1.112   7.508  0.00  0.00    +0.000 A 
ENDBRANCH  24  25
ENDBRANCH  23  24
ENDBRANCH  20  23
ENDBRANCH  16  17
ENDBRANCH   3  16
TORSDOF 6
ENDMDL
MODEL 9
REMARK VINA RESULT:    -6.906      1.649      2.062
REMARK INTER + INTRA:         -10.509
REMARK INTER:                  -9.300
REMARK INTRA:                  -1.209
REMARK UNBOUND:                -1.180
REMARK  Name = 
REMARK  6 active torsions:
REMARK  status: ('A' for Active; 'I' for Inactive)
REMARK    1  A    between atoms: C_2  and  C_19
REMARK    2  A    between atoms: N_3  and  C_4
REMARK    3  A    between atoms: C_4  and  C_5
REMARK    4  A    between atoms: C_8  and  C_9
REMARK    5  A    between atoms: C_9  and  C_10
REMARK    6  A    between atoms: C_10  and  C_11
REMARK                            x       y       z     vdW  Elec       q    Type
REMARK                         _______ _______ _______ _____ _____    ______ ____
ROOT
ATOM      1  O   UNL     1      48.401   8.342  16.625  0.00  0.00    +0.000 OA
ATOM      2  C   UNL     1      48.852   7.420  15.951  0.00  0.00    +0.000 C 
ATOM      3  N   UNL     1      48.562   7.285  14.614  0.00  0.00    +0.000 N 
ATOM      4  H   UNL     1      48.760   6.405  14.148  0.00  0.00    +0.000 HD
ENDROOT
BRANCH   2   5
ATOM      5  C   UNL     1      49.765   6.431  16.530  0.00  0.00    +0.000 A 
ATOM      6  C   UNL     1      51.039   6.815  16.927  0.00  0.00    +0.000 A 
ATOM      7  S   UNL     1      51.961   5.542  17.587  0.00  0.00    +0.000 S 
ATOM      8  C   UNL     1      50.672   4.442  17.405  0.00  0.00    +0.000 A 
ATOM      9  N   UNL     1      50.790   3.152  17.819  0.00  0.00    +0.000 NA
ATOM     10  C   UNL     1      49.725   2.443  17.655  0.00  0.00    +0.000 A 
ATOM     11  N   UNL     1      48.558   2.900  17.097  0.00  0.00    +0.000 N 
ATOM     12  C   UNL     1      48.408   4.183  16.625  0.00  0.00    +0.000 A 
ATOM     13  O   UNL     1      47.375   4.543  16.073  0.00  0.00    +0.000 OA
ATOM     14  C   UNL     1      49.568   5.032  16.820  0.00  0.00    +0.000 A 
ATOM     15  H   UNL     1      47.766   2.286  16.977  0.00  0.00    +0.000 HD
ENDBRANCH   2   5
BRANCH   3  16
ATOM     16  C   UNL     1      47.594   8.153  13.999  0.00  0.00    +0.000 C 
BRANCH  16  17
ATOM     17  C   UNL     1      46.622   7.402  13.129  0.00  0.00    +0.000 A 
ATOM     18  C   UNL     1      45.605   8.087  12.458  0.00  0.00    +0.000 A 
ATOM     19  C   UNL     1      44.735   7.411  11.596  0.00  0.00    +0.000 A 
ATOM     20  C   UNL     1      44.861   6.032  11.380  0.00  0.00    +0.000 A 
ATOM     21  C   UNL     1      45.842   5.339  12.106  0.00  0.00    +0.000 A 
ATOM     22  C   UNL     1      46.712   6.015  12.972  0.00  0.00    +0.000 A 
BRANCH  20  23
ATOM     23  C   UNL     1      43.944   5.267  10.444  0.00  0.00    +0.000 C 
BRANCH  23  24
ATOM     24  C   UNL     1      44.183   3.749  10.409  0.00  0.00    +0.000 C 
BRANCH  24  25
ATOM     25  C   UNL     1      45.093   3.310   9.294  0.00  0.00    +0.000 A 
ATOM     26  C   UNL     1      45.622   4.225   8.381  0.00  0.00    +0.000 A 
ATOM     27  C   UNL     1      46.425   3.774   7.338  0.00  0.00    +0.000 A 
ATOM     28  C   UNL     1      46.681   2.415   7.246  0.00  0.00    +0.000 A 
ATOM     29  N   UNL     1      46.200   1.502   8.115  0.00  0.00    +0.000 NA
ATOM     30  C   UNL     1      45.419   1.968   9.116  0.00  0.00    +0.000 A 
ENDBRANCH  24  25
ENDBRANCH  23  24
ENDBRANCH  20  23
ENDBRANCH  16  17
ENDBRANCH   3  16
TORSDOF 6
ENDMDL
