MODEL 1
REMARK VINA RESULT:    -7.084      0.000      0.000
REMARK INTER + INTRA:          -9.348
REMARK INTER:                  -8.741
REMARK INTRA:                  -0.607
REMARK UNBOUND:                -0.607
REMARK  Name = 
REMARK  4 active torsions:
REMARK  status: ('A' for Active; 'I' for Inactive)
REMARK    1  A    between atoms: C_2  and  C_3
REMARK    2  A    between atoms: N_8  and  C_9
REMARK    3  A    between atoms: C_9  and  C_10
REMARK    4  A    between atoms: C_15  and  N_16
REMARK                            x       y       z     vdW  Elec       q    Type
REMARK                         _______ _______ _______ _____ _____    ______ ____
ROOT
ATOM      1  C   UNL     1      43.885   4.985  11.828  0.00  0.00    +0.000 C 
ATOM      2  C   UNL     1      42.906   4.831  12.993  0.00  0.00    +0.000 C 
ATOM      3  C   UNL     1      42.423   5.371  11.689  0.00  0.00    +0.000 C 
ENDROOT
BRANCH   1   9
ATOM      4  C   UNL     1      45.949   2.114   8.371  0.00  0.00    +0.000 A 
ATOM      5  C   UNL     1      45.935   3.158   7.460  0.00  0.00    +0.000 A 
ATOM      6  C   UNL     1      45.446   4.377   7.893  0.00  0.00    +0.000 A 
ATOM      7  N   UNL     1      44.974   4.602   9.143  0.00  0.00    +0.000 NA
ATOM      8  C   UNL     1      44.992   3.585  10.027  0.00  0.00    +0.000 A 
ATOM      9  N   UNL     1      44.456   3.715  11.332  0.00  0.00    +0.000 N 
ATOM     10  C   UNL     1      45.474   2.326   9.666  0.00  0.00    +0.000 A 
ATOM     11  H   UNL     1      45.118   3.312  11.990  0.00  0.00    +0.000 HD
BRANCH   4  13
ATOM     12  N   UNL     1      46.808  -0.229   7.672  0.00  0.00    +0.000 NA
ATOM     13  C   UNL     1      46.424   0.816   7.984  0.00  0.00    +0.000 C 
ENDBRANCH   4  13
ENDBRANCH   1   9
BRANCH   1  14
ATOM     14  C   UNL     1      44.881   6.135  11.885  0.00  0.00    +0.000 A 
ATOM     15  C   UNL     1      44.494   7.435  11.537  0.00  0.00    +0.000 A 
ATOM     16  C   UNL     1      45.342   8.516  11.757  0.00  0.00    +0.000 A 
ATOM     17  C   UNL     1      46.595   8.303  12.326  0.00  0.00    +0.000 A 
ATOM     18  F   UNL     1      47.363   9.381  12.555  0.00  0.00    +0.000 F 
ATOM     19  C   UNL     1      47.062   7.016  12.638  0.00  0.00    +0.000 A 
ATOM     20  C   UNL     1      46.190   5.948  12.372  0.00  0.00    +0.000 A 
BRANCH  19  21
ATOM     21  N   UNL     1      48.275   6.757  13.251  0.00  0.00    +0.000 N 
ATOM     22  C   UNL     1      48.394   6.610  14.709  0.00  0.00    +0.000 C 
ATOM     23  C   UNL     1      49.253   7.729  15.309  0.00  0.00    +0.000 C 
ATOM     24  O   UNL     1      50.521   7.843  14.638  0.00  0.00    +0.000 OA
ATOM     25  C   UNL     1      50.315   8.139  13.247  0.00  0.00    +0.000 C 
ATOM     26  C   UNL     1      49.533   7.022  12.539  0.00  0.00    +0.000 C 
ENDBRANCH  19  21
ENDBRANCH   1  14
TORSDOF 4
ENDMDL
MODEL 2
REMARK VINA RESULT:    -6.883      1.512      2.167
REMARK INTER + INTRA:          -9.099
REMARK INTER:                  -8.322
REMARK INTRA:                  -0.778
REMARK UNBOUND:                -0.607
REMARK  Name = 
REMARK  4 active torsions:
REMARK  status: ('A' for Active; 'I' for Inactive)
REMARK    1  A    between atoms: C_2  and  C_3
REMARK    2  A    between atoms: N_8  and  C_9
REMARK    3  A    between atoms: C_9  and  C_10
REMARK    4  A    between atoms: C_15  and  N_16
REMARK                            x       y       z     vdW  Elec       q    Type
REMARK                         _______ _______ _______ _____ _____    ______ ____
ROOT
ATOM      1  C   UNL     1      44.218   4.727  11.569  0.00  0.00    +0.000 C 
ATOM      2  C   UNL     1      42.782   4.780  12.092  0.00  0.00    +0.000 C 
ATOM      3  C   UNL     1      43.189   5.665  10.962  0.00  0.00    +0.000 C 
ENDROOT
BRANCH   1   9
ATOM      4  C   UNL     1      46.220   1.905   8.037  0.00  0.00    +0.000 A 
ATOM      5  C   UNL     1      46.548   3.026   7.292  0.00  0.00    +0.000 A 
ATOM      6  C   UNL     1      46.236   4.262   7.828  0.00  0.00    +0.000 A 
ATOM      7  N   UNL     1      45.624   4.437   9.024  0.00  0.00    +0.000 NA
ATOM      8  C   UNL     1      45.310   3.343   9.747  0.00  0.00    +0.000 A 
ATOM      9  N   UNL     1      44.610   3.431  10.975  0.00  0.00    +0.000 N 
ATOM     10  C   UNL     1      45.596   2.061   9.275  0.00  0.00    +0.000 A 
ATOM     11  H   UNL     1      45.071   2.826  11.650  0.00  0.00    +0.000 HD
BRANCH   4  13
ATOM     12  N   UNL     1      46.720  -0.470   7.126  0.00  0.00    +0.000 NA
ATOM     13  C   UNL     1      46.496   0.590   7.533  0.00  0.00    +0.000 C 
ENDBRANCH   4  13
ENDBRANCH   1   9
BRANCH   1  14
ATOM     14  C   UNL     1      45.305   5.378  12.414  0.00  0.00    +0.000 A 
ATOM     15  C   UNL     1      45.795   4.745  13.563  0.00  0.00    +0.000 A 
ATOM     16  C   UNL     1      46.906   5.245  14.234  0.00  0.00    +0.000 A 
ATOM     17  C   UNL     1      47.536   6.393  13.763  0.00  0.00    +0.000 A 
ATOM     18  F   UNL     1      48.628   6.816  14.422  0.00  0.00    +0.000 F 
ATOM     19  C   UNL     1      47.054   7.105  12.654  0.00  0.00    +0.000 A 
ATOM     20  C   UNL     1      45.912   6.588  12.021  0.00  0.00    +0.000 A 
BRANCH  19  21
ATOM     21  N   UNL     1      47.673   8.220  12.116  0.00  0.00    +0.000 N 
ATOM     22  C   UNL     1      48.987   8.140  11.463  0.00  0.00    +0.000 C 
ATOM     23  C   UNL     1      50.041   8.935  12.242  0.00  0.00    +0.000 C 
ATOM     24  O   UNL     1      49.607  10.284  12.497  0.00  0.00    +0.000 OA
ATOM     25  C   UNL     1      48.398  10.271  13.273  0.00  0.00    +0.000 C 
ATOM     26  C   UNL     1      47.254   9.567  12.527  0.00  0.00    +0.000 C 
ENDBRANCH  19  21
ENDBRANCH   1  14
TORSDOF 4
ENDMDL
MODEL 3
REMARK VINA RESULT:    -6.357      5.039      8.124
REMARK INTER + INTRA:          -8.451
REMARK INTER:                  -7.995
REMARK INTRA:                  -0.456
REMARK UNBOUND:                -0.607
REMARK  Name = 
REMARK  4 active torsions:
REMARK  status: ('A' for Active; 'I' for Inactive)
REMARK    1  A    between atoms: C_2  and  C_3
REMARK    2  A    between atoms: N_8  and  C_9
REMARK    3  A    between atoms: C_9  and  C_10
REMARK    4  A    between atoms: C_15  and  N_16
REMARK                            x       y       z     vdW  Elec       q    Type
REMARK                         _______ _______ _______ _____ _____    ______ ____
ROOT
ATOM      1  C   UNL     1      43.509  10.705  10.785  0.00  0.00    +0.000 C 
ATOM      2  C   UNL     1      44.180  11.668   9.804  0.00  0.00    +0.000 C 
ATOM      3  C   UNL     1      43.212  10.653   9.296  0.00  0.00    +0.000 C 
ENDROOT
BRANCH   1   9
ATOM      4  C   UNL     1      39.142  11.579  12.931  0.00  0.00    +0.000 A 
ATOM      5  C   UNL     1      38.511  10.700  12.065  0.00  0.00    +0.000 A 
ATOM      6  C   UNL     1      39.300  10.040  11.140  0.00  0.00    +0.000 A 
ATOM      7  N   UNL     1      40.639  10.211  11.028  0.00  0.00    +0.000 NA
ATOM      8  C   UNL     1      41.248  11.065  11.875  0.00  0.00    +0.000 A 
ATOM      9  N   UNL     1      42.632  11.353  11.782  0.00  0.00    +0.000 N 
ATOM     10  C   UNL     1      40.521  11.765  12.838  0.00  0.00    +0.000 A 
ATOM     11  H   UNL     1      43.028  11.319  12.718  0.00  0.00    +0.000 HD
BRANCH   4  13
ATOM     12  N   UNL     1      37.768  12.904  14.686  0.00  0.00    +0.000 NA
ATOM     13  C   UNL     1      38.382  12.313  13.903  0.00  0.00    +0.000 C 
ENDBRANCH   4  13
ENDBRANCH   1   9
BRANCH   1  14
ATOM     14  C   UNL     1      44.347   9.562  11.342  0.00  0.00    +0.000 A 
ATOM     15  C   UNL     1      45.427   9.816  12.196  0.00  0.00    +0.000 A 
ATOM     16  C   UNL     1      46.081   8.776  12.849  0.00  0.00    +0.000 A 
ATOM     17  C   UNL     1      45.662   7.465  12.647  0.00  0.00    +0.000 A 
ATOM     18  F   UNL     1      46.298   6.497  13.328  0.00  0.00    +0.000 F 
ATOM     19  C   UNL     1      44.626   7.143  11.755  0.00  0.00    +0.000 A 
ATOM     20  C   UNL     1      44.012   8.216  11.091  0.00  0.00    +0.000 A 
BRANCH  19  21
ATOM     21  N   UNL     1      44.139   5.863  11.557  0.00  0.00    +0.000 N 
ATOM     22  C   UNL     1      42.927   5.380  12.233  0.00  0.00    +0.000 C 
ATOM     23  C   UNL     1      43.251   4.233  13.197  0.00  0.00    +0.000 C 
ATOM     24  O   UNL     1      44.001   3.190  12.549  0.00  0.00    +0.000 OA
ATOM     25  C   UNL     1      45.243   3.716  12.052  0.00  0.00    +0.000 C 
ATOM     26  C   UNL     1      45.012   4.818  11.006  0.00  0.00    +0.000 C 
ENDBRANCH  19  21
ENDBRANCH   1  14
TORSDOF 4
ENDMDL
MODEL 4
REMARK VINA RESULT:    -6.226      3.106      6.990
REMARK INTER + INTRA:          -8.289
REMARK INTER:                  -8.061
REMARK INTRA:                  -0.228
REMARK UNBOUND:                -0.607
REMARK  Name = 
REMARK  4 active torsions:
REMARK  status: ('A' for Active; 'I' for Inactive)
REMARK    1  A    between atoms: C_2  and  C_3
REMARK    2  A    between atoms: N_8  and  C_9
REMARK    3  A    between atoms: C_9  and  C_10
REMARK    4  A    between atoms: C_15  and  N_16
REMARK                            x       y       z     vdW  Elec       q    Type
REMARK                         _______ _______ _______ _____ _____    ______ ____
ROOT
ATOM      1  C   UNL     1      45.737   7.239  11.838  0.00  0.00    +0.000 C 
ATOM      2  C   UNL     1      44.785   8.379  11.477  0.00  0.00    +0.000 C 
ATOM      3  C   UNL     1      45.148   8.145  12.904  0.00  0.00    +0.000 C 
ENDROOT
BRANCH   1   9
ATOM      4  C   UNL     1      50.602   8.021  12.245  0.00  0.00    +0.000 A 
ATOM      5  C   UNL     1      50.493   8.148  13.620  0.00  0.00    +0.000 A 
ATOM      6  C   UNL     1      49.239   7.983  14.178  0.00  0.00    +0.000 A 
ATOM      7  N   UNL     1      48.120   7.717  13.461  0.00  0.00    +0.000 NA
ATOM      8  C   UNL     1      48.232   7.591  12.124  0.00  0.00    +0.000 A 
ATOM      9  N   UNL     1      47.104   7.381  11.293  0.00  0.00    +0.000 N 
ATOM     10  C   UNL     1      49.465   7.741  11.488  0.00  0.00    +0.000 A 
ATOM     11  H   UNL     1      47.329   6.643  10.630  0.00  0.00    +0.000 HD
BRANCH   4  13
ATOM     12  N   UNL     1      52.892   8.346  11.073  0.00  0.00    +0.000 NA
ATOM     13  C   UNL     1      51.871   8.201  11.596  0.00  0.00    +0.000 C 
ENDBRANCH   4  13
ENDBRANCH   1   9
BRANCH   1  14
ATOM     14  C   UNL     1      45.193   5.817  11.789  0.00  0.00    +0.000 A 
ATOM     15  C   UNL     1      44.515   5.272  12.887  0.00  0.00    +0.000 A 
ATOM     16  C   UNL     1      43.861   4.049  12.787  0.00  0.00    +0.000 A 
ATOM     17  C   UNL     1      43.886   3.352  11.582  0.00  0.00    +0.000 A 
ATOM     18  F   UNL     1      43.208   2.193  11.521  0.00  0.00    +0.000 F 
ATOM     19  C   UNL     1      44.600   3.818  10.466  0.00  0.00    +0.000 A 
ATOM     20  C   UNL     1      45.272   5.041  10.616  0.00  0.00    +0.000 A 
BRANCH  19  21
ATOM     21  N   UNL     1      44.612   3.190   9.233  0.00  0.00    +0.000 N 
ATOM     22  C   UNL     1      44.868   1.750   9.096  0.00  0.00    +0.000 C 
ATOM     23  C   UNL     1      46.172   1.489   8.335  0.00  0.00    +0.000 C 
ATOM     24  O   UNL     1      46.208   2.200   7.084  0.00  0.00    +0.000 OA
ATOM     25  C   UNL     1      46.107   3.614   7.320  0.00  0.00    +0.000 C 
ATOM     26  C   UNL     1      44.781   3.980   8.005  0.00  0.00    +0.000 C 
ENDBRANCH  19  21
ENDBRANCH   1  14
TORSDOF 4
ENDMDL
MODEL 5
REMARK VINA RESULT:    -6.168      4.540      8.146
REMARK INTER + INTRA:          -8.218
REMARK INTER:                  -7.962
REMARK INTRA:                  -0.256
REMARK UNBOUND:                -0.607
REMARK  Name = 
REMARK  4 active torsions:
REMARK  status: ('A' for Active; 'I' for Inactive)
REMARK    1  A    between atoms: C_2  and  C_3
REMARK    2  A    between atoms: N_8  and  C_9
REMARK    3  A    between atoms: C_9  and  C_10
REMARK    4  A    between atoms: C_15  and  N_16
REMARK                            x       y       z     vdW  Elec       q    Type
REMARK                         _______ _______ _______ _____ _____    ______ ____
ROOT
ATOM      1  C   UNL     1      48.092   4.601  16.872  0.00  0.00    +0.000 C 
ATOM      2  C   UNL     1      47.107   4.721  18.036  0.00  0.00    +0.000 C 
ATOM      3  C   UNL     1      47.309   3.400  17.374  0.00  0.00    +0.000 C 
ENDROOT
BRANCH   1   9
ATOM      4  C   UNL     1      52.745   3.266  17.882  0.00  0.00    +0.000 A 
ATOM      5  C   UNL     1      52.430   1.930  17.693  0.00  0.00    +0.000 A 
ATOM      6  C   UNL     1      51.132   1.627  17.322  0.00  0.00    +0.000 A 
ATOM      7  N   UNL     1      50.159   2.553  17.144  0.00  0.00    +0.000 NA
ATOM      8  C   UNL     1      50.472   3.852  17.325  0.00  0.00    +0.000 A 
ATOM      9  N   UNL     1      49.500   4.879  17.226  0.00  0.00    +0.000 N 
ATOM     10  C   UNL     1      51.761   4.237  17.697  0.00  0.00    +0.000 A 
ATOM     11  H   UNL     1      49.891   5.635  16.671  0.00  0.00    +0.000 HD
BRANCH   4  13
ATOM     12  N   UNL     1      55.132   3.960  18.615  0.00  0.00    +0.000 NA
ATOM     13  C   UNL     1      54.067   3.651  18.288  0.00  0.00    +0.000 C 
ENDBRANCH   4  13
ENDBRANCH   1   9
BRANCH   1  14
ATOM     14  C   UNL     1      47.668   5.163  15.522  0.00  0.00    +0.000 A 
ATOM     15  C   UNL     1      48.471   6.090  14.848  0.00  0.00    +0.000 A 
ATOM     16  C   UNL     1      48.182   6.469  13.541  0.00  0.00    +0.000 A 
ATOM     17  C   UNL     1      47.076   5.924  12.895  0.00  0.00    +0.000 A 
ATOM     18  F   UNL     1      46.858   6.290  11.621  0.00  0.00    +0.000 F 
ATOM     19  C   UNL     1      46.199   5.038  13.541  0.00  0.00    +0.000 A 
ATOM     20  C   UNL     1      46.506   4.704  14.869  0.00  0.00    +0.000 A 
BRANCH  19  21
ATOM     21  N   UNL     1      45.117   4.430  12.928  0.00  0.00    +0.000 N 
ATOM     22  C   UNL     1      45.283   3.317  11.982  0.00  0.00    +0.000 C 
ATOM     23  C   UNL     1      44.822   3.714  10.575  0.00  0.00    +0.000 C 
ATOM     24  O   UNL     1      43.492   4.263  10.588  0.00  0.00    +0.000 OA
ATOM     25  C   UNL     1      43.454   5.438  11.415  0.00  0.00    +0.000 C 
ATOM     26  C   UNL     1      43.819   5.116  12.873  0.00  0.00    +0.000 C 
ENDBRANCH  19  21
ENDBRANCH   1  14
TORSDOF 4
ENDMDL
MODEL 6
REMARK VINA RESULT:    -6.028      3.023      7.734
REMARK INTER + INTRA:          -8.044
REMARK INTER:                  -7.245
REMARK INTRA:                  -0.799
REMARK UNBOUND:                -0.607
REMARK  Name = 
REMARK  4 active torsions:
REMARK  status: ('A' for Active; 'I' for Inactive)
REMARK    1  A    between atoms: C_2  and  C_3
REMARK    2  A    between atoms: N_8  and  C_9
REMARK    3  A    between atoms: C_9  and  C_10
REMARK    4  A    between atoms: C_15  and  N_16
REMARK                            x       y       z     vdW  Elec       q    Type
REMARK                         _______ _______ _______ _____ _____    ______ ____
ROOT
ATOM      1  C   UNL     1      49.218   7.976  12.635  0.00  0.00    +0.000 C 
ATOM      2  C   UNL     1      50.105   8.060  11.392  0.00  0.00    +0.000 C 
ATOM      3  C   UNL     1      49.784   9.301  12.155  0.00  0.00    +0.000 C 
ENDROOT
BRANCH   1   9
ATOM      4  C   UNL     1      49.973   6.975  17.418  0.00  0.00    +0.000 A 
ATOM      5  C   UNL     1      49.190   8.055  17.794  0.00  0.00    +0.000 A 
ATOM      6  C   UNL     1      48.603   8.798  16.787  0.00  0.00    +0.000 A 
ATOM      7  N   UNL     1      48.758   8.540  15.466  0.00  0.00    +0.000 NA
ATOM      8  C   UNL     1      49.519   7.487  15.105  0.00  0.00    +0.000 A 
ATOM      9  N   UNL     1      49.788   7.186  13.747  0.00  0.00    +0.000 N 
ATOM     10  C   UNL     1      50.141   6.687  16.064  0.00  0.00    +0.000 A 
ATOM     11  H   UNL     1      49.660   6.187  13.610  0.00  0.00    +0.000 HD
BRANCH   4  13
ATOM     12  N   UNL     1      51.159   5.526  19.210  0.00  0.00    +0.000 NA
ATOM     13  C   UNL     1      50.630   6.172  18.411  0.00  0.00    +0.000 C 
ENDBRANCH   4  13
ENDBRANCH   1   9
BRANCH   1  14
ATOM     14  C   UNL     1      47.723   7.769  12.428  0.00  0.00    +0.000 A 
ATOM     15  C   UNL     1      46.859   8.865  12.306  0.00  0.00    +0.000 A 
ATOM     16  C   UNL     1      45.530   8.688  11.939  0.00  0.00    +0.000 A 
ATOM     17  C   UNL     1      45.048   7.405  11.695  0.00  0.00    +0.000 A 
ATOM     18  F   UNL     1      43.767   7.287  11.305  0.00  0.00    +0.000 F 
ATOM     19  C   UNL     1      45.849   6.264  11.860  0.00  0.00    +0.000 A 
ATOM     20  C   UNL     1      47.177   6.481  12.263  0.00  0.00    +0.000 A 
BRANCH  19  21
ATOM     21  N   UNL     1      45.434   4.974  11.581  0.00  0.00    +0.000 N 
ATOM     22  C   UNL     1      45.175   4.521  10.207  0.00  0.00    +0.000 C 
ATOM     23  C   UNL     1      43.696   4.173  10.009  0.00  0.00    +0.000 C 
ATOM     24  O   UNL     1      43.227   3.255  11.014  0.00  0.00    +0.000 OA
ATOM     25  C   UNL     1      43.374   3.840  12.318  0.00  0.00    +0.000 C 
ATOM     26  C   UNL     1      44.846   4.143  12.640  0.00  0.00    +0.000 C 
ENDBRANCH  19  21
ENDBRANCH   1  14
TORSDOF 4
ENDMDL
MODEL 7
REMARK VINA RESULT:    -5.907      4.891      7.272
REMARK INTER + INTRA:          -7.895
REMARK INTER:                  -7.254
REMARK INTRA:                  -0.641
REMARK UNBOUND:                -0.607
REMARK  Name = 
REMARK  4 active torsions:
REMARK  status: ('A' for Active; 'I' for Inactive)
REMARK    1  A    between atoms: C_2  and  C_3
REMARK    2  A    between atoms: N_8  and  C_9
REMARK    3  A    between atoms: C_9  and  C_10
REMARK    4  A    between atoms: C_15  and  N_16
REMARK                            x       y       z     vdW  Elec       q    Type
REMARK                         _______ _______ _______ _____ _____    ______ ____
ROOT
ATOM      1  C   UNL     1      48.044   4.908  17.255  0.00  0.00    +0.000 C 
ATOM      2  C   UNL     1      47.365   5.382  18.541  0.00  0.00    +0.000 C 
ATOM      3  C   UNL     1      48.344   6.272  17.853  0.00  0.00    +0.000 C 
ENDROOT
BRANCH   1   9
ATOM      4  C   UNL     1      46.497   5.619  12.614  0.00  0.00    +0.000 A 
ATOM      5  C   UNL     1      47.559   6.474  12.363  0.00  0.00    +0.000 A 
ATOM      6  C   UNL     1      48.466   6.680  13.387  0.00  0.00    +0.000 A 
ATOM      7  N   UNL     1      48.371   6.107  14.610  0.00  0.00    +0.000 NA
ATOM      8  C   UNL     1      47.338   5.273  14.848  0.00  0.00    +0.000 A 
ATOM      9  N   UNL     1      47.125   4.685  16.119  0.00  0.00    +0.000 N 
ATOM     10  C   UNL     1      46.383   5.012  13.864  0.00  0.00    +0.000 A 
ATOM     11  H   UNL     1      46.918   3.699  15.983  0.00  0.00    +0.000 HD
BRANCH   4  13
ATOM     12  N   UNL     1      44.707   5.179  10.791  0.00  0.00    +0.000 NA
ATOM     13  C   UNL     1      45.506   5.375  11.604  0.00  0.00    +0.000 C 
ENDBRANCH   4  13
ENDBRANCH   1   9
BRANCH   1  14
ATOM     14  C   UNL     1      49.146   3.864  17.379  0.00  0.00    +0.000 A 
ATOM     15  C   UNL     1      48.954   2.560  16.904  0.00  0.00    +0.000 A 
ATOM     16  C   UNL     1      50.010   1.658  16.849  0.00  0.00    +0.000 A 
ATOM     17  C   UNL     1      51.275   2.051  17.277  0.00  0.00    +0.000 A 
ATOM     18  F   UNL     1      52.273   1.157  17.169  0.00  0.00    +0.000 F 
ATOM     19  C   UNL     1      51.515   3.323  17.820  0.00  0.00    +0.000 A 
ATOM     20  C   UNL     1      50.417   4.196  17.888  0.00  0.00    +0.000 A 
BRANCH  19  21
ATOM     21  N   UNL     1      52.761   3.780  18.211  0.00  0.00    +0.000 N 
ATOM     22  C   UNL     1      53.360   3.399  19.497  0.00  0.00    +0.000 C 
ATOM     23  C   UNL     1      53.525   4.617  20.413  0.00  0.00    +0.000 C 
ATOM     24  O   UNL     1      54.220   5.689  19.751  0.00  0.00    +0.000 OA
ATOM     25  C   UNL     1      53.486   6.105  18.587  0.00  0.00    +0.000 C 
ATOM     26  C   UNL     1      53.348   4.963  17.568  0.00  0.00    +0.000 C 
ENDBRANCH  19  21
ENDBRANCH   1  14
TORSDOF 4
ENDMDL
MODEL 8
REMARK VINA RESULT:    -5.749      3.718      6.099
REMARK INTER + INTRA:          -7.701
REMARK INTER:                  -7.050
REMARK INTRA:                  -0.651
REMARK UNBOUND:                -0.607
REMARK  Name = 
REMARK  4 active torsions:
REMARK  status: ('A' for Active; 'I' for Inactive)
REMARK    1  A    between atoms: C_2  and  C_3
REMARK    2  A    between atoms: N_8  and  C_9
REMARK    3  A    between atoms: C_9  and  C_10
REMARK    4  A    between atoms: C_15  and  N_16
REMARK                            x       y       z     vdW  Elec       q    Type
REMARK                         _______ _______ _______ _____ _____    ______ ____
ROOT
ATOM      1  C   UNL     1      48.510   7.823  14.072  0.00  0.00    +0.000 C 
ATOM      2  C   UNL     1      49.379   8.877  13.385  0.00  0.00    +0.000 C 
ATOM      3  C   UNL     1      49.731   7.434  13.257  0.00  0.00    +0.000 C 
ENDROOT
BRANCH   1   9
ATOM      4  C   UNL     1      44.480   5.392  12.557  0.00  0.00    +0.000 A 
ATOM      5  C   UNL     1      45.105   4.173  12.767  0.00  0.00    +0.000 A 
ATOM      6  C   UNL     1      46.392   4.195  13.273  0.00  0.00    +0.000 A 
ATOM      7  N   UNL     1      47.073   5.330  13.562  0.00  0.00    +0.000 NA
ATOM      8  C   UNL     1      46.459   6.514  13.360  0.00  0.00    +0.000 A 
ATOM      9  N   UNL     1      47.121   7.748  13.571  0.00  0.00    +0.000 N 
ATOM     10  C   UNL     1      45.160   6.573  12.855  0.00  0.00    +0.000 A 
ATOM     11  H   UNL     1      46.496   8.361  14.088  0.00  0.00    +0.000 HD
BRANCH   4  13
ATOM     12  N   UNL     1      42.081   5.487  11.579  0.00  0.00    +0.000 NA
ATOM     13  C   UNL     1      43.152   5.445  12.015  0.00  0.00    +0.000 C 
ENDBRANCH   4  13
ENDBRANCH   1   9
BRANCH   1  14
ATOM     14  C   UNL     1      48.636   7.674  15.582  0.00  0.00    +0.000 A 
ATOM     15  C   UNL     1      48.350   8.748  16.434  0.00  0.00    +0.000 A 
ATOM     16  C   UNL     1      48.288   8.569  17.812  0.00  0.00    +0.000 A 
ATOM     17  C   UNL     1      48.520   7.308  18.354  0.00  0.00    +0.000 A 
ATOM     18  F   UNL     1      48.411   7.175  19.687  0.00  0.00    +0.000 F 
ATOM     19  C   UNL     1      48.872   6.208  17.556  0.00  0.00    +0.000 A 
ATOM     20  C   UNL     1      48.955   6.435  16.173  0.00  0.00    +0.000 A 
BRANCH  19  21
ATOM     21  N   UNL     1      49.061   4.925  18.039  0.00  0.00    +0.000 N 
ATOM     22  C   UNL     1      50.388   4.430  18.431  0.00  0.00    +0.000 C 
ATOM     23  C   UNL     1      50.841   3.283  17.522  0.00  0.00    +0.000 C 
ATOM     24  O   UNL     1      49.845   2.248  17.437  0.00  0.00    +0.000 OA
ATOM     25  C   UNL     1      48.625   2.785  16.898  0.00  0.00    +0.000 C 
ATOM     26  C   UNL     1      48.047   3.889  17.797  0.00  0.00    +0.000 C 
ENDBRANCH  19  21
ENDBRANCH   1  14
TORSDOF 4
ENDMDL
MODEL 9
REMARK VINA RESULT:    -5.672      2.862      4.789
REMARK INTER + INTRA:          -7.605
REMARK INTER:                  -7.512
REMARK INTRA:                  -0.093
REMARK UNBOUND:                -0.607
REMARK  Name = 
REMARK  4 active torsions:
REMARK  status: ('A' for Active; 'I' for Inactive)
REMARK    1  A    between atoms: C_2  and  C_3
REMARK    2  A    between atoms: N_8  and  C_9
REMARK    3  A    between atoms: C_9  and  C_10
REMARK    4  A    between atoms: C_15  and  N_16
REMARK                            x       y       z     vdW  Elec       q    Type
REMARK                         _______ _______ _______ _____ _____    ______ ____
ROOT
ATOM      1  C   UNL     1      47.191   7.525  13.287  0.00  0.00    +0.000 C 
ATOM      2  C   UNL     1      46.472   8.867  13.434  0.00  0.00    +0.000 C 
ATOM      3  C   UNL     1      47.186   8.547  12.164  0.00  0.00    +0.000 C 
ENDROOT
BRANCH   1   9
ATOM      4  C   UNL     1      44.501   3.927  11.223  0.00  0.00    +0.000 A 
ATOM      5  C   UNL     1      44.851   4.359   9.953  0.00  0.00    +0.000 A 
ATOM      6  C   UNL     1      45.711   5.438   9.861  0.00  0.00    +0.000 A 
ATOM      7  N   UNL     1      46.216   6.097  10.931  0.00  0.00    +0.000 NA
ATOM      8  C   UNL     1      45.876   5.671  12.164  0.00  0.00    +0.000 A 
ATOM      9  N   UNL     1      46.305   6.343  13.335  0.00  0.00    +0.000 N 
ATOM     10  C   UNL     1      45.016   4.586  12.339  0.00  0.00    +0.000 A 
ATOM     11  H   UNL     1      46.633   5.647  14.000  0.00  0.00    +0.000 HD
BRANCH   4  13
ATOM     12  N   UNL     1      42.867   1.938  11.530  0.00  0.00    +0.000 NA
ATOM     13  C   UNL     1      43.597   2.825  11.392  0.00  0.00    +0.000 C 
ENDBRANCH   4  13
ENDBRANCH   1   9
BRANCH   1  14
ATOM     14  C   UNL     1      48.512   7.343  14.024  0.00  0.00    +0.000 A 
ATOM     15  C   UNL     1      49.657   8.042  13.622  0.00  0.00    +0.000 A 
ATOM     16  C   UNL     1      50.814   8.020  14.395  0.00  0.00    +0.000 A 
ATOM     17  C   UNL     1      50.837   7.289  15.579  0.00  0.00    +0.000 A 
ATOM     18  F   UNL     1      51.963   7.329  16.311  0.00  0.00    +0.000 F 
ATOM     19  C   UNL     1      49.741   6.520  16.001  0.00  0.00    +0.000 A 
ATOM     20  C   UNL     1      48.603   6.542  15.179  0.00  0.00    +0.000 A 
BRANCH  19  21
ATOM     21  N   UNL     1      49.696   5.820  17.194  0.00  0.00    +0.000 N 
ATOM     22  C   UNL     1      50.590   4.686  17.464  0.00  0.00    +0.000 C 
ATOM     23  C   UNL     1      49.801   3.379  17.605  0.00  0.00    +0.000 C 
ATOM     24  O   UNL     1      48.731   3.506  18.559  0.00  0.00    +0.000 OA
ATOM     25  C   UNL     1      47.818   4.533  18.137  0.00  0.00    +0.000 C 
ATOM     26  C   UNL     1      48.507   5.904  18.054  0.00  0.00    +0.000 C 
ENDBRANCH  19  21
ENDBRANCH   1  14
TORSDOF 4
ENDMDL
