MODEL 1
REMARK VINA RESULT:    -7.949      0.000      0.000
REMARK INTER + INTRA:         -12.020
REMARK INTER:                 -11.202
REMARK INTRA:                  -0.818
REMARK UNBOUND:                -0.818
REMARK  Name = 
REMARK  9 active torsions:
REMARK  status: ('A' for Active; 'I' for Inactive)
REMARK    1  A    between atoms: C_1  and  C_2
REMARK    2  A    between atoms: C_2  and  C_3
REMARK    3  A    between atoms: C_2  and  N_18
REMARK    4  A    between atoms: C_6  and  C_7
REMARK    5  A    between atoms: C_7  and  N_8
REMARK    6  A    between atoms: N_8  and  C_9
REMARK    7  A    between atoms: C_9  and  C_10
REMARK    8  A    between atoms: N_18  and  C_19
REMARK    9  A    between atoms: C_20  and  C_22
REMARK                            x       y       z     vdW  Elec       q    Type
REMARK                         _______ _______ _______ _____ _____    ______ ____
ROOT
ATOM      1  C   UNL     1      49.549   7.546  12.657  0.00  0.00    +0.000 C 
ATOM      2  C   UNL     1      48.701   6.585  13.517  0.00  0.00    +0.000 C 
ENDROOT
BRANCH   2   3
ATOM      3  C   UNL     1      47.446   6.131  12.788  0.00  0.00    +0.000 A 
ATOM      4  C   UNL     1      46.960   6.832  11.674  0.00  0.00    +0.000 A 
ATOM      5  C   UNL     1      45.845   6.392  10.963  0.00  0.00    +0.000 A 
ATOM      6  C   UNL     1      45.181   5.224  11.362  0.00  0.00    +0.000 A 
ATOM      7  C   UNL     1      45.633   4.534  12.481  0.00  0.00    +0.000 A 
ATOM      8  C   UNL     1      46.749   4.985  13.201  0.00  0.00    +0.000 A 
BRANCH   6   9
ATOM      9  C   UNL     1      44.000   4.731  10.550  0.00  0.00    +0.000 C 
BRANCH   9  10
ATOM     10  N   UNL     1      44.421   4.302   9.213  0.00  0.00    +0.000 NA
ATOM     11  H   UNL     1      45.340   4.709   9.022  0.00  0.00    +0.000 HD
BRANCH  10  12
ATOM     12  C   UNL     1      44.537   2.843   9.134  0.00  0.00    +0.000 C 
BRANCH  12  13
ATOM     13  C   UNL     1      45.725   2.409   8.298  0.00  0.00    +0.000 A 
ATOM     14  C   UNL     1      46.437   3.337   7.557  0.00  0.00    +0.000 A 
ATOM     15  C   UNL     1      47.501   2.852   6.832  0.00  0.00    +0.000 A 
ATOM     16  N   UNL     1      47.860   1.556   6.815  0.00  0.00    +0.000 NA
ATOM     17  C   UNL     1      47.108   0.738   7.565  0.00  0.00    +0.000 A 
ATOM     18  N   UNL     1      46.054   1.096   8.313  0.00  0.00    +0.000 NA
ENDBRANCH  12  13
ENDBRANCH  10  12
ENDBRANCH   9  10
ENDBRANCH   6   9
ENDBRANCH   2   3
BRANCH   2  19
ATOM     19  N   UNL     1      48.426   7.155  14.850  0.00  0.00    +0.000 N 
ATOM     20  C   UNL     1      47.713   8.423  14.960  0.00  0.00    +0.000 C 
ATOM     21  C   UNL     1      48.674   6.357  15.975  0.00  0.00    +0.000 C 
ATOM     22  O   UNL     1      48.825   5.142  15.902  0.00  0.00    +0.000 OA
BRANCH  21  23
ATOM     23  C   UNL     1      48.954   7.046  17.253  0.00  0.00    +0.000 A 
ATOM     24  C   UNL     1      49.822   8.119  17.381  0.00  0.00    +0.000 A 
ATOM     25  S   UNL     1      50.363   8.366  18.978  0.00  0.00    +0.000 S 
ATOM     26  C   UNL     1      49.393   7.091  19.544  0.00  0.00    +0.000 A 
ATOM     27  N   UNL     1      49.472   6.675  20.833  0.00  0.00    +0.000 NA
ATOM     28  C   UNL     1      48.607   5.770  21.142  0.00  0.00    +0.000 A 
ATOM     29  N   UNL     1      47.640   5.281  20.298  0.00  0.00    +0.000 N 
ATOM     30  C   UNL     1      47.516   5.681  18.980  0.00  0.00    +0.000 A 
ATOM     31  O   UNL     1      46.556   5.355  18.296  0.00  0.00    +0.000 OA
ATOM     32  C   UNL     1      48.555   6.602  18.560  0.00  0.00    +0.000 A 
ATOM     33  H   UNL     1      46.912   4.678  20.648  0.00  0.00    +0.000 HD
ENDBRANCH  21  23
ENDBRANCH   2  19
TORSDOF 7
ENDMDL
MODEL 2
REMARK VINA RESULT:    -7.616      2.122      3.032
REMARK INTER + INTRA:         -11.551
REMARK INTER:                 -10.164
REMARK INTRA:                  -1.387
REMARK UNBOUND:                -0.818
REMARK  Name = 
REMARK  9 active torsions:
REMARK  status: ('A' for Active; 'I' for Inactive)
REMARK    1  A    between atoms: C_1  and  C_2
REMARK    2  A    between atoms: C_2  and  C_3
REMARK    3  A    between atoms: C_2  and  N_18
REMARK    4  A    between atoms: C_6  and  C_7
REMARK    5  A    between atoms: C_7  and  N_8
REMARK    6  A    between atoms: N_8  and  C_9
REMARK    7  A    between atoms: C_9  and  C_10
REMARK    8  A    between atoms: N_18  and  C_19
REMARK    9  A    between atoms: C_20  and  C_22
REMARK                            x       y       z     vdW  Elec       q    Type
REMARK                         _______ _______ _______ _____ _____    ______ ____
ROOT
ATOM      1  C   UNL     1      49.024   7.604  11.839  0.00  0.00    +0.000 C 
ATOM      2  C   UNL     1      48.393   6.744  12.955  0.00  0.00    +0.000 C 
ENDROOT
BRANCH   2   3
ATOM      3  C   UNL     1      47.089   6.103  12.507  0.00  0.00    +0.000 A 
ATOM      4  C   UNL     1      46.428   6.535  11.348  0.00  0.00    +0.000 A 
ATOM      5  C   UNL     1      45.264   5.916  10.897  0.00  0.00    +0.000 A 
ATOM      6  C   UNL     1      44.728   4.836  11.610  0.00  0.00    +0.000 A 
ATOM      7  C   UNL     1      45.354   4.415  12.777  0.00  0.00    +0.000 A 
ATOM      8  C   UNL     1      46.520   5.047  13.236  0.00  0.00    +0.000 A 
BRANCH   6   9
ATOM      9  C   UNL     1      43.488   4.143  11.081  0.00  0.00    +0.000 C 
BRANCH   9  10
ATOM     10  N   UNL     1      43.708   3.636   9.723  0.00  0.00    +0.000 NA
ATOM     11  H   UNL     1      44.234   4.340   9.200  0.00  0.00    +0.000 HD
BRANCH  10  12
ATOM     12  C   UNL     1      44.488   2.395   9.738  0.00  0.00    +0.000 C 
BRANCH  12  13
ATOM     13  C   UNL     1      45.521   2.356   8.628  0.00  0.00    +0.000 A 
ATOM     14  C   UNL     1      45.812   3.498   7.901  0.00  0.00    +0.000 A 
ATOM     15  C   UNL     1      46.764   3.368   6.918  0.00  0.00    +0.000 A 
ATOM     16  N   UNL     1      47.398   2.214   6.642  0.00  0.00    +0.000 NA
ATOM     17  C   UNL     1      47.046   1.167   7.402  0.00  0.00    +0.000 A 
ATOM     18  N   UNL     1      46.137   1.174   8.389  0.00  0.00    +0.000 NA
ENDBRANCH  12  13
ENDBRANCH  10  12
ENDBRANCH   9  10
ENDBRANCH   6   9
ENDBRANCH   2   3
BRANCH   2  19
ATOM     19  N   UNL     1      48.267   7.504  14.214  0.00  0.00    +0.000 N 
ATOM     20  C   UNL     1      47.447   8.709  14.250  0.00  0.00    +0.000 C 
ATOM     21  C   UNL     1      48.769   6.927  15.388  0.00  0.00    +0.000 C 
ATOM     22  O   UNL     1      49.038   5.733  15.474  0.00  0.00    +0.000 OA
BRANCH  21  23
ATOM     23  C   UNL     1      49.166   7.840  16.481  0.00  0.00    +0.000 A 
ATOM     24  C   UNL     1      48.453   7.994  17.660  0.00  0.00    +0.000 A 
ATOM     25  S   UNL     1      48.808   9.444  18.482  0.00  0.00    +0.000 S 
ATOM     26  C   UNL     1      49.974   9.862  17.319  0.00  0.00    +0.000 A 
ATOM     27  N   UNL     1      50.587  11.072  17.352  0.00  0.00    +0.000 NA
ATOM     28  C   UNL     1      51.518  11.208  16.470  0.00  0.00    +0.000 A 
ATOM     29  N   UNL     1      51.925  10.231  15.595  0.00  0.00    +0.000 N 
ATOM     30  C   UNL     1      51.336   8.981  15.532  0.00  0.00    +0.000 A 
ATOM     31  O   UNL     1      51.814   8.077  14.861  0.00  0.00    +0.000 OA
ATOM     32  C   UNL     1      50.198   8.838  16.421  0.00  0.00    +0.000 A 
ATOM     33  H   UNL     1      52.750  10.361  15.030  0.00  0.00    +0.000 HD
ENDBRANCH  21  23
ENDBRANCH   2  19
TORSDOF 7
ENDMDL
MODEL 3
REMARK VINA RESULT:    -7.418      1.637      2.111
REMARK INTER + INTRA:         -11.272
REMARK INTER:                 -11.416
REMARK INTRA:                   0.144
REMARK UNBOUND:                -0.818
REMARK  Name = 
REMARK  9 active torsions:
REMARK  status: ('A' for Active; 'I' for Inactive)
REMARK    1  A    between atoms: C_1  and  C_2
REMARK    2  A    between atoms: C_2  and  C_3
REMARK    3  A    between atoms: C_2  and  N_18
REMARK    4  A    between atoms: C_6  and  C_7
REMARK    5  A    between atoms: C_7  and  N_8
REMARK    6  A    between atoms: N_8  and  C_9
REMARK    7  A    between atoms: C_9  and  C_10
REMARK    8  A    between atoms: N_18  and  C_19
REMARK    9  A    between atoms: C_20  and  C_22
REMARK                            x       y       z     vdW  Elec       q    Type
REMARK                         _______ _______ _______ _____ _____    ______ ____
ROOT
ATOM      1  C   UNL     1      47.632   7.807  13.658  0.00  0.00    +0.000 C 
ATOM      2  C   UNL     1      47.907   6.291  13.738  0.00  0.00    +0.000 C 
ENDROOT
BRANCH   2   3
ATOM      3  C   UNL     1      46.841   5.483  13.017  0.00  0.00    +0.000 A 
ATOM      4  C   UNL     1      46.738   4.095  13.194  0.00  0.00    +0.000 A 
ATOM      5  C   UNL     1      45.729   3.353  12.584  0.00  0.00    +0.000 A 
ATOM      6  C   UNL     1      44.787   3.995  11.769  0.00  0.00    +0.000 A 
ATOM      7  C   UNL     1      44.892   5.365  11.560  0.00  0.00    +0.000 A 
ATOM      8  C   UNL     1      45.916   6.109  12.167  0.00  0.00    +0.000 A 
BRANCH   6   9
ATOM      9  C   UNL     1      43.666   3.182  11.152  0.00  0.00    +0.000 C 
BRANCH   9  10
ATOM     10  N   UNL     1      44.157   2.375  10.031  0.00  0.00    +0.000 NA
ATOM     11  H   UNL     1      43.372   1.834   9.660  0.00  0.00    +0.000 HD
BRANCH  10  12
ATOM     12  C   UNL     1      44.683   3.221   8.955  0.00  0.00    +0.000 C 
BRANCH  12  13
ATOM     13  C   UNL     1      45.790   2.535   8.179  0.00  0.00    +0.000 A 
ATOM     14  C   UNL     1      46.618   3.266   7.345  0.00  0.00    +0.000 A 
ATOM     15  C   UNL     1      47.597   2.560   6.685  0.00  0.00    +0.000 A 
ATOM     16  N   UNL     1      47.771   1.232   6.813  0.00  0.00    +0.000 NA
ATOM     17  C   UNL     1      46.918   0.615   7.644  0.00  0.00    +0.000 A 
ATOM     18  N   UNL     1      45.932   1.198   8.342  0.00  0.00    +0.000 NA
ENDBRANCH  12  13
ENDBRANCH  10  12
ENDBRANCH   9  10
ENDBRANCH   6   9
ENDBRANCH   2   3
BRANCH   2  19
ATOM     19  N   UNL     1      48.124   5.857  15.132  0.00  0.00    +0.000 N 
ATOM     20  C   UNL     1      47.276   4.819  15.706  0.00  0.00    +0.000 C 
ATOM     21  C   UNL     1      49.274   6.308  15.794  0.00  0.00    +0.000 C 
ATOM     22  O   UNL     1      50.232   6.792  15.198  0.00  0.00    +0.000 OA
BRANCH  21  23
ATOM     23  C   UNL     1      49.231   6.374  17.270  0.00  0.00    +0.000 A 
ATOM     24  C   UNL     1      48.641   7.407  17.983  0.00  0.00    +0.000 A 
ATOM     25  S   UNL     1      49.185   7.516  19.594  0.00  0.00    +0.000 S 
ATOM     26  C   UNL     1      50.166   6.143  19.395  0.00  0.00    +0.000 A 
ATOM     27  N   UNL     1      51.019   5.748  20.374  0.00  0.00    +0.000 NA
ATOM     28  C   UNL     1      51.622   4.636  20.123  0.00  0.00    +0.000 A 
ATOM     29  N   UNL     1      51.414   3.860  19.011  0.00  0.00    +0.000 N 
ATOM     30  C   UNL     1      50.550   4.217  17.991  0.00  0.00    +0.000 A 
ATOM     31  O   UNL     1      50.260   3.441  17.091  0.00  0.00    +0.000 OA
ATOM     32  C   UNL     1      49.952   5.525  18.179  0.00  0.00    +0.000 A 
ATOM     33  H   UNL     1      51.816   2.938  18.947  0.00  0.00    +0.000 HD
ENDBRANCH  21  23
ENDBRANCH   2  19
TORSDOF 7
ENDMDL
MODEL 4
REMARK VINA RESULT:    -7.223      3.685      5.071
REMARK INTER + INTRA:         -10.996
REMARK INTER:                  -9.977
REMARK INTRA:                  -1.019
REMARK UNBOUND:                -0.818
REMARK  Name = 
REMARK  9 active torsions:
REMARK  status: ('A' for Active; 'I' for Inactive)
REMARK    1  A    between atoms: C_1  and  C_2
REMARK    2  A    between atoms: C_2  and  C_3
REMARK    3  A    between atoms: C_2  and  N_18
REMARK    4  A    between atoms: C_6  and  C_7
REMARK    5  A    between atoms: C_7  and  N_8
REMARK    6  A    between atoms: N_8  and  C_9
REMARK    7  A    between atoms: C_9  and  C_10
REMARK    8  A    between atoms: N_18  and  C_19
REMARK    9  A    between atoms: C_20  and  C_22
REMARK                            x       y       z     vdW  Elec       q    Type
REMARK                         _______ _______ _______ _____ _____    ______ ____
ROOT
ATOM      1  C   UNL     1      48.467   6.529  14.790  0.00  0.00    +0.000 C 
ATOM      2  C   UNL     1      47.577   7.207  13.728  0.00  0.00    +0.000 C 
ENDROOT
BRANCH   2   3
ATOM      3  C   UNL     1      46.570   6.237  13.131  0.00  0.00    +0.000 A 
ATOM      4  C   UNL     1      45.487   6.695  12.365  0.00  0.00    +0.000 A 
ATOM      5  C   UNL     1      44.592   5.813  11.764  0.00  0.00    +0.000 A 
ATOM      6  C   UNL     1      44.763   4.431  11.922  0.00  0.00    +0.000 A 
ATOM      7  C   UNL     1      45.814   3.962  12.702  0.00  0.00    +0.000 A 
ATOM      8  C   UNL     1      46.708   4.853  13.315  0.00  0.00    +0.000 A 
BRANCH   6   9
ATOM      9  C   UNL     1      43.810   3.483  11.223  0.00  0.00    +0.000 C 
BRANCH   9  10
ATOM     10  N   UNL     1      44.529   2.595  10.304  0.00  0.00    +0.000 NA
ATOM     11  H   UNL     1      43.971   1.747  10.178  0.00  0.00    +0.000 HD
BRANCH  10  12
ATOM     12  C   UNL     1      44.715   3.223   8.993  0.00  0.00    +0.000 C 
BRANCH  12  13
ATOM     13  C   UNL     1      45.815   2.555   8.191  0.00  0.00    +0.000 A 
ATOM     14  C   UNL     1      46.600   3.295   7.324  0.00  0.00    +0.000 A 
ATOM     15  C   UNL     1      47.574   2.604   6.642  0.00  0.00    +0.000 A 
ATOM     16  N   UNL     1      47.783   1.282   6.778  0.00  0.00    +0.000 NA
ATOM     17  C   UNL     1      46.970   0.655   7.641  0.00  0.00    +0.000 A 
ATOM     18  N   UNL     1      45.992   1.223   8.362  0.00  0.00    +0.000 NA
ENDBRANCH  12  13
ENDBRANCH  10  12
ENDBRANCH   9  10
ENDBRANCH   6   9
ENDBRANCH   2   3
BRANCH   2  19
ATOM     19  N   UNL     1      48.389   7.904  12.711  0.00  0.00    +0.000 N 
ATOM     20  C   UNL     1      48.622   7.273  11.417  0.00  0.00    +0.000 C 
ATOM     21  C   UNL     1      48.734   9.242  12.944  0.00  0.00    +0.000 C 
ATOM     22  O   UNL     1      48.168   9.933  13.785  0.00  0.00    +0.000 OA
BRANCH  21  23
ATOM     23  C   UNL     1      49.952   9.757  12.283  0.00  0.00    +0.000 A 
ATOM     24  C   UNL     1      49.940  10.651  11.223  0.00  0.00    +0.000 A 
ATOM     25  S   UNL     1      51.391  10.661  10.328  0.00  0.00    +0.000 S 
ATOM     26  C   UNL     1      52.091   9.526  11.380  0.00  0.00    +0.000 A 
ATOM     27  N   UNL     1      53.310   8.990  11.116  0.00  0.00    +0.000 NA
ATOM     28  C   UNL     1      53.756   8.223  12.051  0.00  0.00    +0.000 A 
ATOM     29  N   UNL     1      53.121   7.982  13.244  0.00  0.00    +0.000 N 
ATOM     30  C   UNL     1      51.883   8.512  13.562  0.00  0.00    +0.000 A 
ATOM     31  O   UNL     1      51.410   8.416  14.685  0.00  0.00    +0.000 OA
ATOM     32  C   UNL     1      51.292   9.275  12.479  0.00  0.00    +0.000 A 
ATOM     33  H   UNL     1      53.592   7.484  13.984  0.00  0.00    +0.000 HD
ENDBRANCH  21  23
ENDBRANCH   2  19
TORSDOF 7
ENDMDL
MODEL 5
REMARK VINA RESULT:    -7.164      1.821      2.327
REMARK INTER + INTRA:         -10.914
REMARK INTER:                 -10.284
REMARK INTRA:                  -0.630
REMARK UNBOUND:                -0.818
REMARK  Name = 
REMARK  9 active torsions:
REMARK  status: ('A' for Active; 'I' for Inactive)
REMARK    1  A    between atoms: C_1  and  C_2
REMARK    2  A    between atoms: C_2  and  C_3
REMARK    3  A    between atoms: C_2  and  N_18
REMARK    4  A    between atoms: C_6  and  C_7
REMARK    5  A    between atoms: C_7  and  N_8
REMARK    6  A    between atoms: N_8  and  C_9
REMARK    7  A    between atoms: C_9  and  C_10
REMARK    8  A    between atoms: N_18  and  C_19
REMARK    9  A    between atoms: C_20  and  C_22
REMARK                            x       y       z     vdW  Elec       q    Type
REMARK                         _______ _______ _______ _____ _____    ______ ____
ROOT
ATOM      1  C   UNL     1      47.697   7.590  14.115  0.00  0.00    +0.000 C 
ATOM      2  C   UNL     1      47.902   6.066  14.245  0.00  0.00    +0.000 C 
ENDROOT
BRANCH   2   3
ATOM      3  C   UNL     1      46.748   5.285  13.639  0.00  0.00    +0.000 A 
ATOM      4  C   UNL     1      45.553   5.922  13.273  0.00  0.00    +0.000 A 
ATOM      5  C   UNL     1      44.511   5.226  12.663  0.00  0.00    +0.000 A 
ATOM      6  C   UNL     1      44.645   3.856  12.405  0.00  0.00    +0.000 A 
ATOM      7  C   UNL     1      45.811   3.204  12.787  0.00  0.00    +0.000 A 
ATOM      8  C   UNL     1      46.855   3.904  13.411  0.00  0.00    +0.000 A 
BRANCH   6   9
ATOM      9  C   UNL     1      43.522   3.123  11.697  0.00  0.00    +0.000 C 
BRANCH   9  10
ATOM     10  N   UNL     1      44.006   2.473  10.475  0.00  0.00    +0.000 NA
ATOM     11  H   UNL     1      43.275   1.840  10.140  0.00  0.00    +0.000 HD
BRANCH  10  12
ATOM     12  C   UNL     1      44.282   3.455   9.423  0.00  0.00    +0.000 C 
BRANCH  12  13
ATOM     13  C   UNL     1      45.393   3.001   8.496  0.00  0.00    +0.000 A 
ATOM     14  C   UNL     1      45.826   1.686   8.512  0.00  0.00    +0.000 A 
ATOM     15  C   UNL     1      46.835   1.366   7.634  0.00  0.00    +0.000 A 
ATOM     16  N   UNL     1      47.400   2.252   6.792  0.00  0.00    +0.000 NA
ATOM     17  C   UNL     1      46.910   3.499   6.854  0.00  0.00    +0.000 A 
ATOM     18  N   UNL     1      45.929   3.925   7.664  0.00  0.00    +0.000 NA
ENDBRANCH  12  13
ENDBRANCH  10  12
ENDBRANCH   9  10
ENDBRANCH   6   9
ENDBRANCH   2   3
BRANCH   2  19
ATOM     19  N   UNL     1      48.199   5.680  15.638  0.00  0.00    +0.000 N 
ATOM     20  C   UNL     1      47.347   4.710  16.316  0.00  0.00    +0.000 C 
ATOM     21  C   UNL     1      49.413   6.100  16.197  0.00  0.00    +0.000 C 
ATOM     22  O   UNL     1      50.347   6.511  15.514  0.00  0.00    +0.000 OA
BRANCH  21  23
ATOM     23  C   UNL     1      49.480   6.230  17.668  0.00  0.00    +0.000 A 
ATOM     24  C   UNL     1      50.003   5.259  18.509  0.00  0.00    +0.000 A 
ATOM     25  S   UNL     1      49.484   5.412  20.125  0.00  0.00    +0.000 S 
ATOM     26  C   UNL     1      48.608   6.819  19.751  0.00  0.00    +0.000 A 
ATOM     27  N   UNL     1      47.808   7.408  20.675  0.00  0.00    +0.000 NA
ATOM     28  C   UNL     1      47.288   8.520  20.281  0.00  0.00    +0.000 A 
ATOM     29  N   UNL     1      47.533   9.121  19.071  0.00  0.00    +0.000 N 
ATOM     30  C   UNL     1      48.347   8.563  18.101  0.00  0.00    +0.000 A 
ATOM     31  O   UNL     1      48.678   9.184  17.102  0.00  0.00    +0.000 OA
ATOM     32  C   UNL     1      48.846   7.248  18.460  0.00  0.00    +0.000 A 
ATOM     33  H   UNL     1      47.202  10.055  18.887  0.00  0.00    +0.000 HD
ENDBRANCH  21  23
ENDBRANCH   2  19
TORSDOF 7
ENDMDL
MODEL 6
REMARK VINA RESULT:    -6.760      3.396      8.489
REMARK INTER + INTRA:         -10.344
REMARK INTER:                  -8.795
REMARK INTRA:                  -1.549
REMARK UNBOUND:                -0.818
REMARK  Name = 
REMARK  9 active torsions:
REMARK  status: ('A' for Active; 'I' for Inactive)
REMARK    1  A    between atoms: C_1  and  C_2
REMARK    2  A    between atoms: C_2  and  C_3
REMARK    3  A    between atoms: C_2  and  N_18
REMARK    4  A    between atoms: C_6  and  C_7
REMARK    5  A    between atoms: C_7  and  N_8
REMARK    6  A    between atoms: N_8  and  C_9
REMARK    7  A    between atoms: C_9  and  C_10
REMARK    8  A    between atoms: N_18  and  C_19
REMARK    9  A    between atoms: C_20  and  C_22
REMARK                            x       y       z     vdW  Elec       q    Type
REMARK                         _______ _______ _______ _____ _____    ______ ____
ROOT
ATOM      1  C   UNL     1      48.781   9.195  11.631  0.00  0.00    +0.000 C 
ATOM      2  C   UNL     1      47.876   8.653  12.757  0.00  0.00    +0.000 C 
ENDROOT
BRANCH   2   3
ATOM      3  C   UNL     1      48.522   8.801  14.124  0.00  0.00    +0.000 A 
ATOM      4  C   UNL     1      47.754   9.076  15.265  0.00  0.00    +0.000 A 
ATOM      5  C   UNL     1      48.328   9.156  16.532  0.00  0.00    +0.000 A 
ATOM      6  C   UNL     1      49.707   8.962  16.685  0.00  0.00    +0.000 A 
ATOM      7  C   UNL     1      50.487   8.718  15.561  0.00  0.00    +0.000 A 
ATOM      8  C   UNL     1      49.909   8.649  14.284  0.00  0.00    +0.000 A 
BRANCH   6   9
ATOM      9  C   UNL     1      50.311   9.003  18.075  0.00  0.00    +0.000 C 
BRANCH   9  10
ATOM     10  N   UNL     1      50.889   7.706  18.437  0.00  0.00    +0.000 NA
ATOM     11  H   UNL     1      51.654   7.871  19.097  0.00  0.00    +0.000 HD
BRANCH  10  12
ATOM     12  C   UNL     1      49.898   6.845  19.089  0.00  0.00    +0.000 C 
BRANCH  12  13
ATOM     13  C   UNL     1      49.574   5.618  18.257  0.00  0.00    +0.000 A 
ATOM     14  C   UNL     1      48.476   5.613  17.414  0.00  0.00    +0.000 A 
ATOM     15  C   UNL     1      48.263   4.459  16.697  0.00  0.00    +0.000 A 
ATOM     16  N   UNL     1      49.052   3.372  16.784  0.00  0.00    +0.000 NA
ATOM     17  C   UNL     1      50.089   3.477  17.628  0.00  0.00    +0.000 A 
ATOM     18  N   UNL     1      50.397   4.550  18.373  0.00  0.00    +0.000 NA
ENDBRANCH  12  13
ENDBRANCH  10  12
ENDBRANCH   9  10
ENDBRANCH   6   9
ENDBRANCH   2   3
BRANCH   2  19
ATOM     19  N   UNL     1      47.427   7.276  12.470  0.00  0.00    +0.000 N 
ATOM     20  C   UNL     1      48.243   6.147  12.901  0.00  0.00    +0.000 C 
ATOM     21  C   UNL     1      46.128   7.093  11.979  0.00  0.00    +0.000 C 
ATOM     22  O   UNL     1      45.266   7.963  12.048  0.00  0.00    +0.000 OA
BRANCH  21  23
ATOM     23  C   UNL     1      45.866   5.877  11.179  0.00  0.00    +0.000 A 
ATOM     24  C   UNL     1      46.115   5.775   9.818  0.00  0.00    +0.000 A 
ATOM     25  S   UNL     1      45.252   4.514   9.064  0.00  0.00    +0.000 S 
ATOM     26  C   UNL     1      44.584   4.032  10.549  0.00  0.00    +0.000 A 
ATOM     27  N   UNL     1      43.636   3.062  10.604  0.00  0.00    +0.000 NA
ATOM     28  C   UNL     1      43.297   2.733  11.804  0.00  0.00    +0.000 A 
ATOM     29  N   UNL     1      43.853   3.245  12.950  0.00  0.00    +0.000 N 
ATOM     30  C   UNL     1      44.826   4.228  12.943  0.00  0.00    +0.000 A 
ATOM     31  O   UNL     1      45.419   4.555  13.962  0.00  0.00    +0.000 OA
ATOM     32  C   UNL     1      45.139   4.716  11.613  0.00  0.00    +0.000 A 
ATOM     33  H   UNL     1      43.638   2.842  13.848  0.00  0.00    +0.000 HD
ENDBRANCH  21  23
ENDBRANCH   2  19
TORSDOF 7
ENDMDL
MODEL 7
REMARK VINA RESULT:    -6.537      2.114      2.906
REMARK INTER + INTRA:         -10.030
REMARK INTER:                  -9.319
REMARK INTRA:                  -0.711
REMARK UNBOUND:                -0.818
REMARK  Name = 
REMARK  9 active torsions:
REMARK  status: ('A' for Active; 'I' for Inactive)
REMARK    1  A    between atoms: C_1  and  C_2
REMARK    2  A    between atoms: C_2  and  C_3
REMARK    3  A    between atoms: C_2  and  N_18
REMARK    4  A    between atoms: C_6  and  C_7
REMARK    5  A    between atoms: C_7  and  N_8
REMARK    6  A    between atoms: N_8  and  C_9
REMARK    7  A    between atoms: C_9  and  C_10
REMARK    8  A    between atoms: N_18  and  C_19
REMARK    9  A    between atoms: C_20  and  C_22
REMARK                            x       y       z     vdW  Elec       q    Type
REMARK                         _______ _______ _______ _____ _____    ______ ____
ROOT
ATOM      1  C   UNL     1      49.629   9.866  14.566  0.00  0.00    +0.000 C 
ATOM      2  C   UNL     1      49.663   8.357  14.245  0.00  0.00    +0.000 C 
ENDROOT
BRANCH   2   3
ATOM      3  C   UNL     1      48.421   7.910  13.490  0.00  0.00    +0.000 A 
ATOM      4  C   UNL     1      48.395   6.696  12.788  0.00  0.00    +0.000 A 
ATOM      5  C   UNL     1      47.244   6.249  12.142  0.00  0.00    +0.000 A 
ATOM      6  C   UNL     1      46.077   7.023  12.185  0.00  0.00    +0.000 A 
ATOM      7  C   UNL     1      46.095   8.242  12.851  0.00  0.00    +0.000 A 
ATOM      8  C   UNL     1      47.258   8.696  13.492  0.00  0.00    +0.000 A 
BRANCH   6   9
ATOM      9  C   UNL     1      44.819   6.501  11.518  0.00  0.00    +0.000 C 
BRANCH   9  10
ATOM     10  N   UNL     1      44.819   5.036  11.468  0.00  0.00    +0.000 NA
ATOM     11  H   UNL     1      44.393   4.687  12.330  0.00  0.00    +0.000 HD
BRANCH  10  12
ATOM     12  C   UNL     1      44.033   4.543  10.333  0.00  0.00    +0.000 C 
BRANCH  12  13
ATOM     13  C   UNL     1      44.873   3.731   9.366  0.00  0.00    +0.000 A 
ATOM     14  C   UNL     1      45.609   4.360   8.377  0.00  0.00    +0.000 A 
ATOM     15  C   UNL     1      46.343   3.542   7.550  0.00  0.00    +0.000 A 
ATOM     16  N   UNL     1      46.369   2.201   7.660  0.00  0.00    +0.000 NA
ATOM     17  C   UNL     1      45.623   1.689   8.650  0.00  0.00    +0.000 A 
ATOM     18  N   UNL     1      44.872   2.385   9.517  0.00  0.00    +0.000 NA
ENDBRANCH  12  13
ENDBRANCH  10  12
ENDBRANCH   9  10
ENDBRANCH   6   9
ENDBRANCH   2   3
BRANCH   2  19
ATOM     19  N   UNL     1      49.929   7.555  15.455  0.00  0.00    +0.000 N 
ATOM     20  C   UNL     1      51.247   6.964  15.655  0.00  0.00    +0.000 C 
ATOM     21  C   UNL     1      48.970   7.562  16.477  0.00  0.00    +0.000 C 
ATOM     22  O   UNL     1      48.082   8.406  16.543  0.00  0.00    +0.000 OA
BRANCH  21  23
ATOM     23  C   UNL     1      48.927   6.393  17.381  0.00  0.00    +0.000 A 
ATOM     24  C   UNL     1      49.489   6.372  18.649  0.00  0.00    +0.000 A 
ATOM     25  S   UNL     1      49.767   4.798  19.240  0.00  0.00    +0.000 S 
ATOM     26  C   UNL     1      49.076   4.112  17.848  0.00  0.00    +0.000 A 
ATOM     27  N   UNL     1      49.104   2.771  17.645  0.00  0.00    +0.000 NA
ATOM     28  C   UNL     1      48.454   2.388  16.599  0.00  0.00    +0.000 A 
ATOM     29  N   UNL     1      47.738   3.215  15.769  0.00  0.00    +0.000 N 
ATOM     30  C   UNL     1      47.673   4.586  15.941  0.00  0.00    +0.000 A 
ATOM     31  O   UNL     1      46.906   5.281  15.290  0.00  0.00    +0.000 OA
ATOM     32  C   UNL     1      48.500   5.066  17.032  0.00  0.00    +0.000 A 
ATOM     33  H   UNL     1      47.142   2.830  15.053  0.00  0.00    +0.000 HD
ENDBRANCH  21  23
ENDBRANCH   2  19
TORSDOF 7
ENDMDL
MODEL 8
REMARK VINA RESULT:    -6.391      3.558      4.857
REMARK INTER + INTRA:          -9.824
REMARK INTER:                  -9.338
REMARK INTRA:                  -0.485
REMARK UNBOUND:                -0.818
REMARK  Name = 
REMARK  9 active torsions:
REMARK  status: ('A' for Active; 'I' for Inactive)
REMARK    1  A    between atoms: C_1  and  C_2
REMARK    2  A    between atoms: C_2  and  C_3
REMARK    3  A    between atoms: C_2  and  N_18
REMARK    4  A    between atoms: C_6  and  C_7
REMARK    5  A    between atoms: C_7  and  N_8
REMARK    6  A    between atoms: N_8  and  C_9
REMARK    7  A    between atoms: C_9  and  C_10
REMARK    8  A    between atoms: N_18  and  C_19
REMARK    9  A    between atoms: C_20  and  C_22
REMARK                            x       y       z     vdW  Elec       q    Type
REMARK                         _______ _______ _______ _____ _____    ______ ____
ROOT
ATOM      1  C   UNL     1      48.547   8.049  18.186  0.00  0.00    +0.000 C 
ATOM      2  C   UNL     1      49.397   7.250  17.175  0.00  0.00    +0.000 C 
ENDROOT
BRANCH   2   3
ATOM      3  C   UNL     1      48.705   7.122  15.828  0.00  0.00    +0.000 A 
ATOM      4  C   UNL     1      48.532   8.235  14.992  0.00  0.00    +0.000 A 
ATOM      5  C   UNL     1      47.952   8.119  13.731  0.00  0.00    +0.000 A 
ATOM      6  C   UNL     1      47.522   6.866  13.274  0.00  0.00    +0.000 A 
ATOM      7  C   UNL     1      47.659   5.758  14.103  0.00  0.00    +0.000 A 
ATOM      8  C   UNL     1      48.234   5.879  15.377  0.00  0.00    +0.000 A 
BRANCH   6   9
ATOM      9  C   UNL     1      46.937   6.747  11.881  0.00  0.00    +0.000 C 
BRANCH   9  10
ATOM     10  N   UNL     1      45.514   7.101  11.876  0.00  0.00    +0.000 NA
ATOM     11  H   UNL     1      45.156   6.972  10.926  0.00  0.00    +0.000 HD
BRANCH  10  12
ATOM     12  C   UNL     1      44.747   6.235  12.777  0.00  0.00    +0.000 C 
BRANCH  12  13
ATOM     13  C   UNL     1      44.315   4.948  12.103  0.00  0.00    +0.000 A 
ATOM     14  C   UNL     1      44.329   4.841  10.723  0.00  0.00    +0.000 A 
ATOM     15  C   UNL     1      43.924   3.634  10.201  0.00  0.00    +0.000 A 
ATOM     16  N   UNL     1      43.526   2.593  10.954  0.00  0.00    +0.000 NA
ATOM     17  C   UNL     1      43.548   2.797  12.279  0.00  0.00    +0.000 A 
ATOM     18  N   UNL     1      43.926   3.925  12.900  0.00  0.00    +0.000 NA
ENDBRANCH  12  13
ENDBRANCH  10  12
ENDBRANCH   9  10
ENDBRANCH   6   9
ENDBRANCH   2   3
BRANCH   2  19
ATOM     19  N   UNL     1      49.822   5.953  17.737  0.00  0.00    +0.000 N 
ATOM     20  C   UNL     1      48.887   5.172  18.538  0.00  0.00    +0.000 C 
ATOM     21  C   UNL     1      51.042   5.413  17.307  0.00  0.00    +0.000 C 
ATOM     22  O   UNL     1      51.620   5.808  16.300  0.00  0.00    +0.000 OA
BRANCH  21  23
ATOM     23  C   UNL     1      51.734   4.478  18.219  0.00  0.00    +0.000 A 
ATOM     24  C   UNL     1      52.542   4.877  19.274  0.00  0.00    +0.000 A 
ATOM     25  S   UNL     1      53.611   3.662  19.806  0.00  0.00    +0.000 S 
ATOM     26  C   UNL     1      52.970   2.555  18.688  0.00  0.00    +0.000 A 
ATOM     27  N   UNL     1      53.528   1.329  18.523  0.00  0.00    +0.000 NA
ATOM     28  C   UNL     1      52.875   0.563  17.717  0.00  0.00    +0.000 A 
ATOM     29  N   UNL     1      51.692   0.891  17.102  0.00  0.00    +0.000 N 
ATOM     30  C   UNL     1      51.081   2.123  17.247  0.00  0.00    +0.000 A 
ATOM     31  O   UNL     1      49.955   2.338  16.823  0.00  0.00    +0.000 OA
ATOM     32  C   UNL     1      51.856   3.056  18.044  0.00  0.00    +0.000 A 
ATOM     33  H   UNL     1      51.167   0.194  16.597  0.00  0.00    +0.000 HD
ENDBRANCH  21  23
ENDBRANCH   2  19
TORSDOF 7
ENDMDL
MODEL 9
REMARK VINA RESULT:    -6.317      1.853      2.306
REMARK INTER + INTRA:          -9.720
REMARK INTER:                  -9.077
REMARK INTRA:                  -0.643
REMARK UNBOUND:                -0.818
REMARK  Name = 
REMARK  9 active torsions:
REMARK  status: ('A' for Active; 'I' for Inactive)
REMARK    1  A    between atoms: C_1  and  C_2
REMARK    2  A    between atoms: C_2  and  C_3
REMARK    3  A    between atoms: C_2  and  N_18
REMARK    4  A    between atoms: C_6  and  C_7
REMARK    5  A    between atoms: C_7  and  N_8
REMARK    6  A    between atoms: N_8  and  C_9
REMARK    7  A    between atoms: C_9  and  C_10
REMARK    8  A    between atoms: N_18  and  C_19
REMARK    9  A    between atoms: C_20  and  C_22
REMARK                            x       y       z     vdW  Elec       q    Type
REMARK                         _______ _______ _______ _____ _____    ______ ____
ROOT
ATOM      1  C   UNL     1      48.169   9.228  15.197  0.00  0.00    +0.000 C 
ATOM      2  C   UNL     1      48.626   7.940  14.480  0.00  0.00    +0.000 C 
ENDROOT
BRANCH   2   3
ATOM      3  C   UNL     1      47.564   7.415  13.527  0.00  0.00    +0.000 A 
ATOM      4  C   UNL     1      47.722   6.187  12.869  0.00  0.00    +0.000 A 
ATOM      5  C   UNL     1      46.730   5.669  12.039  0.00  0.00    +0.000 A 
ATOM      6  C   UNL     1      45.541   6.384  11.846  0.00  0.00    +0.000 A 
ATOM      7  C   UNL     1      45.381   7.616  12.467  0.00  0.00    +0.000 A 
ATOM      8  C   UNL     1      46.386   8.141  13.294  0.00  0.00    +0.000 A 
BRANCH   6   9
ATOM      9  C   UNL     1      44.451   5.785  10.978  0.00  0.00    +0.000 C 
BRANCH   9  10
ATOM     10  N   UNL     1      44.980   5.379   9.673  0.00  0.00    +0.000 NA
ATOM     11  H   UNL     1      45.993   5.265   9.760  0.00  0.00    +0.000 HD
BRANCH  10  12
ATOM     12  C   UNL     1      44.407   4.100   9.241  0.00  0.00    +0.000 C 
BRANCH  12  13
ATOM     13  C   UNL     1      45.413   3.250   8.488  0.00  0.00    +0.000 A 
ATOM     14  C   UNL     1      46.274   3.830   7.572  0.00  0.00    +0.000 A 
ATOM     15  C   UNL     1      47.153   2.981   6.941  0.00  0.00    +0.000 A 
ATOM     16  N   UNL     1      47.203   1.656   7.169  0.00  0.00    +0.000 NA
ATOM     17  C   UNL     1      46.328   1.193   8.074  0.00  0.00    +0.000 A 
ATOM     18  N   UNL     1      45.430   1.923   8.753  0.00  0.00    +0.000 NA
ENDBRANCH  12  13
ENDBRANCH  10  12
ENDBRANCH   9  10
ENDBRANCH   6   9
ENDBRANCH   2   3
BRANCH   2  19
ATOM     19  N   UNL     1      49.095   6.926  15.445  0.00  0.00    +0.000 N 
ATOM     20  C   UNL     1      48.210   5.835  15.834  0.00  0.00    +0.000 C 
ATOM     21  C   UNL     1      50.452   6.925  15.796  0.00  0.00    +0.000 C 
ATOM     22  O   UNL     1      51.304   7.518  15.141  0.00  0.00    +0.000 OA
BRANCH  21  23
ATOM     23  C   UNL     1      50.818   6.350  17.108  0.00  0.00    +0.000 A 
ATOM     24  C   UNL     1      51.471   5.138  17.268  0.00  0.00    +0.000 A 
ATOM     25  S   UNL     1      51.293   4.473  18.827  0.00  0.00    +0.000 S 
ATOM     26  C   UNL     1      50.401   5.824  19.342  0.00  0.00    +0.000 A 
ATOM     27  N   UNL     1      49.821   5.848  20.569  0.00  0.00    +0.000 NA
ATOM     28  C   UNL     1      49.263   6.975  20.859  0.00  0.00    +0.000 A 
ATOM     29  N   UNL     1      49.277   8.091  20.060  0.00  0.00    +0.000 N 
ATOM     30  C   UNL     1      49.863   8.115  18.807  0.00  0.00    +0.000 A 
ATOM     31  O   UNL     1      50.003   9.157  18.181  0.00  0.00    +0.000 OA
ATOM     32  C   UNL     1      50.385   6.826  18.393  0.00  0.00    +0.000 A 
ATOM     33  H   UNL     1      48.943   8.975  20.409  0.00  0.00    +0.000 HD
ENDBRANCH  21  23
ENDBRANCH   2  19
TORSDOF 7
ENDMDL
