MODEL 1
REMARK VINA RESULT:    -8.612      0.000      0.000
REMARK INTER + INTRA:         -11.127
REMARK INTER:                 -11.381
REMARK INTRA:                   0.253
REMARK UNBOUND:                 0.253
REMARK  Name = 
REMARK  6 active torsions:
REMARK  status: ('A' for Active; 'I' for Inactive)
REMARK    1  A    between atoms: C_2  and  C_19
REMARK    2  A    between atoms: N_3  and  C_4
REMARK    3  A    between atoms: C_4  and  C_5
REMARK    4  A    between atoms: C_8  and  C_9
REMARK    5  A    between atoms: C_9  and  N_10
REMARK    6  A    between atoms: C_13  and  O_14
REMARK                            x       y       z     vdW  Elec       q    Type
REMARK                         _______ _______ _______ _____ _____    ______ ____
ROOT
ATOM      1  C   UNL     1      45.984   7.097  12.449  0.00  0.00    +0.000 C 
ENDROOT
BRANCH   1   2
ATOM      2  C   UNL     1      45.632   5.910  11.590  0.00  0.00    +0.000 A 
ATOM      3  C   UNL     1      45.126   4.743  12.180  0.00  0.00    +0.000 A 
ATOM      4  C   UNL     1      44.792   3.636  11.397  0.00  0.00    +0.000 A 
ATOM      5  C   UNL     1      44.963   3.663  10.007  0.00  0.00    +0.000 A 
ATOM      6  C   UNL     1      45.495   4.823   9.422  0.00  0.00    +0.000 A 
ATOM      7  C   UNL     1      45.831   5.932  10.205  0.00  0.00    +0.000 A 
BRANCH   5   8
ATOM      8  C   UNL     1      44.632   2.454   9.156  0.00  0.00    +0.000 C 
BRANCH   8   9
ATOM      9  N   UNL     1      45.437   2.230   7.944  0.00  0.00    +0.000 NA
ATOM     10  C   UNL     1      46.502   1.240   8.113  0.00  0.00    +0.000 C 
ATOM     11  C   UNL     1      47.154   0.888   6.773  0.00  0.00    +0.000 C 
ATOM     12  C   UNL     1      47.618   2.128   6.014  0.00  0.00    +0.000 C 
ATOM     13  C   UNL     1      46.512   3.177   5.941  0.00  0.00    +0.000 C 
ATOM     14  C   UNL     1      45.905   3.466   7.317  0.00  0.00    +0.000 C 
BRANCH  12  15
ATOM     15  O   UNL     1      48.788   2.676   6.621  0.00  0.00    +0.000 OA
ATOM     16  H   UNL     1      48.744   3.645   6.560  0.00  0.00    +0.000 HD
ENDBRANCH  12  15
ENDBRANCH   8   9
ENDBRANCH   5   8
ENDBRANCH   1   2
BRANCH   1  19
ATOM     17  O   UNL     1      48.745   6.684  12.896  0.00  0.00    +0.000 OA
ATOM     18  C   UNL     1      47.961   6.575  13.834  0.00  0.00    +0.000 C 
ATOM     19  N   UNL     1      46.603   6.688  13.683  0.00  0.00    +0.000 N 
ATOM     20  H   UNL     1      46.026   6.778  14.510  0.00  0.00    +0.000 HD
BRANCH  18  21
ATOM     21  C   UNL     1      48.425   6.249  15.188  0.00  0.00    +0.000 A 
ATOM     22  C   UNL     1      49.298   7.103  15.850  0.00  0.00    +0.000 A 
ATOM     23  S   UNL     1      49.761   6.539  17.393  0.00  0.00    +0.000 S 
ATOM     24  C   UNL     1      48.771   5.162  17.252  0.00  0.00    +0.000 A 
ATOM     25  N   UNL     1      48.690   4.251  18.257  0.00  0.00    +0.000 NA
ATOM     26  C   UNL     1      47.867   3.278  18.028  0.00  0.00    +0.000 A 
ATOM     27  N   UNL     1      47.124   3.136  16.890  0.00  0.00    +0.000 N 
ATOM     28  C   UNL     1      47.226   3.993  15.821  0.00  0.00    +0.000 A 
ATOM     29  O   UNL     1      46.638   3.761  14.771  0.00  0.00    +0.000 OA
ATOM     30  C   UNL     1      48.110   5.123  16.037  0.00  0.00    +0.000 A 
ATOM     31  H   UNL     1      46.516   2.340  16.764  0.00  0.00    +0.000 HD
ENDBRANCH  18  21
ENDBRANCH   1  19
TORSDOF 6
ENDMDL
MODEL 2
REMARK VINA RESULT:    -8.373      1.597      2.327
REMARK INTER + INTRA:         -10.812
REMARK INTER:                 -10.376
REMARK INTRA:                  -0.436
REMARK UNBOUND:                 0.253
REMARK  Name = 
REMARK  6 active torsions:
REMARK  status: ('A' for Active; 'I' for Inactive)
REMARK    1  A    between atoms: C_2  and  C_19
REMARK    2  A    between atoms: N_3  and  C_4
REMARK    3  A    between atoms: C_4  and  C_5
REMARK    4  A    between atoms: C_8  and  C_9
REMARK    5  A    between atoms: C_9  and  N_10
REMARK    6  A    between atoms: C_13  and  O_14
REMARK                            x       y       z     vdW  Elec       q    Type
REMARK                         _______ _______ _______ _____ _____    ______ ____
ROOT
ATOM      1  C   UNL     1      46.581   6.491  13.020  0.00  0.00    +0.000 C 
ENDROOT
BRANCH   1   2
ATOM      2  C   UNL     1      46.021   5.604  11.938  0.00  0.00    +0.000 A 
ATOM      3  C   UNL     1      45.997   6.049  10.608  0.00  0.00    +0.000 A 
ATOM      4  C   UNL     1      45.485   5.238   9.594  0.00  0.00    +0.000 A 
ATOM      5  C   UNL     1      44.975   3.965   9.883  0.00  0.00    +0.000 A 
ATOM      6  C   UNL     1      44.974   3.533  11.219  0.00  0.00    +0.000 A 
ATOM      7  C   UNL     1      45.487   4.346  12.236  0.00  0.00    +0.000 A 
BRANCH   5   8
ATOM      8  C   UNL     1      44.388   3.093   8.792  0.00  0.00    +0.000 C 
BRANCH   8   9
ATOM      9  N   UNL     1      45.311   2.545   7.784  0.00  0.00    +0.000 NA
ATOM     10  C   UNL     1      46.323   1.643   8.334  0.00  0.00    +0.000 C 
ATOM     11  C   UNL     1      47.104   0.936   7.222  0.00  0.00    +0.000 C 
ATOM     12  C   UNL     1      47.681   1.920   6.208  0.00  0.00    +0.000 C 
ATOM     13  C   UNL     1      46.619   2.906   5.730  0.00  0.00    +0.000 C 
ATOM     14  C   UNL     1      45.877   3.562   6.897  0.00  0.00    +0.000 C 
BRANCH  12  15
ATOM     15  O   UNL     1      48.795   2.618   6.766  0.00  0.00    +0.000 OA
ATOM     16  H   UNL     1      49.389   1.970   7.181  0.00  0.00    +0.000 HD
ENDBRANCH  12  15
ENDBRANCH   8   9
ENDBRANCH   5   8
ENDBRANCH   1   2
BRANCH   1  19
ATOM     17  O   UNL     1      49.002   6.317  14.470  0.00  0.00    +0.000 OA
ATOM     18  C   UNL     1      47.993   5.780  14.917  0.00  0.00    +0.000 C 
ATOM     19  N   UNL     1      46.802   5.758  14.239  0.00  0.00    +0.000 N 
ATOM     20  H   UNL     1      45.965   5.472  14.732  0.00  0.00    +0.000 HD
BRANCH  18  21
ATOM     21  C   UNL     1      48.009   5.060  16.197  0.00  0.00    +0.000 A 
ATOM     22  C   UNL     1      47.680   3.710  16.241  0.00  0.00    +0.000 A 
ATOM     23  S   UNL     1      47.711   3.055  17.816  0.00  0.00    +0.000 S 
ATOM     24  C   UNL     1      48.215   4.536  18.486  0.00  0.00    +0.000 A 
ATOM     25  N   UNL     1      48.448   4.659  19.819  0.00  0.00    +0.000 NA
ATOM     26  C   UNL     1      48.865   5.830  20.181  0.00  0.00    +0.000 A 
ATOM     27  N   UNL     1      49.069   6.882  19.332  0.00  0.00    +0.000 N 
ATOM     28  C   UNL     1      48.780   6.825  17.990  0.00  0.00    +0.000 A 
ATOM     29  O   UNL     1      48.856   7.825  17.288  0.00  0.00    +0.000 OA
ATOM     30  C   UNL     1      48.340   5.522  17.524  0.00  0.00    +0.000 A 
ATOM     31  H   UNL     1      49.375   7.778  19.682  0.00  0.00    +0.000 HD
ENDBRANCH  18  21
ENDBRANCH   1  19
TORSDOF 6
ENDMDL
MODEL 3
REMARK VINA RESULT:    -8.013      2.340      3.988
REMARK INTER + INTRA:         -10.336
REMARK INTER:                  -9.723
REMARK INTRA:                  -0.614
REMARK UNBOUND:                 0.253
REMARK  Name = 
REMARK  6 active torsions:
REMARK  status: ('A' for Active; 'I' for Inactive)
REMARK    1  A    between atoms: C_2  and  C_19
REMARK    2  A    between atoms: N_3  and  C_4
REMARK    3  A    between atoms: C_4  and  C_5
REMARK    4  A    between atoms: C_8  and  C_9
REMARK    5  A    between atoms: C_9  and  N_10
REMARK    6  A    between atoms: C_13  and  O_14
REMARK                            x       y       z     vdW  Elec       q    Type
REMARK                         _______ _______ _______ _____ _____    ______ ____
ROOT
ATOM      1  C   UNL     1      46.349   5.010  13.944  0.00  0.00    +0.000 C 
ENDROOT
BRANCH   1   2
ATOM      2  C   UNL     1      45.888   4.716  12.539  0.00  0.00    +0.000 A 
ATOM      3  C   UNL     1      46.042   5.681  11.534  0.00  0.00    +0.000 A 
ATOM      4  C   UNL     1      45.622   5.423  10.227  0.00  0.00    +0.000 A 
ATOM      5  C   UNL     1      45.030   4.197   9.893  0.00  0.00    +0.000 A 
ATOM      6  C   UNL     1      44.852   3.243  10.908  0.00  0.00    +0.000 A 
ATOM      7  C   UNL     1      45.271   3.502  12.218  0.00  0.00    +0.000 A 
BRANCH   5   8
ATOM      8  C   UNL     1      44.544   3.923   8.485  0.00  0.00    +0.000 C 
BRANCH   8   9
ATOM      9  N   UNL     1      45.362   3.039   7.639  0.00  0.00    +0.000 NA
ATOM     10  C   UNL     1      46.113   2.030   8.387  0.00  0.00    +0.000 C 
ATOM     11  C   UNL     1      46.762   1.008   7.448  0.00  0.00    +0.000 C 
ATOM     12  C   UNL     1      47.596   1.675   6.358  0.00  0.00    +0.000 C 
ATOM     13  C   UNL     1      46.813   2.786   5.666  0.00  0.00    +0.000 C 
ATOM     14  C   UNL     1      46.188   3.759   6.670  0.00  0.00    +0.000 C 
BRANCH  12  15
ATOM     15  O   UNL     1      48.813   2.185   6.903  0.00  0.00    +0.000 OA
ATOM     16  H   UNL     1      49.544   1.612   6.619  0.00  0.00    +0.000 HD
ENDBRANCH  12  15
ENDBRANCH   8   9
ENDBRANCH   5   8
ENDBRANCH   1   2
BRANCH   1  19
ATOM     17  O   UNL     1      48.727   5.754  15.281  0.00  0.00    +0.000 OA
ATOM     18  C   UNL     1      48.093   6.604  14.662  0.00  0.00    +0.000 C 
ATOM     19  N   UNL     1      46.896   6.338  14.050  0.00  0.00    +0.000 N 
ATOM     20  H   UNL     1      46.518   7.017  13.402  0.00  0.00    +0.000 HD
BRANCH  18  21
ATOM     21  C   UNL     1      48.550   7.998  14.586  0.00  0.00    +0.000 A 
ATOM     22  C   UNL     1      48.582   8.783  15.732  0.00  0.00    +0.000 A 
ATOM     23  S   UNL     1      49.096  10.384  15.444  0.00  0.00    +0.000 S 
ATOM     24  C   UNL     1      49.343  10.069  13.790  0.00  0.00    +0.000 A 
ATOM     25  N   UNL     1      49.806  11.036  12.953  0.00  0.00    +0.000 NA
ATOM     26  C   UNL     1      49.984  10.644  11.733  0.00  0.00    +0.000 A 
ATOM     27  N   UNL     1      49.742   9.378  11.277  0.00  0.00    +0.000 N 
ATOM     28  C   UNL     1      49.208   8.390  12.068  0.00  0.00    +0.000 A 
ATOM     29  O   UNL     1      48.888   7.308  11.592  0.00  0.00    +0.000 OA
ATOM     30  C   UNL     1      49.020   8.767  13.457  0.00  0.00    +0.000 A 
ATOM     31  H   UNL     1      49.881   9.142  10.306  0.00  0.00    +0.000 HD
ENDBRANCH  18  21
ENDBRANCH   1  19
TORSDOF 6
ENDMDL
MODEL 4
REMARK VINA RESULT:    -7.876      2.703      3.620
REMARK INTER + INTRA:         -10.156
REMARK INTER:                  -9.331
REMARK INTRA:                  -0.825
REMARK UNBOUND:                 0.253
REMARK  Name = 
REMARK  6 active torsions:
REMARK  status: ('A' for Active; 'I' for Inactive)
REMARK    1  A    between atoms: C_2  and  C_19
REMARK    2  A    between atoms: N_3  and  C_4
REMARK    3  A    between atoms: C_4  and  C_5
REMARK    4  A    between atoms: C_8  and  C_9
REMARK    5  A    between atoms: C_9  and  N_10
REMARK    6  A    between atoms: C_13  and  O_14
REMARK                            x       y       z     vdW  Elec       q    Type
REMARK                         _______ _______ _______ _____ _____    ______ ____
ROOT
ATOM      1  C   UNL     1      46.367   5.816  13.389  0.00  0.00    +0.000 C 
ENDROOT
BRANCH   1   2
ATOM      2  C   UNL     1      45.850   5.112  12.161  0.00  0.00    +0.000 A 
ATOM      3  C   UNL     1      45.865   5.765  10.920  0.00  0.00    +0.000 A 
ATOM      4  C   UNL     1      45.393   5.126   9.772  0.00  0.00    +0.000 A 
ATOM      5  C   UNL     1      44.885   3.822   9.835  0.00  0.00    +0.000 A 
ATOM      6  C   UNL     1      44.845   3.180  11.083  0.00  0.00    +0.000 A 
ATOM      7  C   UNL     1      45.317   3.820  12.235  0.00  0.00    +0.000 A 
BRANCH   5   8
ATOM      8  C   UNL     1      44.342   3.135   8.599  0.00  0.00    +0.000 C 
BRANCH   8   9
ATOM      9  N   UNL     1      45.313   2.553   7.657  0.00  0.00    +0.000 NA
ATOM     10  C   UNL     1      46.296   1.672   8.288  0.00  0.00    +0.000 C 
ATOM     11  C   UNL     1      47.131   0.928   7.240  0.00  0.00    +0.000 C 
ATOM     12  C   UNL     1      47.757   1.876   6.222  0.00  0.00    +0.000 C 
ATOM     13  C   UNL     1      46.720   2.844   5.658  0.00  0.00    +0.000 C 
ATOM     14  C   UNL     1      45.923   3.539   6.765  0.00  0.00    +0.000 C 
BRANCH  12  15
ATOM     15  O   UNL     1      48.843   2.594   6.810  0.00  0.00    +0.000 OA
ATOM     16  H   UNL     1      48.645   2.739   7.750  0.00  0.00    +0.000 HD
ENDBRANCH  12  15
ENDBRANCH   8   9
ENDBRANCH   5   8
ENDBRANCH   1   2
BRANCH   1  19
ATOM     17  O   UNL     1      46.780   8.612  13.457  0.00  0.00    +0.000 OA
ATOM     18  C   UNL     1      47.732   7.868  13.240  0.00  0.00    +0.000 C 
ATOM     19  N   UNL     1      47.599   6.508  13.119  0.00  0.00    +0.000 N 
ATOM     20  H   UNL     1      48.432   5.935  13.131  0.00  0.00    +0.000 HD
BRANCH  18  21
ATOM     21  C   UNL     1      49.086   8.395  13.028  0.00  0.00    +0.000 A 
ATOM     22  C   UNL     1      49.326   9.308  12.008  0.00  0.00    +0.000 A 
ATOM     23  S   UNL     1      50.963   9.775  11.886  0.00  0.00    +0.000 S 
ATOM     24  C   UNL     1      51.397   8.815  13.223  0.00  0.00    +0.000 A 
ATOM     25  N   UNL     1      52.681   8.774  13.669  0.00  0.00    +0.000 NA
ATOM     26  C   UNL     1      52.857   8.035  14.718  0.00  0.00    +0.000 A 
ATOM     27  N   UNL     1      51.868   7.338  15.355  0.00  0.00    +0.000 N 
ATOM     28  C   UNL     1      50.573   7.294  14.899  0.00  0.00    +0.000 A 
ATOM     29  O   UNL     1      49.747   6.558  15.424  0.00  0.00    +0.000 OA
ATOM     30  C   UNL     1      50.313   8.133  13.744  0.00  0.00    +0.000 A 
ATOM     31  H   UNL     1      52.076   6.761  16.157  0.00  0.00    +0.000 HD
ENDBRANCH  18  21
ENDBRANCH   1  19
TORSDOF 6
ENDMDL
MODEL 5
REMARK VINA RESULT:    -7.752      4.314      9.881
REMARK INTER + INTRA:          -9.992
REMARK INTER:                  -9.416
REMARK INTRA:                  -0.576
REMARK UNBOUND:                 0.253
REMARK  Name = 
REMARK  6 active torsions:
REMARK  status: ('A' for Active; 'I' for Inactive)
REMARK    1  A    between atoms: C_2  and  C_19
REMARK    2  A    between atoms: N_3  and  C_4
REMARK    3  A    between atoms: C_4  and  C_5
REMARK    4  A    between atoms: C_8  and  C_9
REMARK    5  A    between atoms: C_9  and  N_10
REMARK    6  A    between atoms: C_13  and  O_14
REMARK                            x       y       z     vdW  Elec       q    Type
REMARK                         _______ _______ _______ _____ _____    ______ ____
ROOT
ATOM      1  C   UNL     1      47.012   3.506  16.770  0.00  0.00    +0.000 C 
ENDROOT
BRANCH   1   2
ATOM      2  C   UNL     1      48.490   3.504  17.063  0.00  0.00    +0.000 A 
ATOM      3  C   UNL     1      49.210   2.301  17.036  0.00  0.00    +0.000 A 
ATOM      4  C   UNL     1      50.580   2.283  17.302  0.00  0.00    +0.000 A 
ATOM      5  C   UNL     1      51.266   3.466  17.612  0.00  0.00    +0.000 A 
ATOM      6  C   UNL     1      50.538   4.665  17.666  0.00  0.00    +0.000 A 
ATOM      7  C   UNL     1      49.164   4.684  17.400  0.00  0.00    +0.000 A 
BRANCH   5   8
ATOM      8  C   UNL     1      52.746   3.448  17.933  0.00  0.00    +0.000 C 
BRANCH   8   9
ATOM      9  N   UNL     1      53.138   3.293  19.343  0.00  0.00    +0.000 NA
ATOM     10  C   UNL     1      52.680   4.380  20.210  0.00  0.00    +0.000 C 
ATOM     11  C   UNL     1      52.922   4.054  21.687  0.00  0.00    +0.000 C 
ATOM     12  C   UNL     1      54.368   3.652  21.960  0.00  0.00    +0.000 C 
ATOM     13  C   UNL     1      54.840   2.586  20.976  0.00  0.00    +0.000 C 
ATOM     14  C   UNL     1      54.555   2.980  19.524  0.00  0.00    +0.000 C 
BRANCH  12  15
ATOM     15  O   UNL     1      55.223   4.795  21.908  0.00  0.00    +0.000 OA
ATOM     16  H   UNL     1      55.215   5.146  21.002  0.00  0.00    +0.000 HD
ENDBRANCH  12  15
ENDBRANCH   8   9
ENDBRANCH   5   8
ENDBRANCH   1   2
BRANCH   1  19
ATOM     17  O   UNL     1      47.279   3.110  13.983  0.00  0.00    +0.000 OA
ATOM     18  C   UNL     1      46.780   4.152  14.398  0.00  0.00    +0.000 C 
ATOM     19  N   UNL     1      46.683   4.449  15.733  0.00  0.00    +0.000 N 
ATOM     20  H   UNL     1      46.098   5.224  16.019  0.00  0.00    +0.000 HD
BRANCH  18  21
ATOM     21  C   UNL     1      46.304   5.194  13.479  0.00  0.00    +0.000 A 
ATOM     22  C   UNL     1      47.150   6.230  13.101  0.00  0.00    +0.000 A 
ATOM     23  S   UNL     1      46.411   7.368  12.067  0.00  0.00    +0.000 S 
ATOM     24  C   UNL     1      44.953   6.490  12.046  0.00  0.00    +0.000 A 
ATOM     25  N   UNL     1      43.888   6.917  11.318  0.00  0.00    +0.000 NA
ATOM     26  C   UNL     1      42.862   6.130  11.363  0.00  0.00    +0.000 A 
ATOM     27  N   UNL     1      42.807   4.959  12.068  0.00  0.00    +0.000 N 
ATOM     28  C   UNL     1      43.832   4.524  12.872  0.00  0.00    +0.000 A 
ATOM     29  O   UNL     1      43.696   3.538  13.584  0.00  0.00    +0.000 OA
ATOM     30  C   UNL     1      45.023   5.354  12.832  0.00  0.00    +0.000 A 
ATOM     31  H   UNL     1      41.967   4.401  12.079  0.00  0.00    +0.000 HD
ENDBRANCH  18  21
ENDBRANCH   1  19
TORSDOF 6
ENDMDL
MODEL 6
REMARK VINA RESULT:    -7.636      3.117      4.333
REMARK INTER + INTRA:          -9.837
REMARK INTER:                  -8.700
REMARK INTRA:                  -1.137
REMARK UNBOUND:                 0.253
REMARK  Name = 
REMARK  6 active torsions:
REMARK  status: ('A' for Active; 'I' for Inactive)
REMARK    1  A    between atoms: C_2  and  C_19
REMARK    2  A    between atoms: N_3  and  C_4
REMARK    3  A    between atoms: C_4  and  C_5
REMARK    4  A    between atoms: C_8  and  C_9
REMARK    5  A    between atoms: C_9  and  N_10
REMARK    6  A    between atoms: C_13  and  O_14
REMARK                            x       y       z     vdW  Elec       q    Type
REMARK                         _______ _______ _______ _____ _____    ______ ____
ROOT
ATOM      1  C   UNL     1      49.410   8.562  14.324  0.00  0.00    +0.000 C 
ENDROOT
BRANCH   1   2
ATOM      2  C   UNL     1      48.218   8.201  13.475  0.00  0.00    +0.000 A 
ATOM      3  C   UNL     1      47.000   8.871  13.654  0.00  0.00    +0.000 A 
ATOM      4  C   UNL     1      45.888   8.551  12.874  0.00  0.00    +0.000 A 
ATOM      5  C   UNL     1      45.961   7.546  11.900  0.00  0.00    +0.000 A 
ATOM      6  C   UNL     1      47.174   6.857  11.741  0.00  0.00    +0.000 A 
ATOM      7  C   UNL     1      48.289   7.177  12.523  0.00  0.00    +0.000 A 
BRANCH   5   8
ATOM      8  C   UNL     1      44.749   7.172  11.072  0.00  0.00    +0.000 C 
BRANCH   8   9
ATOM      9  N   UNL     1      44.111   5.873  11.342  0.00  0.00    +0.000 NA
ATOM     10  C   UNL     1      44.071   5.515  12.760  0.00  0.00    +0.000 C 
ATOM     11  C   UNL     1      43.205   4.273  12.997  0.00  0.00    +0.000 C 
ATOM     12  C   UNL     1      43.616   3.105  12.106  0.00  0.00    +0.000 C 
ATOM     13  C   UNL     1      43.741   3.539  10.649  0.00  0.00    +0.000 C 
ATOM     14  C   UNL     1      44.611   4.789  10.496  0.00  0.00    +0.000 C 
BRANCH  12  15
ATOM     15  O   UNL     1      44.842   2.534  12.565  0.00  0.00    +0.000 OA
ATOM     16  H   UNL     1      44.844   2.545  13.536  0.00  0.00    +0.000 HD
ENDBRANCH  12  15
ENDBRANCH   8   9
ENDBRANCH   5   8
ENDBRANCH   1   2
BRANCH   1  19
ATOM     17  O   UNL     1      48.263   9.092  16.853  0.00  0.00    +0.000 OA
ATOM     18  C   UNL     1      48.848   8.028  16.668  0.00  0.00    +0.000 C 
ATOM     19  N   UNL     1      49.492   7.729  15.495  0.00  0.00    +0.000 N 
ATOM     20  H   UNL     1      49.789   6.776  15.332  0.00  0.00    +0.000 HD
BRANCH  18  21
ATOM     21  C   UNL     1      48.954   7.016  17.727  0.00  0.00    +0.000 A 
ATOM     22  C   UNL     1      49.378   7.381  18.999  0.00  0.00    +0.000 A 
ATOM     23  S   UNL     1      49.481   6.067  20.083  0.00  0.00    +0.000 S 
ATOM     24  C   UNL     1      48.914   4.976  18.906  0.00  0.00    +0.000 A 
ATOM     25  N   UNL     1      48.748   3.657  19.195  0.00  0.00    +0.000 NA
ATOM     26  C   UNL     1      48.271   2.955  18.218  0.00  0.00    +0.000 A 
ATOM     27  N   UNL     1      47.948   3.451  16.986  0.00  0.00    +0.000 N 
ATOM     28  C   UNL     1      48.164   4.759  16.628  0.00  0.00    +0.000 A 
ATOM     29  O   UNL     1      47.979   5.134  15.477  0.00  0.00    +0.000 OA
ATOM     30  C   UNL     1      48.667   5.601  17.698  0.00  0.00    +0.000 A 
ATOM     31  H   UNL     1      47.600   2.844  16.258  0.00  0.00    +0.000 HD
ENDBRANCH  18  21
ENDBRANCH   1  19
TORSDOF 6
ENDMDL
MODEL 7
REMARK VINA RESULT:    -7.619      3.081      8.960
REMARK INTER + INTRA:          -9.816
REMARK INTER:                  -8.989
REMARK INTRA:                  -0.827
REMARK UNBOUND:                 0.253
REMARK  Name = 
REMARK  6 active torsions:
REMARK  status: ('A' for Active; 'I' for Inactive)
REMARK    1  A    between atoms: C_2  and  C_19
REMARK    2  A    between atoms: N_3  and  C_4
REMARK    3  A    between atoms: C_4  and  C_5
REMARK    4  A    between atoms: C_8  and  C_9
REMARK    5  A    between atoms: C_9  and  N_10
REMARK    6  A    between atoms: C_13  and  O_14
REMARK                            x       y       z     vdW  Elec       q    Type
REMARK                         _______ _______ _______ _____ _____    ______ ____
ROOT
ATOM      1  C   UNL     1      47.841   7.705  11.737  0.00  0.00    +0.000 C 
ENDROOT
BRANCH   1   2
ATOM      2  C   UNL     1      48.342   7.920  13.142  0.00  0.00    +0.000 A 
ATOM      3  C   UNL     1      49.482   7.240  13.593  0.00  0.00    +0.000 A 
ATOM      4  C   UNL     1      49.961   7.431  14.890  0.00  0.00    +0.000 A 
ATOM      5  C   UNL     1      49.307   8.300  15.774  0.00  0.00    +0.000 A 
ATOM      6  C   UNL     1      48.150   8.959  15.331  0.00  0.00    +0.000 A 
ATOM      7  C   UNL     1      47.669   8.767  14.030  0.00  0.00    +0.000 A 
BRANCH   5   8
ATOM      8  C   UNL     1      49.803   8.487  17.193  0.00  0.00    +0.000 C 
BRANCH   8   9
ATOM      9  N   UNL     1      49.190   7.662  18.247  0.00  0.00    +0.000 NA
ATOM     10  C   UNL     1      49.167   6.230  17.941  0.00  0.00    +0.000 C 
ATOM     11  C   UNL     1      48.727   5.408  19.157  0.00  0.00    +0.000 C 
ATOM     12  C   UNL     1      47.409   5.906  19.743  0.00  0.00    +0.000 C 
ATOM     13  C   UNL     1      47.436   7.416  19.957  0.00  0.00    +0.000 C 
ATOM     14  C   UNL     1      47.895   8.165  18.703  0.00  0.00    +0.000 C 
BRANCH  12  15
ATOM     15  O   UNL     1      46.317   5.540  18.899  0.00  0.00    +0.000 OA
ATOM     16  H   UNL     1      46.628   5.523  17.979  0.00  0.00    +0.000 HD
ENDBRANCH  12  15
ENDBRANCH   8   9
ENDBRANCH   5   8
ENDBRANCH   1   2
BRANCH   1  19
ATOM     17  O   UNL     1      45.019   7.562  11.838  0.00  0.00    +0.000 OA
ATOM     18  C   UNL     1      45.667   6.540  11.633  0.00  0.00    +0.000 C 
ATOM     19  N   UNL     1      47.037   6.515  11.643  0.00  0.00    +0.000 N 
ATOM     20  H   UNL     1      47.512   5.696  11.284  0.00  0.00    +0.000 HD
BRANCH  18  21
ATOM     21  C   UNL     1      45.009   5.243  11.424  0.00  0.00    +0.000 A 
ATOM     22  C   UNL     1      44.254   4.673  12.443  0.00  0.00    +0.000 A 
ATOM     23  S   UNL     1      43.604   3.149  12.034  0.00  0.00    +0.000 S 
ATOM     24  C   UNL     1      44.264   3.223  10.467  0.00  0.00    +0.000 A 
ATOM     25  N   UNL     1      44.062   2.218   9.574  0.00  0.00    +0.000 NA
ATOM     26  C   UNL     1      44.587   2.427   8.409  0.00  0.00    +0.000 A 
ATOM     27  N   UNL     1      45.292   3.546   8.061  0.00  0.00    +0.000 N 
ATOM     28  C   UNL     1      45.580   4.552   8.950  0.00  0.00    +0.000 A 
ATOM     29  O   UNL     1      46.320   5.476   8.635  0.00  0.00    +0.000 OA
ATOM     30  C   UNL     1      44.986   4.384  10.264  0.00  0.00    +0.000 A 
ATOM     31  H   UNL     1      45.695   3.638   7.141  0.00  0.00    +0.000 HD
ENDBRANCH  18  21
ENDBRANCH   1  19
TORSDOF 6
ENDMDL
MODEL 8
REMARK VINA RESULT:    -7.566      3.689      5.914
REMARK INTER + INTRA:          -9.746
REMARK INTER:                  -8.854
REMARK INTRA:                  -0.892
REMARK UNBOUND:                 0.253
REMARK  Name = 
REMARK  6 active torsions:
REMARK  status: ('A' for Active; 'I' for Inactive)
REMARK    1  A    between atoms: C_2  and  C_19
REMARK    2  A    between atoms: N_3  and  C_4
REMARK    3  A    between atoms: C_4  and  C_5
REMARK    4  A    between atoms: C_8  and  C_9
REMARK    5  A    between atoms: C_9  and  N_10
REMARK    6  A    between atoms: C_13  and  O_14
REMARK                            x       y       z     vdW  Elec       q    Type
REMARK                         _______ _______ _______ _____ _____    ______ ____
ROOT
ATOM      1  C   UNL     1      48.861   5.785  18.095  0.00  0.00    +0.000 C 
ENDROOT
BRANCH   1   2
ATOM      2  C   UNL     1      48.368   5.715  16.673  0.00  0.00    +0.000 A 
ATOM      3  C   UNL     1      47.600   4.620  16.249  0.00  0.00    +0.000 A 
ATOM      4  C   UNL     1      47.133   4.542  14.936  0.00  0.00    +0.000 A 
ATOM      5  C   UNL     1      47.429   5.550  14.009  0.00  0.00    +0.000 A 
ATOM      6  C   UNL     1      48.221   6.631  14.427  0.00  0.00    +0.000 A 
ATOM      7  C   UNL     1      48.690   6.710  15.743  0.00  0.00    +0.000 A 
BRANCH   5   8
ATOM      8  C   UNL     1      46.952   5.455  12.574  0.00  0.00    +0.000 C 
BRANCH   8   9
ATOM      9  N   UNL     1      45.549   5.076  12.343  0.00  0.00    +0.000 NA
ATOM     10  C   UNL     1      45.210   4.885  10.932  0.00  0.00    +0.000 C 
ATOM     11  C   UNL     1      43.812   4.279  10.772  0.00  0.00    +0.000 C 
ATOM     12  C   UNL     1      42.751   5.071  11.530  0.00  0.00    +0.000 C 
ATOM     13  C   UNL     1      43.181   5.335  12.969  0.00  0.00    +0.000 C 
ATOM     14  C   UNL     1      44.590   5.929  13.046  0.00  0.00    +0.000 C 
BRANCH  12  15
ATOM     15  O   UNL     1      42.470   6.300  10.859  0.00  0.00    +0.000 OA
ATOM     16  H   UNL     1      43.196   6.922  11.034  0.00  0.00    +0.000 HD
ENDBRANCH  12  15
ENDBRANCH   8   9
ENDBRANCH   5   8
ENDBRANCH   1   2
BRANCH   1  19
ATOM     17  O   UNL     1      51.585   6.393  17.644  0.00  0.00    +0.000 OA
ATOM     18  C   UNL     1      51.283   5.305  18.126  0.00  0.00    +0.000 C 
ATOM     19  N   UNL     1      49.983   4.908  18.306  0.00  0.00    +0.000 N 
ATOM     20  H   UNL     1      49.797   4.093  18.875  0.00  0.00    +0.000 HD
BRANCH  18  21
ATOM     21  C   UNL     1      52.305   4.315  18.488  0.00  0.00    +0.000 A 
ATOM     22  C   UNL     1      53.392   4.690  19.268  0.00  0.00    +0.000 A 
ATOM     23  S   UNL     1      54.497   3.420  19.550  0.00  0.00    +0.000 S 
ATOM     24  C   UNL     1      53.535   2.314  18.684  0.00  0.00    +0.000 A 
ATOM     25  N   UNL     1      53.908   1.013  18.554  0.00  0.00    +0.000 NA
ATOM     26  C   UNL     1      53.061   0.279  17.907  0.00  0.00    +0.000 A 
ATOM     27  N   UNL     1      51.882   0.728  17.380  0.00  0.00    +0.000 N 
ATOM     28  C   UNL     1      51.499   2.046  17.426  0.00  0.00    +0.000 A 
ATOM     29  O   UNL     1      50.498   2.430  16.833  0.00  0.00    +0.000 OA
ATOM     30  C   UNL     1      52.397   2.909  18.171  0.00  0.00    +0.000 A 
ATOM     31  H   UNL     1      51.275   0.107  16.866  0.00  0.00    +0.000 HD
ENDBRANCH  18  21
ENDBRANCH   1  19
TORSDOF 6
ENDMDL
MODEL 9
REMARK VINA RESULT:    -7.294      4.656      7.145
REMARK INTER + INTRA:          -9.385
REMARK INTER:                  -8.479
REMARK INTRA:                  -0.906
REMARK UNBOUND:                 0.253
REMARK  Name = 
REMARK  6 active torsions:
REMARK  status: ('A' for Active; 'I' for Inactive)
REMARK    1  A    between atoms: C_2  and  C_19
REMARK    2  A    between atoms: N_3  and  C_4
REMARK    3  A    between atoms: C_4  and  C_5
REMARK    4  A    between atoms: C_8  and  C_9
REMARK    5  A    between atoms: C_9  and  N_10
REMARK    6  A    between atoms: C_13  and  O_14
REMARK                            x       y       z     vdW  Elec       q    Type
REMARK                         _______ _______ _______ _____ _____    ______ ____
ROOT
ATOM      1  C   UNL     1      46.635   8.460  12.827  0.00  0.00    +0.000 C 
ENDROOT
BRANCH   1   2
ATOM      2  C   UNL     1      48.052   8.470  12.314  0.00  0.00    +0.000 A 
ATOM      3  C   UNL     1      48.804   7.287  12.306  0.00  0.00    +0.000 A 
ATOM      4  C   UNL     1      50.117   7.279  11.831  0.00  0.00    +0.000 A 
ATOM      5  C   UNL     1      50.716   8.455  11.360  0.00  0.00    +0.000 A 
ATOM      6  C   UNL     1      49.971   9.645  11.395  0.00  0.00    +0.000 A 
ATOM      7  C   UNL     1      48.655   9.653  11.872  0.00  0.00    +0.000 A 
BRANCH   5   8
ATOM      8  C   UNL     1      52.150   8.460  10.873  0.00  0.00    +0.000 C 
BRANCH   8   9
ATOM      9  N   UNL     1      52.562   7.390   9.949  0.00  0.00    +0.000 NA
ATOM     10  C   UNL     1      53.767   6.674  10.370  0.00  0.00    +0.000 C 
ATOM     11  C   UNL     1      54.016   5.440   9.497  0.00  0.00    +0.000 C 
ATOM     12  C   UNL     1      54.022   5.779   8.009  0.00  0.00    +0.000 C 
ATOM     13  C   UNL     1      52.799   6.608   7.627  0.00  0.00    +0.000 C 
ATOM     14  C   UNL     1      52.613   7.815   8.550  0.00  0.00    +0.000 C 
BRANCH  12  15
ATOM     15  O   UNL     1      55.223   6.468   7.658  0.00  0.00    +0.000 OA
ATOM     16  H   UNL     1      55.525   6.977   8.428  0.00  0.00    +0.000 HD
ENDBRANCH  12  15
ENDBRANCH   8   9
ENDBRANCH   5   8
ENDBRANCH   1   2
BRANCH   1  19
ATOM     17  O   UNL     1      44.525   7.871  11.040  0.00  0.00    +0.000 OA
ATOM     18  C   UNL     1      45.037   6.962  11.688  0.00  0.00    +0.000 C 
ATOM     19  N   UNL     1      46.013   7.178  12.626  0.00  0.00    +0.000 N 
ATOM     20  H   UNL     1      46.526   6.384  12.988  0.00  0.00    +0.000 HD
BRANCH  18  21
ATOM     21  C   UNL     1      44.589   5.571  11.546  0.00  0.00    +0.000 A 
ATOM     22  C   UNL     1      43.831   4.977  12.548  0.00  0.00    +0.000 A 
ATOM     23  S   UNL     1      43.440   3.347  12.230  0.00  0.00    +0.000 S 
ATOM     24  C   UNL     1      44.224   3.394  10.719  0.00  0.00    +0.000 A 
ATOM     25  N   UNL     1      44.247   2.303   9.908  0.00  0.00    +0.000 NA
ATOM     26  C   UNL     1      44.842   2.496   8.774  0.00  0.00    +0.000 A 
ATOM     27  N   UNL     1      45.413   3.675   8.384  0.00  0.00    +0.000 N 
ATOM     28  C   UNL     1      45.475   4.780   9.198  0.00  0.00    +0.000 A 
ATOM     29  O   UNL     1      46.105   5.774   8.860  0.00  0.00    +0.000 OA
ATOM     30  C   UNL     1      44.792   4.629  10.470  0.00  0.00    +0.000 A 
ATOM     31  H   UNL     1      45.882   3.753   7.493  0.00  0.00    +0.000 HD
ENDBRANCH  18  21
ENDBRANCH   1  19
TORSDOF 6
ENDMDL
