MODEL 1
REMARK VINA RESULT:    -8.625      0.000      0.000
REMARK INTER + INTRA:         -12.847
REMARK INTER:                 -12.155
REMARK INTRA:                  -0.692
REMARK UNBOUND:                -0.692
REMARK  Name = 
REMARK  7 active torsions:
REMARK  status: ('A' for Active; 'I' for Inactive)
REMARK    1  A    between atoms: C_2  and  C_20
REMARK    2  A    between atoms: N_3  and  C_4
REMARK    3  A    between atoms: C_4  and  C_5
REMARK    4  A    between atoms: C_8  and  C_9
REMARK    5  A    between atoms: C_9  and  N_10
REMARK    6  A    between atoms: N_10  and  C_11
REMARK    7  A    between atoms: C_11  and  C_12
REMARK                            x       y       z     vdW  Elec       q    Type
REMARK                         _______ _______ _______ _____ _____    ______ ____
ROOT
ATOM      1  C   UNL     1      46.633   5.105  13.494  0.00  0.00    +0.000 A 
ATOM      2  C   UNL     1      46.490   3.735  13.414  0.00  0.00    +0.000 A 
ATOM      3  N   UNL     1      45.586   3.121  12.628  0.00  0.00    +0.000 NA
ATOM      4  C   UNL     1      44.793   3.921  11.884  0.00  0.00    +0.000 A 
ATOM      5  N   UNL     1      44.852   5.268  11.888  0.00  0.00    +0.000 NA
ATOM      6  C   UNL     1      45.777   5.828  12.690  0.00  0.00    +0.000 A 
ENDROOT
BRANCH   1   7
ATOM      7  C   UNL     1      47.619   5.758  14.395  0.00  0.00    +0.000 C 
BRANCH   7  10
ATOM      8  O   UNL     1      49.691   5.871  16.122  0.00  0.00    +0.000 OA
ATOM      9  C   UNL     1      48.636   5.424  16.566  0.00  0.00    +0.000 C 
ATOM     10  N   UNL     1      47.518   5.322  15.766  0.00  0.00    +0.000 N 
ATOM     11  H   UNL     1      46.635   5.036  16.158  0.00  0.00    +0.000 HD
BRANCH   9  12
ATOM     12  C   UNL     1      48.499   4.972  17.949  0.00  0.00    +0.000 A 
ATOM     13  C   UNL     1      48.681   3.698  18.460  0.00  0.00    +0.000 A 
ATOM     14  N   UNL     1      48.499   3.745  19.819  0.00  0.00    +0.000 N 
ATOM     15  C   UNL     1      48.179   5.020  20.217  0.00  0.00    +0.000 A 
ATOM     16  C   UNL     1      47.912   5.530  21.494  0.00  0.00    +0.000 A 
ATOM     17  C   UNL     1      47.598   6.891  21.597  0.00  0.00    +0.000 A 
ATOM     18  C   UNL     1      47.553   7.704  20.469  0.00  0.00    +0.000 A 
ATOM     19  C   UNL     1      47.834   7.178  19.205  0.00  0.00    +0.000 A 
ATOM     20  C   UNL     1      48.155   5.809  19.067  0.00  0.00    +0.000 A 
ATOM     21  H   UNL     1      48.590   2.957  20.449  0.00  0.00    +0.000 HD
ENDBRANCH   9  12
ENDBRANCH   7  10
ENDBRANCH   1   7
BRANCH   4  22
ATOM     22  C   UNL     1      43.710   3.264  11.040  0.00  0.00    +0.000 C 
BRANCH  22  23
ATOM     23  N   UNL     1      44.016   3.146   9.597  0.00  0.00    +0.000 NA
ATOM     24  H   UNL     1      44.621   3.932   9.354  0.00  0.00    +0.000 HD
BRANCH  23  25
ATOM     25  C   UNL     1      44.733   1.904   9.300  0.00  0.00    +0.000 C 
BRANCH  25  26
ATOM     26  C   UNL     1      45.791   2.125   8.251  0.00  0.00    +0.000 A 
ATOM     27  C   UNL     1      45.954   3.359   7.615  0.00  0.00    +0.000 A 
ATOM     28  C   UNL     1      46.948   3.515   6.653  0.00  0.00    +0.000 A 
ATOM     29  C   UNL     1      47.747   2.426   6.351  0.00  0.00    +0.000 A 
ATOM     30  N   UNL     1      47.616   1.215   6.934  0.00  0.00    +0.000 NA
ATOM     31  C   UNL     1      46.643   1.094   7.867  0.00  0.00    +0.000 A 
ENDBRANCH  25  26
ENDBRANCH  23  25
ENDBRANCH  22  23
ENDBRANCH   4  22
TORSDOF 7
ENDMDL
MODEL 2
REMARK VINA RESULT:    -8.106      1.847      2.621
REMARK INTER + INTRA:         -12.114
REMARK INTER:                 -11.364
REMARK INTRA:                  -0.750
REMARK UNBOUND:                -0.692
REMARK  Name = 
REMARK  7 active torsions:
REMARK  status: ('A' for Active; 'I' for Inactive)
REMARK    1  A    between atoms: C_2  and  C_20
REMARK    2  A    between atoms: N_3  and  C_4
REMARK    3  A    between atoms: C_4  and  C_5
REMARK    4  A    between atoms: C_8  and  C_9
REMARK    5  A    between atoms: C_9  and  N_10
REMARK    6  A    between atoms: N_10  and  C_11
REMARK    7  A    between atoms: C_11  and  C_12
REMARK                            x       y       z     vdW  Elec       q    Type
REMARK                         _______ _______ _______ _____ _____    ______ ____
ROOT
ATOM      1  C   UNL     1      46.070   6.727  12.536  0.00  0.00    +0.000 A 
ATOM      2  C   UNL     1      45.065   7.064  11.653  0.00  0.00    +0.000 A 
ATOM      3  N   UNL     1      44.269   6.163  11.046  0.00  0.00    +0.000 NA
ATOM      4  C   UNL     1      44.491   4.865  11.345  0.00  0.00    +0.000 A 
ATOM      5  N   UNL     1      45.444   4.431  12.194  0.00  0.00    +0.000 NA
ATOM      6  C   UNL     1      46.208   5.376  12.775  0.00  0.00    +0.000 A 
ENDROOT
BRANCH   1   7
ATOM      7  C   UNL     1      46.956   7.740  13.168  0.00  0.00    +0.000 C 
BRANCH   7  10
ATOM      8  O   UNL     1      49.457   6.822  13.603  0.00  0.00    +0.000 OA
ATOM      9  C   UNL     1      48.726   6.897  14.588  0.00  0.00    +0.000 C 
ATOM     10  N   UNL     1      47.429   7.351  14.474  0.00  0.00    +0.000 N 
ATOM     11  H   UNL     1      46.864   7.491  15.296  0.00  0.00    +0.000 HD
BRANCH   9  12
ATOM     12  C   UNL     1      49.173   6.510  15.924  0.00  0.00    +0.000 A 
ATOM     13  C   UNL     1      50.066   7.164  16.757  0.00  0.00    +0.000 A 
ATOM     14  N   UNL     1      50.149   6.470  17.937  0.00  0.00    +0.000 N 
ATOM     15  C   UNL     1      49.346   5.357  17.897  0.00  0.00    +0.000 A 
ATOM     16  C   UNL     1      49.115   4.370  18.863  0.00  0.00    +0.000 A 
ATOM     17  C   UNL     1      48.239   3.329  18.534  0.00  0.00    +0.000 A 
ATOM     18  C   UNL     1      47.621   3.279  17.289  0.00  0.00    +0.000 A 
ATOM     19  C   UNL     1      47.855   4.280  16.341  0.00  0.00    +0.000 A 
ATOM     20  C   UNL     1      48.733   5.345  16.644  0.00  0.00    +0.000 A 
ATOM     21  H   UNL     1      50.716   6.735  18.733  0.00  0.00    +0.000 HD
ENDBRANCH   9  12
ENDBRANCH   7  10
ENDBRANCH   1   7
BRANCH   4  22
ATOM     22  C   UNL     1      43.659   3.816  10.621  0.00  0.00    +0.000 C 
BRANCH  22  23
ATOM     23  N   UNL     1      44.104   3.491   9.249  0.00  0.00    +0.000 NA
ATOM     24  H   UNL     1      44.688   4.266   8.931  0.00  0.00    +0.000 HD
BRANCH  23  25
ATOM     25  C   UNL     1      44.910   2.268   9.222  0.00  0.00    +0.000 C 
BRANCH  25  26
ATOM     26  C   UNL     1      45.885   2.285   8.074  0.00  0.00    +0.000 A 
ATOM     27  C   UNL     1      45.976   3.369   7.197  0.00  0.00    +0.000 A 
ATOM     28  C   UNL     1      46.895   3.339   6.153  0.00  0.00    +0.000 A 
ATOM     29  C   UNL     1      47.694   2.217   6.013  0.00  0.00    +0.000 A 
ATOM     30  N   UNL     1      47.631   1.144   6.831  0.00  0.00    +0.000 NA
ATOM     31  C   UNL     1      46.730   1.204   7.838  0.00  0.00    +0.000 A 
ENDBRANCH  25  26
ENDBRANCH  23  25
ENDBRANCH  22  23
ENDBRANCH   4  22
TORSDOF 7
ENDMDL
MODEL 3
REMARK VINA RESULT:    -7.814      3.800      5.986
REMARK INTER + INTRA:         -11.704
REMARK INTER:                 -10.849
REMARK INTRA:                  -0.855
REMARK UNBOUND:                -0.692
REMARK  Name = 
REMARK  7 active torsions:
REMARK  status: ('A' for Active; 'I' for Inactive)
REMARK    1  A    between atoms: C_2  and  C_20
REMARK    2  A    between atoms: N_3  and  C_4
REMARK    3  A    between atoms: C_4  and  C_5
REMARK    4  A    between atoms: C_8  and  C_9
REMARK    5  A    between atoms: C_9  and  N_10
REMARK    6  A    between atoms: N_10  and  C_11
REMARK    7  A    between atoms: C_11  and  C_12
REMARK                            x       y       z     vdW  Elec       q    Type
REMARK                         _______ _______ _______ _____ _____    ______ ____
ROOT
ATOM      1  C   UNL     1      46.481   5.306  13.408  0.00  0.00    +0.000 A 
ATOM      2  C   UNL     1      45.339   5.824  12.834  0.00  0.00    +0.000 A 
ATOM      3  N   UNL     1      44.373   5.070  12.276  0.00  0.00    +0.000 NA
ATOM      4  C   UNL     1      44.562   3.733  12.302  0.00  0.00    +0.000 A 
ATOM      5  N   UNL     1      45.641   3.128  12.837  0.00  0.00    +0.000 NA
ATOM      6  C   UNL     1      46.573   3.930  13.384  0.00  0.00    +0.000 A 
ENDROOT
BRANCH   1   7
ATOM      7  C   UNL     1      47.548   6.164  13.988  0.00  0.00    +0.000 C 
BRANCH   7  10
ATOM      8  O   UNL     1      48.840   7.431  11.984  0.00  0.00    +0.000 OA
ATOM      9  C   UNL     1      48.076   8.117  12.659  0.00  0.00    +0.000 C 
ATOM     10  N   UNL     1      47.370   7.567  13.708  0.00  0.00    +0.000 N 
ATOM     11  H   UNL     1      46.683   8.114  14.202  0.00  0.00    +0.000 HD
BRANCH   9  12
ATOM     12  C   UNL     1      47.873   9.542  12.404  0.00  0.00    +0.000 A 
ATOM     13  C   UNL     1      48.811  10.561  12.418  0.00  0.00    +0.000 A 
ATOM     14  N   UNL     1      48.186  11.732  12.070  0.00  0.00    +0.000 N 
ATOM     15  C   UNL     1      46.848  11.514  11.847  0.00  0.00    +0.000 A 
ATOM     16  C   UNL     1      45.835  12.406  11.473  0.00  0.00    +0.000 A 
ATOM     17  C   UNL     1      44.540  11.894  11.328  0.00  0.00    +0.000 A 
ATOM     18  C   UNL     1      44.272  10.547  11.548  0.00  0.00    +0.000 A 
ATOM     19  C   UNL     1      45.300   9.670  11.910  0.00  0.00    +0.000 A 
ATOM     20  C   UNL     1      46.618  10.156  12.063  0.00  0.00    +0.000 A 
ATOM     21  H   UNL     1      48.638  12.633  11.983  0.00  0.00    +0.000 HD
ENDBRANCH   9  12
ENDBRANCH   7  10
ENDBRANCH   1   7
BRANCH   4  22
ATOM     22  C   UNL     1      43.526   2.855  11.616  0.00  0.00    +0.000 C 
BRANCH  22  23
ATOM     23  N   UNL     1      43.961   2.239  10.343  0.00  0.00    +0.000 NA
ATOM     24  H   UNL     1      43.170   1.702   9.984  0.00  0.00    +0.000 HD
BRANCH  23  25
ATOM     25  C   UNL     1      44.316   3.255   9.349  0.00  0.00    +0.000 C 
BRANCH  25  26
ATOM     26  C   UNL     1      45.460   2.793   8.485  0.00  0.00    +0.000 A 
ATOM     27  C   UNL     1      45.860   1.454   8.442  0.00  0.00    +0.000 A 
ATOM     28  C   UNL     1      46.922   1.075   7.625  0.00  0.00    +0.000 A 
ATOM     29  C   UNL     1      47.558   2.053   6.879  0.00  0.00    +0.000 A 
ATOM     30  N   UNL     1      47.210   3.357   6.899  0.00  0.00    +0.000 NA
ATOM     31  C   UNL     1      46.173   3.695   7.700  0.00  0.00    +0.000 A 
ENDBRANCH  25  26
ENDBRANCH  23  25
ENDBRANCH  22  23
ENDBRANCH   4  22
TORSDOF 7
ENDMDL
MODEL 4
REMARK VINA RESULT:    -7.422      1.624      1.979
REMARK INTER + INTRA:         -11.151
REMARK INTER:                 -10.453
REMARK INTRA:                  -0.698
REMARK UNBOUND:                -0.692
REMARK  Name = 
REMARK  7 active torsions:
REMARK  status: ('A' for Active; 'I' for Inactive)
REMARK    1  A    between atoms: C_2  and  C_20
REMARK    2  A    between atoms: N_3  and  C_4
REMARK    3  A    between atoms: C_4  and  C_5
REMARK    4  A    between atoms: C_8  and  C_9
REMARK    5  A    between atoms: C_9  and  N_10
REMARK    6  A    between atoms: N_10  and  C_11
REMARK    7  A    between atoms: C_11  and  C_12
REMARK                            x       y       z     vdW  Elec       q    Type
REMARK                         _______ _______ _______ _____ _____    ______ ____
ROOT
ATOM      1  C   UNL     1      46.232   6.253  12.695  0.00  0.00    +0.000 A 
ATOM      2  C   UNL     1      45.315   6.605  11.726  0.00  0.00    +0.000 A 
ATOM      3  N   UNL     1      44.478   5.731  11.136  0.00  0.00    +0.000 NA
ATOM      4  C   UNL     1      44.563   4.446  11.543  0.00  0.00    +0.000 A 
ATOM      5  N   UNL     1      45.421   4.000  12.482  0.00  0.00    +0.000 NA
ATOM      6  C   UNL     1      46.233   4.918  13.040  0.00  0.00    +0.000 A 
ENDROOT
BRANCH   1   7
ATOM      7  C   UNL     1      47.167   7.233  13.308  0.00  0.00    +0.000 C 
BRANCH   7  10
ATOM      8  O   UNL     1      49.368   8.288  14.464  0.00  0.00    +0.000 OA
ATOM      9  C   UNL     1      48.756   7.448  15.121  0.00  0.00    +0.000 C 
ATOM     10  N   UNL     1      47.621   6.847  14.622  0.00  0.00    +0.000 N 
ATOM     11  H   UNL     1      47.078   6.224  15.198  0.00  0.00    +0.000 HD
BRANCH   9  12
ATOM     12  C   UNL     1      49.189   7.033  16.454  0.00  0.00    +0.000 A 
ATOM     13  C   UNL     1      50.104   6.051  16.795  0.00  0.00    +0.000 A 
ATOM     14  N   UNL     1      50.240   6.038  18.160  0.00  0.00    +0.000 N 
ATOM     15  C   UNL     1      49.418   6.977  18.733  0.00  0.00    +0.000 A 
ATOM     16  C   UNL     1      49.230   7.316  20.079  0.00  0.00    +0.000 A 
ATOM     17  C   UNL     1      48.302   8.323  20.372  0.00  0.00    +0.000 A 
ATOM     18  C   UNL     1      47.594   8.962  19.360  0.00  0.00    +0.000 A 
ATOM     19  C   UNL     1      47.805   8.617  18.021  0.00  0.00    +0.000 A 
ATOM     20  C   UNL     1      48.735   7.606  17.692  0.00  0.00    +0.000 A 
ATOM     21  H   UNL     1      50.860   5.430  18.681  0.00  0.00    +0.000 HD
ENDBRANCH   9  12
ENDBRANCH   7  10
ENDBRANCH   1   7
BRANCH   4  22
ATOM     22  C   UNL     1      43.683   3.420  10.845  0.00  0.00    +0.000 C 
BRANCH  22  23
ATOM     23  N   UNL     1      43.979   3.201   9.412  0.00  0.00    +0.000 NA
ATOM     24  H   UNL     1      44.545   3.991   9.099  0.00  0.00    +0.000 HD
BRANCH  23  25
ATOM     25  C   UNL     1      44.750   1.972   9.206  0.00  0.00    +0.000 C 
BRANCH  25  26
ATOM     26  C   UNL     1      45.825   2.173   8.170  0.00  0.00    +0.000 A 
ATOM     27  C   UNL     1      45.979   3.385   7.490  0.00  0.00    +0.000 A 
ATOM     28  C   UNL     1      46.989   3.523   6.543  0.00  0.00    +0.000 A 
ATOM     29  C   UNL     1      47.814   2.438   6.299  0.00  0.00    +0.000 A 
ATOM     30  N   UNL     1      47.693   1.248   6.925  0.00  0.00    +0.000 NA
ATOM     31  C   UNL     1      46.704   1.144   7.843  0.00  0.00    +0.000 A 
ENDBRANCH  25  26
ENDBRANCH  23  25
ENDBRANCH  22  23
ENDBRANCH   4  22
TORSDOF 7
ENDMDL
MODEL 5
REMARK VINA RESULT:    -7.194      2.301      3.264
REMARK INTER + INTRA:         -10.830
REMARK INTER:                 -10.198
REMARK INTRA:                  -0.631
REMARK UNBOUND:                -0.692
REMARK  Name = 
REMARK  7 active torsions:
REMARK  status: ('A' for Active; 'I' for Inactive)
REMARK    1  A    between atoms: C_2  and  C_20
REMARK    2  A    between atoms: N_3  and  C_4
REMARK    3  A    between atoms: C_4  and  C_5
REMARK    4  A    between atoms: C_8  and  C_9
REMARK    5  A    between atoms: C_9  and  N_10
REMARK    6  A    between atoms: N_10  and  C_11
REMARK    7  A    between atoms: C_11  and  C_12
REMARK                            x       y       z     vdW  Elec       q    Type
REMARK                         _______ _______ _______ _____ _____    ______ ____
ROOT
ATOM      1  C   UNL     1      47.206   6.782  13.519  0.00  0.00    +0.000 A 
ATOM      2  C   UNL     1      46.451   7.678  12.792  0.00  0.00    +0.000 A 
ATOM      3  N   UNL     1      45.536   7.314  11.873  0.00  0.00    +0.000 NA
ATOM      4  C   UNL     1      45.368   5.988  11.683  0.00  0.00    +0.000 A 
ATOM      5  N   UNL     1      46.052   5.032  12.342  0.00  0.00    +0.000 NA
ATOM      6  C   UNL     1      46.953   5.453  13.250  0.00  0.00    +0.000 A 
ENDROOT
BRANCH   1   7
ATOM      7  C   UNL     1      48.233   7.212  14.504  0.00  0.00    +0.000 C 
BRANCH   7  10
ATOM      8  O   UNL     1      49.130   7.456  17.039  0.00  0.00    +0.000 OA
ATOM      9  C   UNL     1      49.245   6.345  16.525  0.00  0.00    +0.000 C 
ATOM     10  N   UNL     1      48.820   6.115  15.234  0.00  0.00    +0.000 N 
ATOM     11  H   UNL     1      48.839   5.184  14.850  0.00  0.00    +0.000 HD
BRANCH   9  12
ATOM     12  C   UNL     1      49.837   5.213  17.236  0.00  0.00    +0.000 A 
ATOM     13  C   UNL     1      49.194   4.179  17.894  0.00  0.00    +0.000 A 
ATOM     14  N   UNL     1      50.143   3.311  18.372  0.00  0.00    +0.000 N 
ATOM     15  C   UNL     1      51.403   3.760  18.063  0.00  0.00    +0.000 A 
ATOM     16  C   UNL     1      52.657   3.204  18.343  0.00  0.00    +0.000 A 
ATOM     17  C   UNL     1      53.790   3.902  17.907  0.00  0.00    +0.000 A 
ATOM     18  C   UNL     1      53.670   5.105  17.220  0.00  0.00    +0.000 A 
ATOM     19  C   UNL     1      52.409   5.638  16.940  0.00  0.00    +0.000 A 
ATOM     20  C   UNL     1      51.246   4.958  17.365  0.00  0.00    +0.000 A 
ATOM     21  H   UNL     1      49.951   2.455  18.879  0.00  0.00    +0.000 HD
ENDBRANCH   9  12
ENDBRANCH   7  10
ENDBRANCH   1   7
BRANCH   4  22
ATOM     22  C   UNL     1      44.395   5.542  10.602  0.00  0.00    +0.000 C 
BRANCH  22  23
ATOM     23  N   UNL     1      45.015   5.106   9.332  0.00  0.00    +0.000 NA
ATOM     24  H   UNL     1      46.013   4.984   9.512  0.00  0.00    +0.000 HD
BRANCH  23  25
ATOM     25  C   UNL     1      44.470   3.823   8.881  0.00  0.00    +0.000 C 
BRANCH  25  26
ATOM     26  C   UNL     1      45.540   2.967   8.255  0.00  0.00    +0.000 A 
ATOM     27  C   UNL     1      46.476   3.492   7.359  0.00  0.00    +0.000 A 
ATOM     28  C   UNL     1      47.448   2.662   6.809  0.00  0.00    +0.000 A 
ATOM     29  C   UNL     1      47.449   1.325   7.168  0.00  0.00    +0.000 A 
ATOM     30  N   UNL     1      46.558   0.776   8.021  0.00  0.00    +0.000 NA
ATOM     31  C   UNL     1      45.627   1.608   8.542  0.00  0.00    +0.000 A 
ENDBRANCH  25  26
ENDBRANCH  23  25
ENDBRANCH  22  23
ENDBRANCH   4  22
TORSDOF 7
ENDMDL
MODEL 6
REMARK VINA RESULT:    -7.031      2.605      9.500
REMARK INTER + INTRA:         -10.600
REMARK INTER:                  -9.676
REMARK INTRA:                  -0.923
REMARK UNBOUND:                -0.692
REMARK  Name = 
REMARK  7 active torsions:
REMARK  status: ('A' for Active; 'I' for Inactive)
REMARK    1  A    between atoms: C_2  and  C_20
REMARK    2  A    between atoms: N_3  and  C_4
REMARK    3  A    between atoms: C_4  and  C_5
REMARK    4  A    between atoms: C_8  and  C_9
REMARK    5  A    between atoms: C_9  and  N_10
REMARK    6  A    between atoms: N_10  and  C_11
REMARK    7  A    between atoms: C_11  and  C_12
REMARK                            x       y       z     vdW  Elec       q    Type
REMARK                         _______ _______ _______ _____ _____    ______ ____
ROOT
ATOM      1  C   UNL     1      47.292   7.664  13.347  0.00  0.00    +0.000 A 
ATOM      2  C   UNL     1      48.112   6.607  13.680  0.00  0.00    +0.000 A 
ATOM      3  N   UNL     1      48.979   6.626  14.711  0.00  0.00    +0.000 NA
ATOM      4  C   UNL     1      49.018   7.760  15.443  0.00  0.00    +0.000 A 
ATOM      5  N   UNL     1      48.259   8.848  15.202  0.00  0.00    +0.000 NA
ATOM      6  C   UNL     1      47.409   8.771  14.161  0.00  0.00    +0.000 A 
ENDROOT
BRANCH   1   7
ATOM      7  C   UNL     1      46.367   7.627  12.184  0.00  0.00    +0.000 C 
BRANCH   7  10
ATOM      8  O   UNL     1      43.933   6.631  11.577  0.00  0.00    +0.000 OA
ATOM      9  C   UNL     1      44.891   5.891  11.368  0.00  0.00    +0.000 C 
ATOM     10  N   UNL     1      46.177   6.303  11.646  0.00  0.00    +0.000 N 
ATOM     11  H   UNL     1      46.964   5.725  11.393  0.00  0.00    +0.000 HD
BRANCH   9  12
ATOM     12  C   UNL     1      44.735   4.543  10.826  0.00  0.00    +0.000 A 
ATOM     13  C   UNL     1      44.046   3.471  11.369  0.00  0.00    +0.000 A 
ATOM     14  N   UNL     1      44.121   2.418  10.493  0.00  0.00    +0.000 N 
ATOM     15  C   UNL     1      44.863   2.762   9.390  0.00  0.00    +0.000 A 
ATOM     16  C   UNL     1      45.197   2.015   8.253  0.00  0.00    +0.000 A 
ATOM     17  C   UNL     1      45.990   2.633   7.279  0.00  0.00    +0.000 A 
ATOM     18  C   UNL     1      46.429   3.943   7.438  0.00  0.00    +0.000 A 
ATOM     19  C   UNL     1      46.075   4.676   8.575  0.00  0.00    +0.000 A 
ATOM     20  C   UNL     1      45.275   4.081   9.575  0.00  0.00    +0.000 A 
ATOM     21  H   UNL     1      43.689   1.512  10.629  0.00  0.00    +0.000 HD
ENDBRANCH   9  12
ENDBRANCH   7  10
ENDBRANCH   1   7
BRANCH   4  22
ATOM     22  C   UNL     1      50.038   7.845  16.569  0.00  0.00    +0.000 C 
BRANCH  22  23
ATOM     23  N   UNL     1      49.508   7.577  17.925  0.00  0.00    +0.000 NA
ATOM     24  H   UNL     1      48.494   7.500  17.841  0.00  0.00    +0.000 HD
BRANCH  23  25
ATOM     25  C   UNL     1      50.022   6.314  18.461  0.00  0.00    +0.000 C 
BRANCH  25  26
ATOM     26  C   UNL     1      49.169   5.152  18.025  0.00  0.00    +0.000 A 
ATOM     27  C   UNL     1      49.728   3.953  17.573  0.00  0.00    +0.000 A 
ATOM     28  C   UNL     1      48.897   2.906  17.183  0.00  0.00    +0.000 A 
ATOM     29  C   UNL     1      47.527   3.094  17.252  0.00  0.00    +0.000 A 
ATOM     30  N   UNL     1      46.947   4.238  17.673  0.00  0.00    +0.000 NA
ATOM     31  C   UNL     1      47.779   5.237  18.047  0.00  0.00    +0.000 A 
ENDBRANCH  25  26
ENDBRANCH  23  25
ENDBRANCH  22  23
ENDBRANCH   4  22
TORSDOF 7
ENDMDL
MODEL 7
REMARK VINA RESULT:    -6.982      2.154      3.044
REMARK INTER + INTRA:         -10.531
REMARK INTER:                  -9.906
REMARK INTRA:                  -0.625
REMARK UNBOUND:                -0.692
REMARK  Name = 
REMARK  7 active torsions:
REMARK  status: ('A' for Active; 'I' for Inactive)
REMARK    1  A    between atoms: C_2  and  C_20
REMARK    2  A    between atoms: N_3  and  C_4
REMARK    3  A    between atoms: C_4  and  C_5
REMARK    4  A    between atoms: C_8  and  C_9
REMARK    5  A    between atoms: C_9  and  N_10
REMARK    6  A    between atoms: N_10  and  C_11
REMARK    7  A    between atoms: C_11  and  C_12
REMARK                            x       y       z     vdW  Elec       q    Type
REMARK                         _______ _______ _______ _____ _____    ______ ____
ROOT
ATOM      1  C   UNL     1      47.412   6.675  13.605  0.00  0.00    +0.000 A 
ATOM      2  C   UNL     1      46.665   7.611  12.922  0.00  0.00    +0.000 A 
ATOM      3  N   UNL     1      45.720   7.298  12.014  0.00  0.00    +0.000 NA
ATOM      4  C   UNL     1      45.515   5.983  11.788  0.00  0.00    +0.000 A 
ATOM      5  N   UNL     1      46.190   4.990  12.402  0.00  0.00    +0.000 NA
ATOM      6  C   UNL     1      47.120   5.361  13.302  0.00  0.00    +0.000 A 
ENDROOT
BRANCH   1   7
ATOM      7  C   UNL     1      48.471   7.049  14.579  0.00  0.00    +0.000 C 
BRANCH   7  10
ATOM      8  O   UNL     1      50.077   8.448  16.238  0.00  0.00    +0.000 OA
ATOM      9  C   UNL     1      48.876   8.467  16.498  0.00  0.00    +0.000 C 
ATOM     10  N   UNL     1      47.971   7.784  15.714  0.00  0.00    +0.000 N 
ATOM     11  H   UNL     1      46.981   7.873  15.882  0.00  0.00    +0.000 HD
BRANCH   9  12
ATOM     12  C   UNL     1      48.336   9.200  17.641  0.00  0.00    +0.000 A 
ATOM     13  C   UNL     1      47.995  10.539  17.723  0.00  0.00    +0.000 A 
ATOM     14  N   UNL     1      47.479  10.782  18.970  0.00  0.00    +0.000 N 
ATOM     15  C   UNL     1      47.490   9.635  19.726  0.00  0.00    +0.000 A 
ATOM     16  C   UNL     1      47.063   9.412  21.041  0.00  0.00    +0.000 A 
ATOM     17  C   UNL     1      47.211   8.121  21.562  0.00  0.00    +0.000 A 
ATOM     18  C   UNL     1      47.762   7.098  20.798  0.00  0.00    +0.000 A 
ATOM     19  C   UNL     1      48.172   7.338  19.483  0.00  0.00    +0.000 A 
ATOM     20  C   UNL     1      48.036   8.630  18.928  0.00  0.00    +0.000 A 
ATOM     21  H   UNL     1      47.132  11.675  19.296  0.00  0.00    +0.000 HD
ENDBRANCH   9  12
ENDBRANCH   7  10
ENDBRANCH   1   7
BRANCH   4  22
ATOM     22  C   UNL     1      44.507   5.595  10.716  0.00  0.00    +0.000 C 
BRANCH  22  23
ATOM     23  N   UNL     1      45.090   5.105   9.446  0.00  0.00    +0.000 NA
ATOM     24  H   UNL     1      46.088   4.967   9.608  0.00  0.00    +0.000 HD
BRANCH  23  25
ATOM     25  C   UNL     1      44.507   3.822   9.049  0.00  0.00    +0.000 C 
BRANCH  25  26
ATOM     26  C   UNL     1      45.523   2.956   8.351  0.00  0.00    +0.000 A 
ATOM     27  C   UNL     1      46.413   3.476   7.407  0.00  0.00    +0.000 A 
ATOM     28  C   UNL     1      47.336   2.636   6.791  0.00  0.00    +0.000 A 
ATOM     29  C   UNL     1      47.337   1.296   7.135  0.00  0.00    +0.000 A 
ATOM     30  N   UNL     1      46.489   0.751   8.034  0.00  0.00    +0.000 NA
ATOM     31  C   UNL     1      45.605   1.592   8.618  0.00  0.00    +0.000 A 
ENDBRANCH  25  26
ENDBRANCH  23  25
ENDBRANCH  22  23
ENDBRANCH   4  22
TORSDOF 7
ENDMDL
MODEL 8
REMARK VINA RESULT:    -6.888      3.583      5.560
REMARK INTER + INTRA:         -10.398
REMARK INTER:                  -9.662
REMARK INTRA:                  -0.736
REMARK UNBOUND:                -0.692
REMARK  Name = 
REMARK  7 active torsions:
REMARK  status: ('A' for Active; 'I' for Inactive)
REMARK    1  A    between atoms: C_2  and  C_20
REMARK    2  A    between atoms: N_3  and  C_4
REMARK    3  A    between atoms: C_4  and  C_5
REMARK    4  A    between atoms: C_8  and  C_9
REMARK    5  A    between atoms: C_9  and  N_10
REMARK    6  A    between atoms: N_10  and  C_11
REMARK    7  A    between atoms: C_11  and  C_12
REMARK                            x       y       z     vdW  Elec       q    Type
REMARK                         _______ _______ _______ _____ _____    ______ ____
ROOT
ATOM      1  C   UNL     1      47.903   4.053  16.352  0.00  0.00    +0.000 A 
ATOM      2  C   UNL     1      47.220   3.828  15.175  0.00  0.00    +0.000 A 
ATOM      3  N   UNL     1      47.125   4.730  14.179  0.00  0.00    +0.000 NA
ATOM      4  C   UNL     1      47.752   5.910  14.374  0.00  0.00    +0.000 A 
ATOM      5  N   UNL     1      48.445   6.229  15.486  0.00  0.00    +0.000 NA
ATOM      6  C   UNL     1      48.509   5.289  16.447  0.00  0.00    +0.000 A 
ENDROOT
BRANCH   1   7
ATOM      7  C   UNL     1      47.964   3.051  17.448  0.00  0.00    +0.000 C 
BRANCH   7  10
ATOM      8  O   UNL     1      49.745   1.591  16.039  0.00  0.00    +0.000 OA
ATOM      9  C   UNL     1      50.136   2.036  17.115  0.00  0.00    +0.000 C 
ATOM     10  N   UNL     1      49.305   2.793  17.913  0.00  0.00    +0.000 N 
ATOM     11  H   UNL     1      49.658   3.226  18.752  0.00  0.00    +0.000 HD
BRANCH   9  12
ATOM     12  C   UNL     1      51.487   1.792  17.617  0.00  0.00    +0.000 A 
ATOM     13  C   UNL     1      52.097   0.580  17.894  0.00  0.00    +0.000 A 
ATOM     14  N   UNL     1      53.386   0.823  18.295  0.00  0.00    +0.000 N 
ATOM     15  C   UNL     1      53.638   2.173  18.311  0.00  0.00    +0.000 A 
ATOM     16  C   UNL     1      54.803   2.874  18.647  0.00  0.00    +0.000 A 
ATOM     17  C   UNL     1      54.762   4.272  18.580  0.00  0.00    +0.000 A 
ATOM     18  C   UNL     1      53.604   4.938  18.194  0.00  0.00    +0.000 A 
ATOM     19  C   UNL     1      52.455   4.220  17.851  0.00  0.00    +0.000 A 
ATOM     20  C   UNL     1      52.463   2.808  17.907  0.00  0.00    +0.000 A 
ATOM     21  H   UNL     1      54.065   0.114  18.542  0.00  0.00    +0.000 HD
ENDBRANCH   9  12
ENDBRANCH   7  10
ENDBRANCH   1   7
BRANCH   4  22
ATOM     22  C   UNL     1      47.604   6.980  13.302  0.00  0.00    +0.000 C 
BRANCH  22  23
ATOM     23  N   UNL     1      46.251   7.564  13.172  0.00  0.00    +0.000 NA
ATOM     24  H   UNL     1      46.344   8.570  13.317  0.00  0.00    +0.000 HD
BRANCH  23  25
ATOM     25  C   UNL     1      45.698   7.342  11.834  0.00  0.00    +0.000 C 
BRANCH  25  26
ATOM     26  C   UNL     1      44.809   6.127  11.808  0.00  0.00    +0.000 A 
ATOM     27  C   UNL     1      44.749   5.279  10.698  0.00  0.00    +0.000 A 
ATOM     28  C   UNL     1      43.913   4.167  10.723  0.00  0.00    +0.000 A 
ATOM     29  C   UNL     1      43.155   3.939  11.859  0.00  0.00    +0.000 A 
ATOM     30  N   UNL     1      43.175   4.738  12.947  0.00  0.00    +0.000 NA
ATOM     31  C   UNL     1      43.999   5.811  12.895  0.00  0.00    +0.000 A 
ENDBRANCH  25  26
ENDBRANCH  23  25
ENDBRANCH  22  23
ENDBRANCH   4  22
TORSDOF 7
ENDMDL
MODEL 9
REMARK VINA RESULT:    -6.570      3.395      5.172
REMARK INTER + INTRA:          -9.950
REMARK INTER:                  -9.336
REMARK INTRA:                  -0.614
REMARK UNBOUND:                -0.692
REMARK  Name = 
REMARK  7 active torsions:
REMARK  status: ('A' for Active; 'I' for Inactive)
REMARK    1  A    between atoms: C_2  and  C_20
REMARK    2  A    between atoms: N_3  and  C_4
REMARK    3  A    between atoms: C_4  and  C_5
REMARK    4  A    between atoms: C_8  and  C_9
REMARK    5  A    between atoms: C_9  and  N_10
REMARK    6  A    between atoms: N_10  and  C_11
REMARK    7  A    between atoms: C_11  and  C_12
REMARK                            x       y       z     vdW  Elec       q    Type
REMARK                         _______ _______ _______ _____ _____    ______ ____
ROOT
ATOM      1  C   UNL     1      47.717   3.820  15.942  0.00  0.00    +0.000 A 
ATOM      2  C   UNL     1      47.006   3.359  14.853  0.00  0.00    +0.000 A 
ATOM      3  N   UNL     1      46.708   4.114  13.778  0.00  0.00    +0.000 NA
ATOM      4  C   UNL     1      47.151   5.390  13.797  0.00  0.00    +0.000 A 
ATOM      5  N   UNL     1      47.853   5.937  14.810  0.00  0.00    +0.000 NA
ATOM      6  C   UNL     1      48.124   5.135  15.857  0.00  0.00    +0.000 A 
ENDROOT
BRANCH   1   7
ATOM      7  C   UNL     1      48.004   2.974  17.130  0.00  0.00    +0.000 C 
BRANCH   7  10
ATOM      8  O   UNL     1      50.235   1.722  16.268  0.00  0.00    +0.000 OA
ATOM      9  C   UNL     1      50.382   2.524  17.188  0.00  0.00    +0.000 C 
ATOM     10  N   UNL     1      49.306   3.215  17.703  0.00  0.00    +0.000 N 
ATOM     11  H   UNL     1      49.445   3.932  18.397  0.00  0.00    +0.000 HD
BRANCH   9  12
ATOM     12  C   UNL     1      51.686   2.790  17.793  0.00  0.00    +0.000 A 
ATOM     13  C   UNL     1      52.187   3.992  18.264  0.00  0.00    +0.000 A 
ATOM     14  N   UNL     1      53.431   3.766  18.796  0.00  0.00    +0.000 N 
ATOM     15  C   UNL     1      53.775   2.442  18.667  0.00  0.00    +0.000 A 
ATOM     16  C   UNL     1      54.934   1.765  19.064  0.00  0.00    +0.000 A 
ATOM     17  C   UNL     1      55.013   0.394  18.787  0.00  0.00    +0.000 A 
ATOM     18  C   UNL     1      53.974  -0.267  18.140  0.00  0.00    +0.000 A 
ATOM     19  C   UNL     1      52.820   0.425  17.762  0.00  0.00    +0.000 A 
ATOM     20  C   UNL     1      52.709   1.808  18.029  0.00  0.00    +0.000 A 
ATOM     21  H   UNL     1      54.019   4.467  19.228  0.00  0.00    +0.000 HD
ENDBRANCH   9  12
ENDBRANCH   7  10
ENDBRANCH   1   7
BRANCH   4  22
ATOM     22  C   UNL     1      46.770   6.292  12.633  0.00  0.00    +0.000 C 
BRANCH  22  23
ATOM     23  N   UNL     1      45.391   6.121  12.124  0.00  0.00    +0.000 NA
ATOM     24  H   UNL     1      44.836   6.891  12.498  0.00  0.00    +0.000 HD
BRANCH  23  25
ATOM     25  C   UNL     1      45.347   6.190  10.661  0.00  0.00    +0.000 C 
BRANCH  25  26
ATOM     26  C   UNL     1      45.063   4.838  10.061  0.00  0.00    +0.000 A 
ATOM     27  C   UNL     1      45.559   4.467   8.809  0.00  0.00    +0.000 A 
ATOM     28  C   UNL     1      45.271   3.205   8.297  0.00  0.00    +0.000 A 
ATOM     29  C   UNL     1      44.487   2.352   9.055  0.00  0.00    +0.000 A 
ATOM     30  N   UNL     1      43.980   2.675  10.264  0.00  0.00    +0.000 NA
ATOM     31  C   UNL     1      44.278   3.907  10.736  0.00  0.00    +0.000 A 
ENDBRANCH  25  26
ENDBRANCH  23  25
ENDBRANCH  22  23
ENDBRANCH   4  22
TORSDOF 7
ENDMDL
