MODEL 1
REMARK VINA RESULT:    -8.536      0.000      0.000
REMARK INTER + INTRA:         -13.442
REMARK INTER:                 -12.029
REMARK INTRA:                  -1.413
REMARK UNBOUND:                -1.413
REMARK  Name = 
REMARK  7 active torsions:
REMARK  status: ('A' for Active; 'I' for Inactive)
REMARK    1  A    between atoms: C_2  and  C_20
REMARK    2  A    between atoms: N_3  and  C_4
REMARK    3  A    between atoms: C_4  and  C_5
REMARK    4  A    between atoms: C_8  and  C_9
REMARK    5  A    between atoms: C_9  and  N_10
REMARK    6  A    between atoms: N_10  and  C_11
REMARK    7  A    between atoms: C_11  and  C_12
REMARK                            x       y       z     vdW  Elec       q    Type
REMARK                         _______ _______ _______ _____ _____    ______ ____
ROOT
ATOM      1  C   UNL     1      45.926   6.866  12.334  0.00  0.00    +0.000 A 
ATOM      2  C   UNL     1      46.189   6.341  11.062  0.00  0.00    +0.000 A 
ATOM      3  C   UNL     1      45.427   5.283  10.556  0.00  0.00    +0.000 A 
ATOM      4  C   UNL     1      44.381   4.729  11.311  0.00  0.00    +0.000 A 
ATOM      5  C   UNL     1      44.112   5.269  12.576  0.00  0.00    +0.000 A 
ATOM      6  C   UNL     1      44.869   6.329  13.080  0.00  0.00    +0.000 A 
ENDROOT
BRANCH   1   7
ATOM      7  C   UNL     1      46.745   8.008  12.872  0.00  0.00    +0.000 C 
BRANCH   7  10
ATOM      8  O   UNL     1      49.041   6.502  13.184  0.00  0.00    +0.000 OA
ATOM      9  C   UNL     1      48.500   6.929  14.197  0.00  0.00    +0.000 C 
ATOM     10  N   UNL     1      47.344   7.678  14.141  0.00  0.00    +0.000 N 
ATOM     11  H   UNL     1      46.987   8.131  14.969  0.00  0.00    +0.000 HD
BRANCH   9  12
ATOM     12  C   UNL     1      48.980   6.625  15.550  0.00  0.00    +0.000 A 
ATOM     13  C   UNL     1      49.876   7.462  16.197  0.00  0.00    +0.000 A 
ATOM     14  S   UNL     1      50.184   7.021  17.799  0.00  0.00    +0.000 S 
ATOM     15  C   UNL     1      49.124   5.679  17.698  0.00  0.00    +0.000 A 
ATOM     16  C   UNL     1      48.842   4.794  18.757  0.00  0.00    +0.000 A 
ATOM     17  N   UNL     1      48.014   3.747  18.570  0.00  0.00    +0.000 NA
ATOM     18  C   UNL     1      47.487   3.558  17.348  0.00  0.00    +0.000 A 
ATOM     19  C   UNL     1      47.727   4.386  16.265  0.00  0.00    +0.000 A 
ATOM     20 CL   UNL     1      47.099   3.965  14.738  0.00  0.00    +0.000 Cl
ATOM     21  C   UNL     1      48.555   5.525  16.420  0.00  0.00    +0.000 A 
ENDBRANCH   9  12
ENDBRANCH   7  10
ENDBRANCH   1   7
BRANCH   4  22
ATOM     22  C   UNL     1      43.533   3.594  10.770  0.00  0.00    +0.000 C 
BRANCH  22  23
ATOM     23  N   UNL     1      43.891   3.278   9.399  0.00  0.00    +0.000 NA
ATOM     24  H   UNL     1      44.429   4.052   9.003  0.00  0.00    +0.000 HD
BRANCH  23  25
ATOM     25  C   UNL     1      44.683   2.057   9.271  0.00  0.00    +0.000 C 
BRANCH  25  26
ATOM     26  C   UNL     1      45.708   2.208   8.166  0.00  0.00    +0.000 A 
ATOM     27  C   UNL     1      45.780   3.378   7.397  0.00  0.00    +0.000 A 
ATOM     28  C   UNL     1      46.758   3.517   6.406  0.00  0.00    +0.000 A 
ATOM     29  C   UNL     1      47.664   2.485   6.165  0.00  0.00    +0.000 A 
ATOM     30  C   UNL     1      47.585   1.306   6.905  0.00  0.00    +0.000 A 
ATOM     31  C   UNL     1      46.615   1.169   7.899  0.00  0.00    +0.000 A 
ENDBRANCH  25  26
ENDBRANCH  23  25
ENDBRANCH  22  23
ENDBRANCH   4  22
TORSDOF 7
ENDMDL
MODEL 2
REMARK VINA RESULT:    -8.159      2.146      2.718
REMARK INTER + INTRA:         -12.911
REMARK INTER:                 -11.865
REMARK INTRA:                  -1.045
REMARK UNBOUND:                -1.413
REMARK  Name = 
REMARK  7 active torsions:
REMARK  status: ('A' for Active; 'I' for Inactive)
REMARK    1  A    between atoms: C_2  and  C_20
REMARK    2  A    between atoms: N_3  and  C_4
REMARK    3  A    between atoms: C_4  and  C_5
REMARK    4  A    between atoms: C_8  and  C_9
REMARK    5  A    between atoms: C_9  and  N_10
REMARK    6  A    between atoms: N_10  and  C_11
REMARK    7  A    between atoms: C_11  and  C_12
REMARK                            x       y       z     vdW  Elec       q    Type
REMARK                         _______ _______ _______ _____ _____    ______ ____
ROOT
ATOM      1  C   UNL     1      46.964   6.102  12.926  0.00  0.00    +0.000 A 
ATOM      2  C   UNL     1      46.770   6.598  11.630  0.00  0.00    +0.000 A 
ATOM      3  C   UNL     1      45.667   6.196  10.870  0.00  0.00    +0.000 A 
ATOM      4  C   UNL     1      44.731   5.290  11.392  0.00  0.00    +0.000 A 
ATOM      5  C   UNL     1      44.921   4.808  12.696  0.00  0.00    +0.000 A 
ATOM      6  C   UNL     1      46.019   5.215  13.457  0.00  0.00    +0.000 A 
ENDROOT
BRANCH   1   7
ATOM      7  C   UNL     1      48.149   6.543  13.743  0.00  0.00    +0.000 C 
BRANCH   7  10
ATOM      8  O   UNL     1      50.170   6.551  15.626  0.00  0.00    +0.000 OA
ATOM      9  C   UNL     1      49.037   6.288  16.011  0.00  0.00    +0.000 C 
ATOM     10  N   UNL     1      47.967   6.247  15.141  0.00  0.00    +0.000 N 
ATOM     11  H   UNL     1      47.026   6.160  15.492  0.00  0.00    +0.000 HD
BRANCH   9  12
ATOM     12  C   UNL     1      48.727   5.922  17.397  0.00  0.00    +0.000 A 
ATOM     13  C   UNL     1      48.857   4.615  17.840  0.00  0.00    +0.000 A 
ATOM     14  S   UNL     1      48.603   4.430  19.500  0.00  0.00    +0.000 S 
ATOM     15  C   UNL     1      48.305   6.104  19.704  0.00  0.00    +0.000 A 
ATOM     16  C   UNL     1      48.024   6.729  20.935  0.00  0.00    +0.000 A 
ATOM     17  N   UNL     1      47.774   8.053  20.988  0.00  0.00    +0.000 NA
ATOM     18  C   UNL     1      47.777   8.751  19.840  0.00  0.00    +0.000 A 
ATOM     19  C   UNL     1      48.040   8.198  18.598  0.00  0.00    +0.000 A 
ATOM     20 CL   UNL     1      47.888   9.167  17.205  0.00  0.00    +0.000 Cl
ATOM     21  C   UNL     1      48.352   6.821  18.493  0.00  0.00    +0.000 A 
ENDBRANCH   9  12
ENDBRANCH   7  10
ENDBRANCH   1   7
BRANCH   4  22
ATOM     22  C   UNL     1      43.520   4.856  10.589  0.00  0.00    +0.000 C 
BRANCH  22  23
ATOM     23  N   UNL     1      43.914   4.276   9.317  0.00  0.00    +0.000 NA
ATOM     24  H   UNL     1      44.649   4.848   8.899  0.00  0.00    +0.000 HD
BRANCH  23  25
ATOM     25  C   UNL     1      44.409   2.906   9.431  0.00  0.00    +0.000 C 
BRANCH  25  26
ATOM     26  C   UNL     1      45.485   2.647   8.397  0.00  0.00    +0.000 A 
ATOM     27  C   UNL     1      46.092   1.389   8.280  0.00  0.00    +0.000 A 
ATOM     28  C   UNL     1      47.056   1.155   7.294  0.00  0.00    +0.000 A 
ATOM     29  C   UNL     1      47.432   2.177   6.424  0.00  0.00    +0.000 A 
ATOM     30  C   UNL     1      46.855   3.440   6.548  0.00  0.00    +0.000 A 
ATOM     31  C   UNL     1      45.887   3.673   7.527  0.00  0.00    +0.000 A 
ENDBRANCH  25  26
ENDBRANCH  23  25
ENDBRANCH  22  23
ENDBRANCH   4  22
TORSDOF 7
ENDMDL
MODEL 3
REMARK VINA RESULT:    -8.013      1.589      1.811
REMARK INTER + INTRA:         -12.704
REMARK INTER:                 -11.627
REMARK INTRA:                  -1.077
REMARK UNBOUND:                -1.413
REMARK  Name = 
REMARK  7 active torsions:
REMARK  status: ('A' for Active; 'I' for Inactive)
REMARK    1  A    between atoms: C_2  and  C_20
REMARK    2  A    between atoms: N_3  and  C_4
REMARK    3  A    between atoms: C_4  and  C_5
REMARK    4  A    between atoms: C_8  and  C_9
REMARK    5  A    between atoms: C_9  and  N_10
REMARK    6  A    between atoms: N_10  and  C_11
REMARK    7  A    between atoms: C_11  and  C_12
REMARK                            x       y       z     vdW  Elec       q    Type
REMARK                         _______ _______ _______ _____ _____    ______ ____
ROOT
ATOM      1  C   UNL     1      47.093   6.026  12.684  0.00  0.00    +0.000 A 
ATOM      2  C   UNL     1      46.602   6.431  11.436  0.00  0.00    +0.000 A 
ATOM      3  C   UNL     1      45.468   5.825  10.885  0.00  0.00    +0.000 A 
ATOM      4  C   UNL     1      44.798   4.802  11.573  0.00  0.00    +0.000 A 
ATOM      5  C   UNL     1      45.284   4.412  12.829  0.00  0.00    +0.000 A 
ATOM      6  C   UNL     1      46.413   5.020  13.382  0.00  0.00    +0.000 A 
ENDROOT
BRANCH   1   7
ATOM      7  C   UNL     1      48.310   6.685  13.276  0.00  0.00    +0.000 C 
BRANCH   7  10
ATOM      8  O   UNL     1      50.264   6.832  15.224  0.00  0.00    +0.000 OA
ATOM      9  C   UNL     1      49.123   7.147  15.539  0.00  0.00    +0.000 C 
ATOM     10  N   UNL     1      48.080   7.093  14.639  0.00  0.00    +0.000 N 
ATOM     11  H   UNL     1      47.179   7.480  14.876  0.00  0.00    +0.000 HD
BRANCH   9  12
ATOM     12  C   UNL     1      48.748   7.533  16.904  0.00  0.00    +0.000 A 
ATOM     13  C   UNL     1      48.383   8.836  17.206  0.00  0.00    +0.000 A 
ATOM     14  S   UNL     1      47.839   9.041  18.792  0.00  0.00    +0.000 S 
ATOM     15  C   UNL     1      48.069   7.382  19.151  0.00  0.00    +0.000 A 
ATOM     16  C   UNL     1      47.776   6.777  20.389  0.00  0.00    +0.000 A 
ATOM     17  N   UNL     1      48.020   5.465  20.584  0.00  0.00    +0.000 NA
ATOM     18  C   UNL     1      48.570   4.761  19.579  0.00  0.00    +0.000 A 
ATOM     19  C   UNL     1      48.887   5.296  18.342  0.00  0.00    +0.000 A 
ATOM     20 CL   UNL     1      49.696   4.326  17.198  0.00  0.00    +0.000 Cl
ATOM     21  C   UNL     1      48.610   6.658  18.072  0.00  0.00    +0.000 A 
ENDBRANCH   9  12
ENDBRANCH   7  10
ENDBRANCH   1   7
BRANCH   4  22
ATOM     22  C   UNL     1      43.557   4.146  10.999  0.00  0.00    +0.000 C 
BRANCH  22  23
ATOM     23  N   UNL     1      43.790   3.679   9.644  0.00  0.00    +0.000 NA
ATOM     24  H   UNL     1      44.340   4.374   9.137  0.00  0.00    +0.000 HD
BRANCH  23  25
ATOM     25  C   UNL     1      44.497   2.402   9.583  0.00  0.00    +0.000 C 
BRANCH  25  26
ATOM     26  C   UNL     1      45.515   2.417   8.462  0.00  0.00    +0.000 A 
ATOM     27  C   UNL     1      45.739   3.572   7.699  0.00  0.00    +0.000 A 
ATOM     28  C   UNL     1      46.710   3.581   6.693  0.00  0.00    +0.000 A 
ATOM     29  C   UNL     1      47.459   2.435   6.430  0.00  0.00    +0.000 A 
ATOM     30  C   UNL     1      47.226   1.272   7.163  0.00  0.00    +0.000 A 
ATOM     31  C   UNL     1      46.262   1.263   8.173  0.00  0.00    +0.000 A 
ENDBRANCH  25  26
ENDBRANCH  23  25
ENDBRANCH  22  23
ENDBRANCH   4  22
TORSDOF 7
ENDMDL
MODEL 4
REMARK VINA RESULT:    -7.510      2.378      3.020
REMARK INTER + INTRA:         -11.995
REMARK INTER:                 -10.977
REMARK INTRA:                  -1.018
REMARK UNBOUND:                -1.413
REMARK  Name = 
REMARK  7 active torsions:
REMARK  status: ('A' for Active; 'I' for Inactive)
REMARK    1  A    between atoms: C_2  and  C_20
REMARK    2  A    between atoms: N_3  and  C_4
REMARK    3  A    between atoms: C_4  and  C_5
REMARK    4  A    between atoms: C_8  and  C_9
REMARK    5  A    between atoms: C_9  and  N_10
REMARK    6  A    between atoms: N_10  and  C_11
REMARK    7  A    between atoms: C_11  and  C_12
REMARK                            x       y       z     vdW  Elec       q    Type
REMARK                         _______ _______ _______ _____ _____    ______ ____
ROOT
ATOM      1  C   UNL     1      46.306   4.498  13.683  0.00  0.00    +0.000 A 
ATOM      2  C   UNL     1      45.785   5.737  13.287  0.00  0.00    +0.000 A 
ATOM      3  C   UNL     1      44.910   5.828  12.199  0.00  0.00    +0.000 A 
ATOM      4  C   UNL     1      44.534   4.679  11.485  0.00  0.00    +0.000 A 
ATOM      5  C   UNL     1      45.046   3.440  11.896  0.00  0.00    +0.000 A 
ATOM      6  C   UNL     1      45.915   3.349  12.986  0.00  0.00    +0.000 A 
ENDROOT
BRANCH   1   7
ATOM      7  C   UNL     1      47.242   4.405  14.858  0.00  0.00    +0.000 C 
BRANCH   7  10
ATOM      8  O   UNL     1      49.296   4.859  16.649  0.00  0.00    +0.000 OA
ATOM      9  C   UNL     1      48.723   5.836  16.182  0.00  0.00    +0.000 C 
ATOM     10  N   UNL     1      47.678   5.708  15.292  0.00  0.00    +0.000 N 
ATOM     11  H   UNL     1      47.307   6.518  14.819  0.00  0.00    +0.000 HD
BRANCH   9  12
ATOM     12  C   UNL     1      49.038   7.213  16.578  0.00  0.00    +0.000 A 
ATOM     13  C   UNL     1      49.864   8.012  15.802  0.00  0.00    +0.000 A 
ATOM     14  S   UNL     1      49.977   9.607  16.346  0.00  0.00    +0.000 S 
ATOM     15  C   UNL     1      48.917   9.301  17.656  0.00  0.00    +0.000 A 
ATOM     16  C   UNL     1      48.502  10.262  18.598  0.00  0.00    +0.000 A 
ATOM     17  N   UNL     1      47.686   9.915  19.614  0.00  0.00    +0.000 NA
ATOM     18  C   UNL     1      47.303   8.631  19.717  0.00  0.00    +0.000 A 
ATOM     19  C   UNL     1      47.679   7.637  18.830  0.00  0.00    +0.000 A 
ATOM     20 CL   UNL     1      47.228   6.025  19.143  0.00  0.00    +0.000 Cl
ATOM     21  C   UNL     1      48.499   7.958  17.720  0.00  0.00    +0.000 A 
ENDBRANCH   9  12
ENDBRANCH   7  10
ENDBRANCH   1   7
BRANCH   4  22
ATOM     22  C   UNL     1      43.573   4.757  10.315  0.00  0.00    +0.000 C 
BRANCH  22  23
ATOM     23  N   UNL     1      43.984   3.871   9.240  0.00  0.00    +0.000 NA
ATOM     24  H   UNL     1      43.190   3.703   8.618  0.00  0.00    +0.000 HD
BRANCH  23  25
ATOM     25  C   UNL     1      45.087   4.399   8.440  0.00  0.00    +0.000 C 
BRANCH  25  26
ATOM     26  C   UNL     1      45.874   3.266   7.815  0.00  0.00    +0.000 A 
ATOM     27  C   UNL     1      46.623   3.461   6.646  0.00  0.00    +0.000 A 
ATOM     28  C   UNL     1      47.376   2.415   6.103  0.00  0.00    +0.000 A 
ATOM     29  C   UNL     1      47.377   1.161   6.712  0.00  0.00    +0.000 A 
ATOM     30  C   UNL     1      46.613   0.947   7.859  0.00  0.00    +0.000 A 
ATOM     31  C   UNL     1      45.868   1.993   8.407  0.00  0.00    +0.000 A 
ENDBRANCH  25  26
ENDBRANCH  23  25
ENDBRANCH  22  23
ENDBRANCH   4  22
TORSDOF 7
ENDMDL
MODEL 5
REMARK VINA RESULT:    -7.486      2.124      2.565
REMARK INTER + INTRA:         -11.961
REMARK INTER:                 -10.991
REMARK INTRA:                  -0.971
REMARK UNBOUND:                -1.413
REMARK  Name = 
REMARK  7 active torsions:
REMARK  status: ('A' for Active; 'I' for Inactive)
REMARK    1  A    between atoms: C_2  and  C_20
REMARK    2  A    between atoms: N_3  and  C_4
REMARK    3  A    between atoms: C_4  and  C_5
REMARK    4  A    between atoms: C_8  and  C_9
REMARK    5  A    between atoms: C_9  and  N_10
REMARK    6  A    between atoms: N_10  and  C_11
REMARK    7  A    between atoms: C_11  and  C_12
REMARK                            x       y       z     vdW  Elec       q    Type
REMARK                         _______ _______ _______ _____ _____    ______ ____
ROOT
ATOM      1  C   UNL     1      46.600   6.297  12.950  0.00  0.00    +0.000 A 
ATOM      2  C   UNL     1      46.248   5.002  13.353  0.00  0.00    +0.000 A 
ATOM      3  C   UNL     1      45.214   4.312  12.711  0.00  0.00    +0.000 A 
ATOM      4  C   UNL     1      44.512   4.902  11.648  0.00  0.00    +0.000 A 
ATOM      5  C   UNL     1      44.880   6.192  11.239  0.00  0.00    +0.000 A 
ATOM      6  C   UNL     1      45.915   6.879  11.876  0.00  0.00    +0.000 A 
ENDROOT
BRANCH   1   7
ATOM      7  C   UNL     1      47.717   7.033  13.640  0.00  0.00    +0.000 C 
BRANCH   7  10
ATOM      8  O   UNL     1      48.749   8.234  15.904  0.00  0.00    +0.000 OA
ATOM      9  C   UNL     1      48.666   7.012  15.898  0.00  0.00    +0.000 C 
ATOM     10  N   UNL     1      48.176   6.324  14.808  0.00  0.00    +0.000 N 
ATOM     11  H   UNL     1      47.992   5.334  14.868  0.00  0.00    +0.000 HD
BRANCH   9  12
ATOM     12  C   UNL     1      49.142   6.172  17.002  0.00  0.00    +0.000 A 
ATOM     13  C   UNL     1      48.256   5.587  17.892  0.00  0.00    +0.000 A 
ATOM     14  S   UNL     1      48.989   4.535  18.992  0.00  0.00    +0.000 S 
ATOM     15  C   UNL     1      50.540   4.817  18.322  0.00  0.00    +0.000 A 
ATOM     16  C   UNL     1      51.730   4.203  18.760  0.00  0.00    +0.000 A 
ATOM     17  N   UNL     1      52.910   4.514  18.185  0.00  0.00    +0.000 NA
ATOM     18  C   UNL     1      52.922   5.435  17.207  0.00  0.00    +0.000 A 
ATOM     19  C   UNL     1      51.791   6.079  16.735  0.00  0.00    +0.000 A 
ATOM     20 CL   UNL     1      51.958   7.319  15.579  0.00  0.00    +0.000 Cl
ATOM     21  C   UNL     1      50.522   5.757  17.274  0.00  0.00    +0.000 A 
ENDBRANCH   9  12
ENDBRANCH   7  10
ENDBRANCH   1   7
BRANCH   4  22
ATOM     22  C   UNL     1      43.401   4.162  10.929  0.00  0.00    +0.000 C 
BRANCH  22  23
ATOM     23  N   UNL     1      43.814   3.763   9.595  0.00  0.00    +0.000 NA
ATOM     24  H   UNL     1      44.451   4.465   9.214  0.00  0.00    +0.000 HD
BRANCH  23  25
ATOM     25  C   UNL     1      44.487   2.466   9.558  0.00  0.00    +0.000 C 
BRANCH  25  26
ATOM     26  C   UNL     1      45.543   2.451   8.473  0.00  0.00    +0.000 A 
ATOM     27  C   UNL     1      45.858   3.611   7.751  0.00  0.00    +0.000 A 
ATOM     28  C   UNL     1      46.863   3.590   6.778  0.00  0.00    +0.000 A 
ATOM     29  C   UNL     1      47.553   2.410   6.507  0.00  0.00    +0.000 A 
ATOM     30  C   UNL     1      47.229   1.244   7.199  0.00  0.00    +0.000 A 
ATOM     31  C   UNL     1      46.232   1.264   8.176  0.00  0.00    +0.000 A 
ENDBRANCH  25  26
ENDBRANCH  23  25
ENDBRANCH  22  23
ENDBRANCH   4  22
TORSDOF 7
ENDMDL
MODEL 6
REMARK VINA RESULT:    -7.395      1.401      1.879
REMARK INTER + INTRA:         -11.834
REMARK INTER:                 -10.589
REMARK INTRA:                  -1.246
REMARK UNBOUND:                -1.413
REMARK  Name = 
REMARK  7 active torsions:
REMARK  status: ('A' for Active; 'I' for Inactive)
REMARK    1  A    between atoms: C_2  and  C_20
REMARK    2  A    between atoms: N_3  and  C_4
REMARK    3  A    between atoms: C_4  and  C_5
REMARK    4  A    between atoms: C_8  and  C_9
REMARK    5  A    between atoms: C_9  and  N_10
REMARK    6  A    between atoms: N_10  and  C_11
REMARK    7  A    between atoms: C_11  and  C_12
REMARK                            x       y       z     vdW  Elec       q    Type
REMARK                         _______ _______ _______ _____ _____    ______ ____
ROOT
ATOM      1  C   UNL     1      47.053   7.540  12.492  0.00  0.00    +0.000 A 
ATOM      2  C   UNL     1      45.906   8.273  12.162  0.00  0.00    +0.000 A 
ATOM      3  C   UNL     1      44.759   7.627  11.688  0.00  0.00    +0.000 A 
ATOM      4  C   UNL     1      44.734   6.231  11.538  0.00  0.00    +0.000 A 
ATOM      5  C   UNL     1      45.880   5.501  11.885  0.00  0.00    +0.000 A 
ATOM      6  C   UNL     1      47.023   6.145  12.363  0.00  0.00    +0.000 A 
ENDROOT
BRANCH   1   7
ATOM      7  C   UNL     1      48.283   8.238  13.007  0.00  0.00    +0.000 C 
BRANCH   7  10
ATOM      8  O   UNL     1      48.202   8.300  15.769  0.00  0.00    +0.000 OA
ATOM      9  C   UNL     1      48.940   7.477  15.240  0.00  0.00    +0.000 C 
ATOM     10  N   UNL     1      49.056   7.381  13.870  0.00  0.00    +0.000 N 
ATOM     11  H   UNL     1      49.563   6.616  13.452  0.00  0.00    +0.000 HD
BRANCH   9  12
ATOM     12  C   UNL     1      49.815   6.580  16.004  0.00  0.00    +0.000 A 
ATOM     13  C   UNL     1      51.115   6.942  16.318  0.00  0.00    +0.000 A 
ATOM     14  S   UNL     1      51.903   5.843  17.331  0.00  0.00    +0.000 S 
ATOM     15  C   UNL     1      50.528   4.824  17.397  0.00  0.00    +0.000 A 
ATOM     16  C   UNL     1      50.445   3.630  18.140  0.00  0.00    +0.000 A 
ATOM     17  N   UNL     1      49.325   2.880  18.105  0.00  0.00    +0.000 NA
ATOM     18  C   UNL     1      48.307   3.286  17.327  0.00  0.00    +0.000 A 
ATOM     19  C   UNL     1      48.326   4.444  16.568  0.00  0.00    +0.000 A 
ATOM     20 CL   UNL     1      47.021   4.781  15.528  0.00  0.00    +0.000 Cl
ATOM     21  C   UNL     1      49.461   5.291  16.605  0.00  0.00    +0.000 A 
ENDBRANCH   9  12
ENDBRANCH   7  10
ENDBRANCH   1   7
BRANCH   4  22
ATOM     22  C   UNL     1      43.494   5.513  11.043  0.00  0.00    +0.000 C 
BRANCH  22  23
ATOM     23  N   UNL     1      43.730   4.885   9.755  0.00  0.00    +0.000 NA
ATOM     24  H   UNL     1      44.529   5.333   9.302  0.00  0.00    +0.000 HD
BRANCH  23  25
ATOM     25  C   UNL     1      44.002   3.452   9.848  0.00  0.00    +0.000 C 
BRANCH  25  26
ATOM     26  C   UNL     1      45.108   3.063   8.889  0.00  0.00    +0.000 A 
ATOM     27  C   UNL     1      45.538   1.733   8.779  0.00  0.00    +0.000 A 
ATOM     28  C   UNL     1      46.534   1.383   7.861  0.00  0.00    +0.000 A 
ATOM     29  C   UNL     1      47.119   2.359   7.054  0.00  0.00    +0.000 A 
ATOM     30  C   UNL     1      46.719   3.688   7.175  0.00  0.00    +0.000 A 
ATOM     31  C   UNL     1      45.720   4.038   8.085  0.00  0.00    +0.000 A 
ENDBRANCH  25  26
ENDBRANCH  23  25
ENDBRANCH  22  23
ENDBRANCH   4  22
TORSDOF 7
ENDMDL
MODEL 7
REMARK VINA RESULT:    -7.310      3.248      5.033
REMARK INTER + INTRA:         -11.714
REMARK INTER:                 -10.549
REMARK INTRA:                  -1.165
REMARK UNBOUND:                -1.413
REMARK  Name = 
REMARK  7 active torsions:
REMARK  status: ('A' for Active; 'I' for Inactive)
REMARK    1  A    between atoms: C_2  and  C_20
REMARK    2  A    between atoms: N_3  and  C_4
REMARK    3  A    between atoms: C_4  and  C_5
REMARK    4  A    between atoms: C_8  and  C_9
REMARK    5  A    between atoms: C_9  and  N_10
REMARK    6  A    between atoms: N_10  and  C_11
REMARK    7  A    between atoms: C_11  and  C_12
REMARK                            x       y       z     vdW  Elec       q    Type
REMARK                         _______ _______ _______ _____ _____    ______ ____
ROOT
ATOM      1  C   UNL     1      46.888   5.786  13.104  0.00  0.00    +0.000 A 
ATOM      2  C   UNL     1      46.590   6.321  11.844  0.00  0.00    +0.000 A 
ATOM      3  C   UNL     1      45.492   5.854  11.113  0.00  0.00    +0.000 A 
ATOM      4  C   UNL     1      44.665   4.845  11.630  0.00  0.00    +0.000 A 
ATOM      5  C   UNL     1      44.959   4.324  12.899  0.00  0.00    +0.000 A 
ATOM      6  C   UNL     1      46.052   4.794  13.631  0.00  0.00    +0.000 A 
ENDROOT
BRANCH   1   7
ATOM      7  C   UNL     1      48.067   6.295  13.889  0.00  0.00    +0.000 C 
BRANCH   7  10
ATOM      8  O   UNL     1      49.934   8.077  14.877  0.00  0.00    +0.000 OA
ATOM      9  C   UNL     1      49.843   7.966  13.661  0.00  0.00    +0.000 C 
ATOM     10  N   UNL     1      48.932   7.113  13.075  0.00  0.00    +0.000 N 
ATOM     11  H   UNL     1      48.960   6.936  12.083  0.00  0.00    +0.000 HD
BRANCH   9  12
ATOM     12  C   UNL     1      50.630   8.775  12.723  0.00  0.00    +0.000 A 
ATOM     13  C   UNL     1      51.992   8.568  12.565  0.00  0.00    +0.000 A 
ATOM     14  S   UNL     1      52.682   9.491  11.330  0.00  0.00    +0.000 S 
ATOM     15  C   UNL     1      51.179  10.215  10.946  0.00  0.00    +0.000 A 
ATOM     16  C   UNL     1      50.976  11.151   9.912  0.00  0.00    +0.000 A 
ATOM     17  N   UNL     1      49.756  11.687   9.706  0.00  0.00    +0.000 NA
ATOM     18  C   UNL     1      48.752  11.326  10.524  0.00  0.00    +0.000 A 
ATOM     19  C   UNL     1      48.885  10.418  11.560  0.00  0.00    +0.000 A 
ATOM     20 CL   UNL     1      47.566  10.141  12.602  0.00  0.00    +0.000 Cl
ATOM     21  C   UNL     1      50.135   9.792  11.791  0.00  0.00    +0.000 A 
ENDBRANCH   9  12
ENDBRANCH   7  10
ENDBRANCH   1   7
BRANCH   4  22
ATOM     22  C   UNL     1      43.461   4.340  10.860  0.00  0.00    +0.000 C 
BRANCH  22  23
ATOM     23  N   UNL     1      43.841   3.871   9.539  0.00  0.00    +0.000 NA
ATOM     24  H   UNL     1      44.483   4.543   9.114  0.00  0.00    +0.000 HD
BRANCH  23  25
ATOM     25  C   UNL     1      44.490   2.562   9.552  0.00  0.00    +0.000 C 
BRANCH  25  26
ATOM     26  C   UNL     1      45.513   2.471   8.438  0.00  0.00    +0.000 A 
ATOM     27  C   UNL     1      46.229   1.288   8.205  0.00  0.00    +0.000 A 
ATOM     28  C   UNL     1      47.141   1.208   7.147  0.00  0.00    +0.000 A 
ATOM     29  C   UNL     1      47.357   2.310   6.321  0.00  0.00    +0.000 A 
ATOM     30  C   UNL     1      46.672   3.499   6.560  0.00  0.00    +0.000 A 
ATOM     31  C   UNL     1      45.755   3.579   7.610  0.00  0.00    +0.000 A 
ENDBRANCH  25  26
ENDBRANCH  23  25
ENDBRANCH  22  23
ENDBRANCH   4  22
TORSDOF 7
ENDMDL
MODEL 8
REMARK VINA RESULT:    -6.808      2.549      3.893
REMARK INTER + INTRA:         -11.007
REMARK INTER:                 -10.187
REMARK INTRA:                  -0.820
REMARK UNBOUND:                -1.413
REMARK  Name = 
REMARK  7 active torsions:
REMARK  status: ('A' for Active; 'I' for Inactive)
REMARK    1  A    between atoms: C_2  and  C_20
REMARK    2  A    between atoms: N_3  and  C_4
REMARK    3  A    between atoms: C_4  and  C_5
REMARK    4  A    between atoms: C_8  and  C_9
REMARK    5  A    between atoms: C_9  and  N_10
REMARK    6  A    between atoms: N_10  and  C_11
REMARK    7  A    between atoms: C_11  and  C_12
REMARK                            x       y       z     vdW  Elec       q    Type
REMARK                         _______ _______ _______ _____ _____    ______ ____
ROOT
ATOM      1  C   UNL     1      46.625   5.256  13.160  0.00  0.00    +0.000 A 
ATOM      2  C   UNL     1      46.192   6.376  12.438  0.00  0.00    +0.000 A 
ATOM      3  C   UNL     1      45.177   6.259  11.483  0.00  0.00    +0.000 A 
ATOM      4  C   UNL     1      44.569   5.018  11.232  0.00  0.00    +0.000 A 
ATOM      5  C   UNL     1      44.996   3.904  11.969  0.00  0.00    +0.000 A 
ATOM      6  C   UNL     1      46.006   4.022  12.926  0.00  0.00    +0.000 A 
ENDROOT
BRANCH   1   7
ATOM      7  C   UNL     1      47.714   5.388  14.191  0.00  0.00    +0.000 C 
BRANCH   7  10
ATOM      8  O   UNL     1      49.772   6.360  15.758  0.00  0.00    +0.000 OA
ATOM      9  C   UNL     1      48.850   7.123  15.493  0.00  0.00    +0.000 C 
ATOM     10  N   UNL     1      47.774   6.723  14.730  0.00  0.00    +0.000 N 
ATOM     11  H   UNL     1      47.094   7.396  14.412  0.00  0.00    +0.000 HD
BRANCH   9  12
ATOM     12  C   UNL     1      48.767   8.490  16.018  0.00  0.00    +0.000 A 
ATOM     13  C   UNL     1      48.357   8.735  17.319  0.00  0.00    +0.000 A 
ATOM     14  S   UNL     1      48.478  10.357  17.778  0.00  0.00    +0.000 S 
ATOM     15  C   UNL     1      49.091  10.809  16.245  0.00  0.00    +0.000 A 
ATOM     16  C   UNL     1      49.471  12.116  15.882  0.00  0.00    +0.000 A 
ATOM     17  N   UNL     1      49.917  12.378  14.637  0.00  0.00    +0.000 NA
ATOM     18  C   UNL     1      49.964  11.370  13.749  0.00  0.00    +0.000 A 
ATOM     19  C   UNL     1      49.600  10.066  14.039  0.00  0.00    +0.000 A 
ATOM     20 CL   UNL     1      49.586   8.908  12.790  0.00  0.00    +0.000 Cl
ATOM     21  C   UNL     1      49.168   9.729  15.345  0.00  0.00    +0.000 A 
ENDBRANCH   9  12
ENDBRANCH   7  10
ENDBRANCH   1   7
BRANCH   4  22
ATOM     22  C   UNL     1      43.455   4.877  10.213  0.00  0.00    +0.000 C 
BRANCH  22  23
ATOM     23  N   UNL     1      43.917   4.184   9.023  0.00  0.00    +0.000 NA
ATOM     24  H   UNL     1      43.302   4.412   8.240  0.00  0.00    +0.000 HD
BRANCH  23  25
ATOM     25  C   UNL     1      45.286   4.527   8.646  0.00  0.00    +0.000 C 
BRANCH  25  26
ATOM     26  C   UNL     1      45.958   3.348   7.973  0.00  0.00    +0.000 A 
ATOM     27  C   UNL     1      46.714   3.513   6.804  0.00  0.00    +0.000 A 
ATOM     28  C   UNL     1      47.360   2.420   6.217  0.00  0.00    +0.000 A 
ATOM     29  C   UNL     1      47.248   1.151   6.783  0.00  0.00    +0.000 A 
ATOM     30  C   UNL     1      46.477   0.970   7.930  0.00  0.00    +0.000 A 
ATOM     31  C   UNL     1      45.837   2.061   8.522  0.00  0.00    +0.000 A 
ENDBRANCH  25  26
ENDBRANCH  23  25
ENDBRANCH  22  23
ENDBRANCH   4  22
TORSDOF 7
ENDMDL
MODEL 9
REMARK VINA RESULT:    -6.295      4.108      9.699
REMARK INTER + INTRA:         -10.284
REMARK INTER:                  -8.295
REMARK INTRA:                  -1.989
REMARK UNBOUND:                -1.413
REMARK  Name = 
REMARK  7 active torsions:
REMARK  status: ('A' for Active; 'I' for Inactive)
REMARK    1  A    between atoms: C_2  and  C_20
REMARK    2  A    between atoms: N_3  and  C_4
REMARK    3  A    between atoms: C_4  and  C_5
REMARK    4  A    between atoms: C_8  and  C_9
REMARK    5  A    between atoms: C_9  and  N_10
REMARK    6  A    between atoms: N_10  and  C_11
REMARK    7  A    between atoms: C_11  and  C_12
REMARK                            x       y       z     vdW  Elec       q    Type
REMARK                         _______ _______ _______ _____ _____    ______ ____
ROOT
ATOM      1  C   UNL     1      48.606   4.327  17.059  0.00  0.00    +0.000 A 
ATOM      2  C   UNL     1      48.590   5.727  17.097  0.00  0.00    +0.000 A 
ATOM      3  C   UNL     1      49.712   6.441  17.532  0.00  0.00    +0.000 A 
ATOM      4  C   UNL     1      50.876   5.768  17.935  0.00  0.00    +0.000 A 
ATOM      5  C   UNL     1      50.891   4.367  17.880  0.00  0.00    +0.000 A 
ATOM      6  C   UNL     1      49.774   3.655  17.441  0.00  0.00    +0.000 A 
ENDROOT
BRANCH   1   7
ATOM      7  C   UNL     1      47.399   3.563  16.584  0.00  0.00    +0.000 C 
BRANCH   7  10
ATOM      8  O   UNL     1      47.703   3.458  13.840  0.00  0.00    +0.000 OA
ATOM      9  C   UNL     1      46.839   4.203  14.287  0.00  0.00    +0.000 C 
ATOM     10  N   UNL     1      46.623   4.332  15.643  0.00  0.00    +0.000 N 
ATOM     11  H   UNL     1      45.826   4.844  15.988  0.00  0.00    +0.000 HD
BRANCH   9  12
ATOM     12  C   UNL     1      46.016   5.073  13.440  0.00  0.00    +0.000 A 
ATOM     13  C   UNL     1      44.773   4.662  12.984  0.00  0.00    +0.000 A 
ATOM     14  S   UNL     1      43.920   5.863  12.157  0.00  0.00    +0.000 S 
ATOM     15  C   UNL     1      45.185   6.997  12.373  0.00  0.00    +0.000 A 
ATOM     16  C   UNL     1      45.155   8.333  11.925  0.00  0.00    +0.000 A 
ATOM     17  N   UNL     1      46.216   9.142  12.118  0.00  0.00    +0.000 NA
ATOM     18  C   UNL     1      47.304   8.636  12.723  0.00  0.00    +0.000 A 
ATOM     19  C   UNL     1      47.401   7.333  13.181  0.00  0.00    +0.000 A 
ATOM     20 CL   UNL     1      48.881   6.781  13.818  0.00  0.00    +0.000 Cl
ATOM     21  C   UNL     1      46.298   6.455  13.043  0.00  0.00    +0.000 A 
ENDBRANCH   9  12
ENDBRANCH   7  10
ENDBRANCH   1   7
BRANCH   4  22
ATOM     22  C   UNL     1      52.107   6.526  18.393  0.00  0.00    +0.000 C 
BRANCH  22  23
ATOM     23  N   UNL     1      51.807   7.376  19.532  0.00  0.00    +0.000 NA
ATOM     24  H   UNL     1      50.961   7.915  19.338  0.00  0.00    +0.000 HD
BRANCH  23  25
ATOM     25  C   UNL     1      51.601   6.633  20.773  0.00  0.00    +0.000 C 
BRANCH  25  26
ATOM     26  C   UNL     1      50.122   6.418  21.019  0.00  0.00    +0.000 A 
ATOM     27  C   UNL     1      49.610   5.144  21.305  0.00  0.00    +0.000 A 
ATOM     28  C   UNL     1      48.248   4.969  21.568  0.00  0.00    +0.000 A 
ATOM     29  C   UNL     1      47.381   6.061  21.535  0.00  0.00    +0.000 A 
ATOM     30  C   UNL     1      47.873   7.327  21.225  0.00  0.00    +0.000 A 
ATOM     31  C   UNL     1      49.234   7.506  20.970  0.00  0.00    +0.000 A 
ENDBRANCH  25  26
ENDBRANCH  23  25
ENDBRANCH  22  23
ENDBRANCH   4  22
TORSDOF 7
ENDMDL
