MODEL 1
REMARK VINA RESULT:    -8.163      0.000      0.000
REMARK INTER + INTRA:         -11.494
REMARK INTER:                 -10.548
REMARK INTRA:                  -0.946
REMARK UNBOUND:                -0.946
REMARK  Name = 
REMARK  5 active torsions:
REMARK  status: ('A' for Active; 'I' for Inactive)
REMARK    1  A    between atoms: C_2  and  C_18
REMARK    2  A    between atoms: N_3  and  C_4
REMARK    3  A    between atoms: C_4  and  C_5
REMARK    4  A    between atoms: C_8  and  C_9
REMARK    5  A    between atoms: C_9  and  C_10
REMARK                            x       y       z     vdW  Elec       q    Type
REMARK                         _______ _______ _______ _____ _____    ______ ____
ROOT
ATOM      1  O   UNL     1      49.149   6.702  13.256  0.00  0.00    +0.000 OA
ATOM      2  C   UNL     1      48.432   6.803  14.254  0.00  0.00    +0.000 C 
ATOM      3  N   UNL     1      47.213   7.412  14.245  0.00  0.00    +0.000 N 
ATOM      4  H   UNL     1      46.669   7.469  15.096  0.00  0.00    +0.000 HD
ENDROOT
BRANCH   2   5
ATOM      5  C   UNL     1      48.857   6.295  15.567  0.00  0.00    +0.000 A 
ATOM      6  C   UNL     1      49.886   6.908  16.264  0.00  0.00    +0.000 A 
ATOM      7  S   UNL     1      50.189   6.195  17.785  0.00  0.00    +0.000 S 
ATOM      8  C   UNL     1      48.983   5.018  17.542  0.00  0.00    +0.000 A 
ATOM      9  N   UNL     1      48.722   4.069  18.483  0.00  0.00    +0.000 NA
ATOM     10  C   UNL     1      47.804   3.228  18.158  0.00  0.00    +0.000 A 
ATOM     11  N   UNL     1      47.114   3.241  16.974  0.00  0.00    +0.000 N 
ATOM     12  C   UNL     1      47.314   4.203  16.009  0.00  0.00    +0.000 A 
ATOM     13  O   UNL     1      46.609   4.231  15.003  0.00  0.00    +0.000 OA
ATOM     14  C   UNL     1      48.347   5.169  16.327  0.00  0.00    +0.000 A 
ATOM     15  H   UNL     1      46.391   2.563  16.786  0.00  0.00    +0.000 HD
ENDBRANCH   2   5
BRANCH   3  16
ATOM     16  C   UNL     1      46.563   7.931  13.072  0.00  0.00    +0.000 C 
BRANCH  16  17
ATOM     17  C   UNL     1      45.863   6.816  12.346  0.00  0.00    +0.000 A 
ATOM     18  C   UNL     1      46.292   6.481  11.061  0.00  0.00    +0.000 A 
ATOM     19  C   UNL     1      45.653   5.472  10.350  0.00  0.00    +0.000 A 
ATOM     20  C   UNL     1      44.604   4.731  10.920  0.00  0.00    +0.000 A 
ATOM     21  C   UNL     1      44.137   5.101  12.186  0.00  0.00    +0.000 A 
ATOM     22  C   UNL     1      44.757   6.145  12.889  0.00  0.00    +0.000 A 
BRANCH  20  23
ATOM     23  C   UNL     1      44.101   3.477  10.209  0.00  0.00    +0.000 C 
BRANCH  23  24
ATOM     24  C   UNL     1      45.082   3.135   9.073  0.00  0.00    +0.000 C 
ATOM     25  C   UNL     1      45.207   1.628   8.827  0.00  0.00    +0.000 C 
ATOM     26  C   UNL     1      46.497   1.413   8.047  0.00  0.00    +0.000 C 
ATOM     27  C   UNL     1      46.545   2.278   6.781  0.00  0.00    +0.000 C 
ATOM     28  N   UNL     1      46.110   3.669   6.955  0.00  0.00    +0.000 NA
ATOM     29  C   UNL     1      44.859   3.809   7.718  0.00  0.00    +0.000 C 
ATOM     30  H   UNL     1      46.028   4.125   6.047  0.00  0.00    +0.000 HD
ENDBRANCH  23  24
ENDBRANCH  20  23
ENDBRANCH  16  17
ENDBRANCH   3  16
TORSDOF 5
ENDMDL
MODEL 2
REMARK VINA RESULT:    -7.582      1.745      2.313
REMARK INTER + INTRA:         -10.743
REMARK INTER:                  -9.960
REMARK INTRA:                  -0.783
REMARK UNBOUND:                -0.946
REMARK  Name = 
REMARK  5 active torsions:
REMARK  status: ('A' for Active; 'I' for Inactive)
REMARK    1  A    between atoms: C_2  and  C_18
REMARK    2  A    between atoms: N_3  and  C_4
REMARK    3  A    between atoms: C_4  and  C_5
REMARK    4  A    between atoms: C_8  and  C_9
REMARK    5  A    between atoms: C_9  and  C_10
REMARK                            x       y       z     vdW  Elec       q    Type
REMARK                         _______ _______ _______ _____ _____    ______ ____
ROOT
ATOM      1  O   UNL     1      48.884   6.150  14.253  0.00  0.00    +0.000 OA
ATOM      2  C   UNL     1      47.882   5.720  14.826  0.00  0.00    +0.000 C 
ATOM      3  N   UNL     1      46.615   5.889  14.353  0.00  0.00    +0.000 N 
ATOM      4  H   UNL     1      45.828   5.517  14.867  0.00  0.00    +0.000 HD
ENDROOT
BRANCH   2   5
ATOM      5  C   UNL     1      47.970   5.004  16.107  0.00  0.00    +0.000 A 
ATOM      6  C   UNL     1      47.677   3.651  16.183  0.00  0.00    +0.000 A 
ATOM      7  S   UNL     1      47.888   3.003  17.748  0.00  0.00    +0.000 S 
ATOM      8  C   UNL     1      48.338   4.518  18.381  0.00  0.00    +0.000 A 
ATOM      9  N   UNL     1      48.654   4.667  19.697  0.00  0.00    +0.000 NA
ATOM     10  C   UNL     1      48.951   5.870  20.046  0.00  0.00    +0.000 A 
ATOM     11  N   UNL     1      48.963   6.949  19.200  0.00  0.00    +0.000 N 
ATOM     12  C   UNL     1      48.690   6.841  17.855  0.00  0.00    +0.000 A 
ATOM     13  O   UNL     1      48.803   7.818  17.117  0.00  0.00    +0.000 OA
ATOM     14  C   UNL     1      48.341   5.504  17.416  0.00  0.00    +0.000 A 
ATOM     15  H   UNL     1      49.223   7.866  19.532  0.00  0.00    +0.000 HD
ENDBRANCH   2   5
BRANCH   3  16
ATOM     16  C   UNL     1      46.283   6.503  13.095  0.00  0.00    +0.000 C 
BRANCH  16  17
ATOM     17  C   UNL     1      45.808   5.454  12.129  0.00  0.00    +0.000 A 
ATOM     18  C   UNL     1      45.462   5.843  10.834  0.00  0.00    +0.000 A 
ATOM     19  C   UNL     1      44.996   4.904   9.922  0.00  0.00    +0.000 A 
ATOM     20  C   UNL     1      44.912   3.542  10.256  0.00  0.00    +0.000 A 
ATOM     21  C   UNL     1      45.206   3.158  11.569  0.00  0.00    +0.000 A 
ATOM     22  C   UNL     1      45.641   4.111  12.502  0.00  0.00    +0.000 A 
BRANCH  20  23
ATOM     23  C   UNL     1      44.638   2.518   9.158  0.00  0.00    +0.000 C 
BRANCH  23  24
ATOM     24  C   UNL     1      45.840   2.501   8.197  0.00  0.00    +0.000 C 
ATOM     25  C   UNL     1      46.291   1.083   7.831  0.00  0.00    +0.000 C 
ATOM     26  C   UNL     1      47.709   1.197   7.288  0.00  0.00    +0.000 C 
ATOM     27  C   UNL     1      47.798   2.216   6.144  0.00  0.00    +0.000 C 
ATOM     28  N   UNL     1      47.081   3.476   6.369  0.00  0.00    +0.000 NA
ATOM     29  C   UNL     1      45.718   3.298   6.896  0.00  0.00    +0.000 C 
ATOM     30  H   UNL     1      47.064   4.026   5.512  0.00  0.00    +0.000 HD
ENDBRANCH  23  24
ENDBRANCH  20  23
ENDBRANCH  16  17
ENDBRANCH   3  16
TORSDOF 5
ENDMDL
MODEL 3
REMARK VINA RESULT:    -7.450      2.461      4.228
REMARK INTER + INTRA:         -10.574
REMARK INTER:                  -9.937
REMARK INTRA:                  -0.636
REMARK UNBOUND:                -0.946
REMARK  Name = 
REMARK  5 active torsions:
REMARK  status: ('A' for Active; 'I' for Inactive)
REMARK    1  A    between atoms: C_2  and  C_18
REMARK    2  A    between atoms: N_3  and  C_4
REMARK    3  A    between atoms: C_4  and  C_5
REMARK    4  A    between atoms: C_8  and  C_9
REMARK    5  A    between atoms: C_9  and  C_10
REMARK                            x       y       z     vdW  Elec       q    Type
REMARK                         _______ _______ _______ _____ _____    ______ ____
ROOT
ATOM      1  O   UNL     1      48.864   5.756  15.277  0.00  0.00    +0.000 OA
ATOM      2  C   UNL     1      48.174   6.594  14.694  0.00  0.00    +0.000 C 
ATOM      3  N   UNL     1      47.038   6.285  14.007  0.00  0.00    +0.000 N 
ATOM      4  H   UNL     1      46.512   7.014  13.543  0.00  0.00    +0.000 HD
ENDROOT
BRANCH   2   5
ATOM      5  C   UNL     1      48.544   8.016  14.663  0.00  0.00    +0.000 A 
ATOM      6  C   UNL     1      48.521   8.779  15.820  0.00  0.00    +0.000 A 
ATOM      7  S   UNL     1      49.033  10.389  15.577  0.00  0.00    +0.000 S 
ATOM      8  C   UNL     1      49.261  10.129  13.910  0.00  0.00    +0.000 A 
ATOM      9  N   UNL     1      49.695  11.128  13.093  0.00  0.00    +0.000 NA
ATOM     10  C   UNL     1      49.800  10.801  11.852  0.00  0.00    +0.000 A 
ATOM     11  N   UNL     1      49.510   9.561  11.343  0.00  0.00    +0.000 N 
ATOM     12  C   UNL     1      49.106   8.510  12.134  0.00  0.00    +0.000 A 
ATOM     13  O   UNL     1      48.947   7.392  11.649  0.00  0.00    +0.000 OA
ATOM     14  C   UNL     1      48.966   8.833  13.541  0.00  0.00    +0.000 A 
ATOM     15  H   UNL     1      49.630   9.363  10.362  0.00  0.00    +0.000 HD
ENDBRANCH   2   5
BRANCH   3  16
ATOM     16  C   UNL     1      46.446   4.975  13.945  0.00  0.00    +0.000 C 
BRANCH  16  17
ATOM     17  C   UNL     1      45.841   4.757  12.587  0.00  0.00    +0.000 A 
ATOM     18  C   UNL     1      46.126   5.670  11.571  0.00  0.00    +0.000 A 
ATOM     19  C   UNL     1      45.565   5.513  10.310  0.00  0.00    +0.000 A 
ATOM     20  C   UNL     1      44.747   4.411  10.007  0.00  0.00    +0.000 A 
ATOM     21  C   UNL     1      44.416   3.525  11.038  0.00  0.00    +0.000 A 
ATOM     22  C   UNL     1      44.952   3.703  12.322  0.00  0.00    +0.000 A 
BRANCH  20  23
ATOM     23  C   UNL     1      44.359   4.142   8.556  0.00  0.00    +0.000 C 
BRANCH  23  24
ATOM     24  C   UNL     1      45.343   3.113   7.972  0.00  0.00    +0.000 C 
ATOM     25  C   UNL     1      46.589   3.760   7.358  0.00  0.00    +0.000 C 
ATOM     26  C   UNL     1      47.218   2.723   6.438  0.00  0.00    +0.000 C 
ATOM     27  C   UNL     1      47.475   1.399   7.169  0.00  0.00    +0.000 C 
ATOM     28  N   UNL     1      46.380   0.933   8.027  0.00  0.00    +0.000 NA
ATOM     29  C   UNL     1      45.814   1.982   8.890  0.00  0.00    +0.000 C 
ATOM     30  H   UNL     1      46.688   0.138   8.586  0.00  0.00    +0.000 HD
ENDBRANCH  23  24
ENDBRANCH  20  23
ENDBRANCH  16  17
ENDBRANCH   3  16
TORSDOF 5
ENDMDL
MODEL 4
REMARK VINA RESULT:    -7.410      3.953      8.920
REMARK INTER + INTRA:         -10.521
REMARK INTER:                  -9.559
REMARK INTRA:                  -0.962
REMARK UNBOUND:                -0.946
REMARK  Name = 
REMARK  5 active torsions:
REMARK  status: ('A' for Active; 'I' for Inactive)
REMARK    1  A    between atoms: C_2  and  C_18
REMARK    2  A    between atoms: N_3  and  C_4
REMARK    3  A    between atoms: C_4  and  C_5
REMARK    4  A    between atoms: C_8  and  C_9
REMARK    5  A    between atoms: C_9  and  C_10
REMARK                            x       y       z     vdW  Elec       q    Type
REMARK                         _______ _______ _______ _____ _____    ______ ____
ROOT
ATOM      1  O   UNL     1      47.337   3.079  14.046  0.00  0.00    +0.000 OA
ATOM      2  C   UNL     1      46.949   4.142  14.535  0.00  0.00    +0.000 C 
ATOM      3  N   UNL     1      46.869   4.367  15.877  0.00  0.00    +0.000 N 
ATOM      4  H   UNL     1      46.540   5.259  16.222  0.00  0.00    +0.000 HD
ENDROOT
BRANCH   2   5
ATOM      5  C   UNL     1      46.503   5.264  13.695  0.00  0.00    +0.000 A 
ATOM      6  C   UNL     1      47.309   6.376  13.514  0.00  0.00    +0.000 A 
ATOM      7  S   UNL     1      46.628   7.539  12.465  0.00  0.00    +0.000 S 
ATOM      8  C   UNL     1      45.217   6.610  12.254  0.00  0.00    +0.000 A 
ATOM      9  N   UNL     1      44.199   7.044  11.460  0.00  0.00    +0.000 NA
ATOM     10  C   UNL     1      43.183   6.255  11.410  0.00  0.00    +0.000 A 
ATOM     11  N   UNL     1      43.083   5.065  12.083  0.00  0.00    +0.000 N 
ATOM     12  C   UNL     1      44.099   4.567  12.866  0.00  0.00    +0.000 A 
ATOM     13  O   UNL     1      44.003   3.453  13.376  0.00  0.00    +0.000 OA
ATOM     14  C   UNL     1      45.264   5.425  12.960  0.00  0.00    +0.000 A 
ATOM     15  H   UNL     1      42.264   4.483  11.988  0.00  0.00    +0.000 HD
ENDBRANCH   2   5
BRANCH   3  16
ATOM     16  C   UNL     1      47.303   3.445  16.891  0.00  0.00    +0.000 C 
BRANCH  16  17
ATOM     17  C   UNL     1      48.766   3.652  17.171  0.00  0.00    +0.000 A 
ATOM     18  C   UNL     1      49.604   2.537  17.216  0.00  0.00    +0.000 A 
ATOM     19  C   UNL     1      50.956   2.688  17.495  0.00  0.00    +0.000 A 
ATOM     20  C   UNL     1      51.524   3.959  17.686  0.00  0.00    +0.000 A 
ATOM     21  C   UNL     1      50.677   5.073  17.696  0.00  0.00    +0.000 A 
ATOM     22  C   UNL     1      49.304   4.918  17.451  0.00  0.00    +0.000 A 
BRANCH  20  23
ATOM     23  C   UNL     1      53.043   4.100  17.739  0.00  0.00    +0.000 C 
BRANCH  23  24
ATOM     24  C   UNL     1      53.641   2.758  18.198  0.00  0.00    +0.000 C 
ATOM     25  C   UNL     1      54.558   2.123  17.147  0.00  0.00    +0.000 C 
ATOM     26  C   UNL     1      54.694   0.651  17.511  0.00  0.00    +0.000 C 
ATOM     27  C   UNL     1      55.155   0.466  18.962  0.00  0.00    +0.000 C 
ATOM     28  N   UNL     1      54.485   1.323  19.947  0.00  0.00    +0.000 NA
ATOM     29  C   UNL     1      54.383   2.733  19.536  0.00  0.00    +0.000 C 
ATOM     30  H   UNL     1      54.950   1.247  20.850  0.00  0.00    +0.000 HD
ENDBRANCH  23  24
ENDBRANCH  20  23
ENDBRANCH  16  17
ENDBRANCH   3  16
TORSDOF 5
ENDMDL
MODEL 5
REMARK VINA RESULT:    -7.233      1.755      2.036
REMARK INTER + INTRA:         -10.292
REMARK INTER:                  -9.601
REMARK INTRA:                  -0.691
REMARK UNBOUND:                -0.946
REMARK  Name = 
REMARK  5 active torsions:
REMARK  status: ('A' for Active; 'I' for Inactive)
REMARK    1  A    between atoms: C_2  and  C_18
REMARK    2  A    between atoms: N_3  and  C_4
REMARK    3  A    between atoms: C_4  and  C_5
REMARK    4  A    between atoms: C_8  and  C_9
REMARK    5  A    between atoms: C_9  and  C_10
REMARK                            x       y       z     vdW  Elec       q    Type
REMARK                         _______ _______ _______ _____ _____    ______ ____
ROOT
ATOM      1  O   UNL     1      50.438   6.802  15.520  0.00  0.00    +0.000 OA
ATOM      2  C   UNL     1      49.263   6.972  15.852  0.00  0.00    +0.000 C 
ATOM      3  N   UNL     1      48.258   7.210  14.963  0.00  0.00    +0.000 N 
ATOM      4  H   UNL     1      47.312   7.346  15.292  0.00  0.00    +0.000 HD
ENDROOT
BRANCH   2   5
ATOM      5  C   UNL     1      48.847   6.963  17.263  0.00  0.00    +0.000 A 
ATOM      6  C   UNL     1      48.334   8.106  17.856  0.00  0.00    +0.000 A 
ATOM      7  S   UNL     1      47.868   7.870  19.481  0.00  0.00    +0.000 S 
ATOM      8  C   UNL     1      48.376   6.245  19.455  0.00  0.00    +0.000 A 
ATOM      9  N   UNL     1      48.259   5.452  20.555  0.00  0.00    +0.000 NA
ATOM     10  C   UNL     1      48.705   4.254  20.404  0.00  0.00    +0.000 A 
ATOM     11  N   UNL     1      49.261   3.767  19.249  0.00  0.00    +0.000 N 
ATOM     12  C   UNL     1      49.364   4.517  18.100  0.00  0.00    +0.000 A 
ATOM     13  O   UNL     1      49.785   4.011  17.062  0.00  0.00    +0.000 OA
ATOM     14  C   UNL     1      48.882   5.879  18.225  0.00  0.00    +0.000 A 
ATOM     15  H   UNL     1      49.576   2.810  19.189  0.00  0.00    +0.000 HD
ENDBRANCH   2   5
BRANCH   3  16
ATOM     16  C   UNL     1      48.409   7.206  13.533  0.00  0.00    +0.000 C 
BRANCH  16  17
ATOM     17  C   UNL     1      47.365   6.319  12.915  0.00  0.00    +0.000 A 
ATOM     18  C   UNL     1      46.766   6.720  11.720  0.00  0.00    +0.000 A 
ATOM     19  C   UNL     1      45.781   5.936  11.133  0.00  0.00    +0.000 A 
ATOM     20  C   UNL     1      45.400   4.704  11.691  0.00  0.00    +0.000 A 
ATOM     21  C   UNL     1      45.959   4.326  12.917  0.00  0.00    +0.000 A 
ATOM     22  C   UNL     1      46.928   5.135  13.530  0.00  0.00    +0.000 A 
BRANCH  20  23
ATOM     23  C   UNL     1      44.504   3.764  10.889  0.00  0.00    +0.000 C 
BRANCH  23  24
ATOM     24  C   UNL     1      45.228   3.398   9.581  0.00  0.00    +0.000 C 
ATOM     25  C   UNL     1      45.031   1.933   9.180  0.00  0.00    +0.000 C 
ATOM     26  C   UNL     1      46.131   1.596   8.183  0.00  0.00    +0.000 C 
ATOM     27  C   UNL     1      46.157   2.586   7.011  0.00  0.00    +0.000 C 
ATOM     28  N   UNL     1      46.020   4.000   7.381  0.00  0.00    +0.000 NA
ATOM     29  C   UNL     1      44.942   4.259   8.348  0.00  0.00    +0.000 C 
ATOM     30  H   UNL     1      45.895   4.568   6.545  0.00  0.00    +0.000 HD
ENDBRANCH  23  24
ENDBRANCH  20  23
ENDBRANCH  16  17
ENDBRANCH   3  16
TORSDOF 5
ENDMDL
MODEL 6
REMARK VINA RESULT:    -7.085      1.633      2.621
REMARK INTER + INTRA:         -10.102
REMARK INTER:                 -10.254
REMARK INTRA:                   0.152
REMARK UNBOUND:                -0.946
REMARK  Name = 
REMARK  5 active torsions:
REMARK  status: ('A' for Active; 'I' for Inactive)
REMARK    1  A    between atoms: C_2  and  C_18
REMARK    2  A    between atoms: N_3  and  C_4
REMARK    3  A    between atoms: C_4  and  C_5
REMARK    4  A    between atoms: C_8  and  C_9
REMARK    5  A    between atoms: C_9  and  C_10
REMARK                            x       y       z     vdW  Elec       q    Type
REMARK                         _______ _______ _______ _____ _____    ______ ____
ROOT
ATOM      1  O   UNL     1      48.506   6.131  13.325  0.00  0.00    +0.000 OA
ATOM      2  C   UNL     1      47.573   5.815  14.066  0.00  0.00    +0.000 C 
ATOM      3  N   UNL     1      46.269   6.107  13.798  0.00  0.00    +0.000 N 
ATOM      4  H   UNL     1      45.544   5.827  14.445  0.00  0.00    +0.000 HD
ENDROOT
BRANCH   2   5
ATOM      5  C   UNL     1      47.799   5.114  15.338  0.00  0.00    +0.000 A 
ATOM      6  C   UNL     1      47.354   3.813  15.517  0.00  0.00    +0.000 A 
ATOM      7  S   UNL     1      47.760   3.167  17.044  0.00  0.00    +0.000 S 
ATOM      8  C   UNL     1      48.505   4.618  17.529  0.00  0.00    +0.000 A 
ATOM      9  N   UNL     1      49.069   4.745  18.762  0.00  0.00    +0.000 NA
ATOM     10  C   UNL     1      49.575   5.903  19.005  0.00  0.00    +0.000 A 
ATOM     11  N   UNL     1      49.572   6.958  18.130  0.00  0.00    +0.000 N 
ATOM     12  C   UNL     1      49.050   6.867  16.859  0.00  0.00    +0.000 A 
ATOM     13  O   UNL     1      49.151   7.808  16.076  0.00  0.00    +0.000 OA
ATOM     14  C   UNL     1      48.460   5.581  16.541  0.00  0.00    +0.000 A 
ATOM     15  H   UNL     1      50.002   7.837  18.374  0.00  0.00    +0.000 HD
ENDBRANCH   2   5
BRANCH   3  16
ATOM     16  C   UNL     1      45.798   6.733  12.592  0.00  0.00    +0.000 C 
BRANCH  16  17
ATOM     17  C   UNL     1      45.513   5.683  11.555  0.00  0.00    +0.000 A 
ATOM     18  C   UNL     1      45.039   4.439  11.974  0.00  0.00    +0.000 A 
ATOM     19  C   UNL     1      44.786   3.437  11.045  0.00  0.00    +0.000 A 
ATOM     20  C   UNL     1      44.948   3.661   9.667  0.00  0.00    +0.000 A 
ATOM     21  C   UNL     1      45.475   4.888   9.249  0.00  0.00    +0.000 A 
ATOM     22  C   UNL     1      45.765   5.888  10.189  0.00  0.00    +0.000 A 
BRANCH  20  23
ATOM     23  C   UNL     1      44.424   2.628   8.674  0.00  0.00    +0.000 C 
BRANCH  23  24
ATOM     24  C   UNL     1      45.536   2.328   7.652  0.00  0.00    +0.000 C 
ATOM     25  C   UNL     1      46.240   3.593   7.149  0.00  0.00    +0.000 C 
ATOM     26  C   UNL     1      46.951   3.217   5.856  0.00  0.00    +0.000 C 
ATOM     27  C   UNL     1      47.869   2.003   6.045  0.00  0.00    +0.000 C 
ATOM     28  N   UNL     1      47.293   0.897   6.820  0.00  0.00    +0.000 NA
ATOM     29  C   UNL     1      46.619   1.325   8.056  0.00  0.00    +0.000 C 
ATOM     30  H   UNL     1      48.012   0.205   7.027  0.00  0.00    +0.000 HD
ENDBRANCH  23  24
ENDBRANCH  20  23
ENDBRANCH  16  17
ENDBRANCH   3  16
TORSDOF 5
ENDMDL
MODEL 7
REMARK VINA RESULT:    -7.035      2.564      4.595
REMARK INTER + INTRA:         -10.037
REMARK INTER:                  -8.977
REMARK INTRA:                  -1.061
REMARK UNBOUND:                -0.946
REMARK  Name = 
REMARK  5 active torsions:
REMARK  status: ('A' for Active; 'I' for Inactive)
REMARK    1  A    between atoms: C_2  and  C_18
REMARK    2  A    between atoms: N_3  and  C_4
REMARK    3  A    between atoms: C_4  and  C_5
REMARK    4  A    between atoms: C_8  and  C_9
REMARK    5  A    between atoms: C_9  and  C_10
REMARK                            x       y       z     vdW  Elec       q    Type
REMARK                         _______ _______ _______ _____ _____    ______ ____
ROOT
ATOM      1  O   UNL     1      49.093   6.210  12.828  0.00  0.00    +0.000 OA
ATOM      2  C   UNL     1      48.516   7.088  13.473  0.00  0.00    +0.000 C 
ATOM      3  N   UNL     1      47.578   6.827  14.426  0.00  0.00    +0.000 N 
ATOM      4  H   UNL     1      47.134   7.588  14.922  0.00  0.00    +0.000 HD
ENDROOT
BRANCH   2   5
ATOM      5  C   UNL     1      48.775   8.517  13.240  0.00  0.00    +0.000 A 
ATOM      6  C   UNL     1      50.035   9.052  13.456  0.00  0.00    +0.000 A 
ATOM      7  S   UNL     1      50.134  10.714  13.078  0.00  0.00    +0.000 S 
ATOM      8  C   UNL     1      48.487  10.779  12.655  0.00  0.00    +0.000 A 
ATOM      9  N   UNL     1      47.911  11.940  12.236  0.00  0.00    +0.000 NA
ATOM     10  C   UNL     1      46.655  11.852  11.972  0.00  0.00    +0.000 A 
ATOM     11  N   UNL     1      45.909  10.707  12.087  0.00  0.00    +0.000 N 
ATOM     12  C   UNL     1      46.454   9.502  12.468  0.00  0.00    +0.000 A 
ATOM     13  O   UNL     1      45.769   8.482  12.469  0.00  0.00    +0.000 OA
ATOM     14  C   UNL     1      47.868   9.553  12.784  0.00  0.00    +0.000 A 
ATOM     15  H   UNL     1      44.929  10.700  11.847  0.00  0.00    +0.000 HD
ENDBRANCH   2   5
BRANCH   3  16
ATOM     16  C   UNL     1      47.202   5.511  14.869  0.00  0.00    +0.000 C 
BRANCH  16  17
ATOM     17  C   UNL     1      46.366   4.841  13.816  0.00  0.00    +0.000 A 
ATOM     18  C   UNL     1      45.252   5.516  13.315  0.00  0.00    +0.000 A 
ATOM     19  C   UNL     1      44.442   4.918  12.358  0.00  0.00    +0.000 A 
ATOM     20  C   UNL     1      44.748   3.651  11.831  0.00  0.00    +0.000 A 
ATOM     21  C   UNL     1      45.832   2.950  12.371  0.00  0.00    +0.000 A 
ATOM     22  C   UNL     1      46.629   3.538  13.365  0.00  0.00    +0.000 A 
BRANCH  20  23
ATOM     23  C   UNL     1      43.985   3.142  10.612  0.00  0.00    +0.000 C 
BRANCH  23  24
ATOM     24  C   UNL     1      44.956   3.081   9.420  0.00  0.00    +0.000 C 
ATOM     25  C   UNL     1      45.092   1.672   8.833  0.00  0.00    +0.000 C 
ATOM     26  C   UNL     1      46.375   1.657   8.014  0.00  0.00    +0.000 C 
ATOM     27  C   UNL     1      46.401   2.790   6.979  0.00  0.00    +0.000 C 
ATOM     28  N   UNL     1      45.955   4.099   7.471  0.00  0.00    +0.000 NA
ATOM     29  C   UNL     1      44.711   4.045   8.257  0.00  0.00    +0.000 C 
ATOM     30  H   UNL     1      45.858   4.749   6.693  0.00  0.00    +0.000 HD
ENDBRANCH  23  24
ENDBRANCH  20  23
ENDBRANCH  16  17
ENDBRANCH   3  16
TORSDOF 5
ENDMDL
MODEL 8
REMARK VINA RESULT:    -6.935      4.482      7.428
REMARK INTER + INTRA:          -9.908
REMARK INTER:                  -8.883
REMARK INTRA:                  -1.025
REMARK UNBOUND:                -0.946
REMARK  Name = 
REMARK  5 active torsions:
REMARK  status: ('A' for Active; 'I' for Inactive)
REMARK    1  A    between atoms: C_2  and  C_18
REMARK    2  A    between atoms: N_3  and  C_4
REMARK    3  A    between atoms: C_4  and  C_5
REMARK    4  A    between atoms: C_8  and  C_9
REMARK    5  A    between atoms: C_9  and  C_10
REMARK                            x       y       z     vdW  Elec       q    Type
REMARK                         _______ _______ _______ _____ _____    ______ ____
ROOT
ATOM      1  O   UNL     1      44.453   7.598  11.056  0.00  0.00    +0.000 OA
ATOM      2  C   UNL     1      44.980   6.692  11.704  0.00  0.00    +0.000 C 
ATOM      3  N   UNL     1      45.978   6.897  12.609  0.00  0.00    +0.000 N 
ATOM      4  H   UNL     1      46.376   6.115  13.110  0.00  0.00    +0.000 HD
ENDROOT
BRANCH   2   5
ATOM      5  C   UNL     1      44.589   5.285  11.527  0.00  0.00    +0.000 A 
ATOM      6  C   UNL     1      43.876   4.619  12.511  0.00  0.00    +0.000 A 
ATOM      7  S   UNL     1      43.481   3.013  12.087  0.00  0.00    +0.000 S 
ATOM      8  C   UNL     1      44.286   3.145  10.593  0.00  0.00    +0.000 A 
ATOM      9  N   UNL     1      44.334   2.099   9.723  0.00  0.00    +0.000 NA
ATOM     10  C   UNL     1      44.997   2.328   8.643  0.00  0.00    +0.000 A 
ATOM     11  N   UNL     1      45.622   3.511   8.345  0.00  0.00    +0.000 N 
ATOM     12  C   UNL     1      45.568   4.609   9.174  0.00  0.00    +0.000 A 
ATOM     13  O   UNL     1      46.065   5.677   8.824  0.00  0.00    +0.000 OA
ATOM     14  C   UNL     1      44.839   4.396  10.409  0.00  0.00    +0.000 A 
ATOM     15  H   UNL     1      46.111   3.634   7.471  0.00  0.00    +0.000 HD
ENDBRANCH   2   5
BRANCH   3  16
ATOM     16  C   UNL     1      46.484   8.187  12.994  0.00  0.00    +0.000 C 
BRANCH  16  17
ATOM     17  C   UNL     1      47.852   8.391  12.405  0.00  0.00    +0.000 A 
ATOM     18  C   UNL     1      48.231   9.679  12.021  0.00  0.00    +0.000 A 
ATOM     19  C   UNL     1      49.478   9.901  11.451  0.00  0.00    +0.000 A 
ATOM     20  C   UNL     1      50.406   8.857  11.296  0.00  0.00    +0.000 A 
ATOM     21  C   UNL     1      50.008   7.557  11.629  0.00  0.00    +0.000 A 
ATOM     22  C   UNL     1      48.735   7.326  12.170  0.00  0.00    +0.000 A 
BRANCH  20  23
ATOM     23  C   UNL     1      51.843   9.185  10.903  0.00  0.00    +0.000 C 
BRANCH  23  24
ATOM     24  C   UNL     1      52.545   7.879  10.490  0.00  0.00    +0.000 C 
ATOM     25  C   UNL     1      52.793   7.786   8.981  0.00  0.00    +0.000 C 
ATOM     26  C   UNL     1      53.044   6.318   8.664  0.00  0.00    +0.000 C 
ATOM     27  C   UNL     1      54.162   5.733   9.536  0.00  0.00    +0.000 C 
ATOM     28  N   UNL     1      54.103   6.094  10.958  0.00  0.00    +0.000 NA
ATOM     29  C   UNL     1      53.856   7.525  11.197  0.00  0.00    +0.000 C 
ATOM     30  H   UNL     1      54.954   5.794  11.430  0.00  0.00    +0.000 HD
ENDBRANCH  23  24
ENDBRANCH  20  23
ENDBRANCH  16  17
ENDBRANCH   3  16
TORSDOF 5
ENDMDL
MODEL 9
REMARK VINA RESULT:    -6.685      2.548      3.835
REMARK INTER + INTRA:          -9.584
REMARK INTER:                  -8.534
REMARK INTRA:                  -1.050
REMARK UNBOUND:                -0.946
REMARK  Name = 
REMARK  5 active torsions:
REMARK  status: ('A' for Active; 'I' for Inactive)
REMARK    1  A    between atoms: C_2  and  C_18
REMARK    2  A    between atoms: N_3  and  C_4
REMARK    3  A    between atoms: C_4  and  C_5
REMARK    4  A    between atoms: C_8  and  C_9
REMARK    5  A    between atoms: C_9  and  C_10
REMARK                            x       y       z     vdW  Elec       q    Type
REMARK                         _______ _______ _______ _____ _____    ______ ____
ROOT
ATOM      1  O   UNL     1      48.802   6.337  18.082  0.00  0.00    +0.000 OA
ATOM      2  C   UNL     1      49.798   6.254  17.360  0.00  0.00    +0.000 C 
ATOM      3  N   UNL     1      49.959   6.976  16.216  0.00  0.00    +0.000 N 
ATOM      4  H   UNL     1      50.796   6.865  15.660  0.00  0.00    +0.000 HD
ENDROOT
BRANCH   2   5
ATOM      5  C   UNL     1      50.900   5.328  17.664  0.00  0.00    +0.000 A 
ATOM      6  C   UNL     1      52.101   5.799  18.170  0.00  0.00    +0.000 A 
ATOM      7  S   UNL     1      53.226   4.558  18.500  0.00  0.00    +0.000 S 
ATOM      8  C   UNL     1      52.159   3.358  17.937  0.00  0.00    +0.000 A 
ATOM      9  N   UNL     1      52.512   2.043  17.939  0.00  0.00    +0.000 NA
ATOM     10  C   UNL     1      51.620   1.246  17.463  0.00  0.00    +0.000 A 
ATOM     11  N   UNL     1      50.398   1.638  16.981  0.00  0.00    +0.000 N 
ATOM     12  C   UNL     1      49.980   2.949  16.995  0.00  0.00    +0.000 A 
ATOM     13  O   UNL     1      48.842   3.243  16.639  0.00  0.00    +0.000 OA
ATOM     14  C   UNL     1      50.956   3.887  17.515  0.00  0.00    +0.000 A 
ATOM     15  H   UNL     1      49.734   0.960  16.637  0.00  0.00    +0.000 HD
ENDBRANCH   2   5
BRANCH   3  16
ATOM     16  C   UNL     1      49.047   7.985  15.746  0.00  0.00    +0.000 C 
BRANCH  16  17
ATOM     17  C   UNL     1      48.245   7.447  14.595  0.00  0.00    +0.000 A 
ATOM     18  C   UNL     1      47.565   8.346  13.773  0.00  0.00    +0.000 A 
ATOM     19  C   UNL     1      46.796   7.883  12.713  0.00  0.00    +0.000 A 
ATOM     20  C   UNL     1      46.723   6.513  12.408  0.00  0.00    +0.000 A 
ATOM     21  C   UNL     1      47.359   5.606  13.263  0.00  0.00    +0.000 A 
ATOM     22  C   UNL     1      48.106   6.070  14.355  0.00  0.00    +0.000 A 
BRANCH  20  23
ATOM     23  C   UNL     1      46.077   6.071  11.098  0.00  0.00    +0.000 C 
BRANCH  23  24
ATOM     24  C   UNL     1      45.211   4.830  11.377  0.00  0.00    +0.000 C 
ATOM     25  C   UNL     1      43.936   5.156  12.162  0.00  0.00    +0.000 C 
ATOM     26  C   UNL     1      43.437   3.846  12.757  0.00  0.00    +0.000 C 
ATOM     27  C   UNL     1      43.271   2.763  11.683  0.00  0.00    +0.000 C 
ATOM     28  N   UNL     1      44.371   2.664  10.716  0.00  0.00    +0.000 NA
ATOM     29  C   UNL     1      44.809   3.964  10.181  0.00  0.00    +0.000 C 
ATOM     30  H   UNL     1      44.115   2.033   9.959  0.00  0.00    +0.000 HD
ENDBRANCH  23  24
ENDBRANCH  20  23
ENDBRANCH  16  17
ENDBRANCH   3  16
TORSDOF 5
ENDMDL
