MODEL 1
REMARK VINA RESULT:    -7.816      0.000      0.000
REMARK INTER + INTRA:         -11.647
REMARK INTER:                 -10.786
REMARK INTRA:                  -0.861
REMARK UNBOUND:                -0.861
REMARK  Name = 
REMARK  7 active torsions:
REMARK  status: ('A' for Active; 'I' for Inactive)
REMARK    1  A    between atoms: N_1  and  C_2
REMARK    2  A    between atoms: C_2  and  C_3
REMARK    3  A    between atoms: C_7  and  O_8
REMARK    4  A    between atoms: O_8  and  C_9
REMARK    5  A    between atoms: C_9  and  C_10
REMARK    6  A    between atoms: C_10  and  C_11
REMARK    7  A    between atoms: C_14  and  C_15
REMARK                            x       y       z     vdW  Elec       q    Type
REMARK                         _______ _______ _______ _____ _____    ______ ____
ROOT
ATOM      1  C   UNL     1      43.255   5.216  10.617  0.00  0.00    +0.000 C 
ENDROOT
BRANCH   1   2
ATOM      2  O   UNL     1      43.540   5.865  11.862  0.00  0.00    +0.000 OA
BRANCH   2   7
ATOM      3  C   UNL     1      46.639   5.318  13.723  0.00  0.00    +0.000 A 
ATOM      4  C   UNL     1      47.552   6.083  12.985  0.00  0.00    +0.000 A 
ATOM      5  C   UNL     1      47.134   6.803  11.869  0.00  0.00    +0.000 A 
ATOM      6  C   UNL     1      45.798   6.757  11.467  0.00  0.00    +0.000 A 
ATOM      7  C   UNL     1      44.870   5.992  12.178  0.00  0.00    +0.000 A 
ATOM      8  C   UNL     1      45.297   5.281  13.308  0.00  0.00    +0.000 A 
BRANCH   3   9
ATOM      9  C   UNL     1      47.113   4.522  14.914  0.00  0.00    +0.000 C 
BRANCH   9  10
ATOM     10  N   UNL     1      47.435   3.145  14.552  0.00  0.00    +0.000 NA
ATOM     11  H   UNL     1      46.743   2.521  14.961  0.00  0.00    +0.000 HD
ATOM     12  H   UNL     1      48.331   2.899  14.971  0.00  0.00    +0.000 HD
ENDBRANCH   9  10
ENDBRANCH   3   9
ENDBRANCH   2   7
ENDBRANCH   1   2
BRANCH   1  13
ATOM     13  C   UNL     1      43.648   3.740  10.694  0.00  0.00    +0.000 C 
BRANCH  13  14
ATOM     14  C   UNL     1      44.647   3.379   9.618  0.00  0.00    +0.000 A 
ATOM     15  C   UNL     1      45.202   4.372   8.800  0.00  0.00    +0.000 A 
ATOM     16  C   UNL     1      46.096   4.031   7.780  0.00  0.00    +0.000 A 
ATOM     17  C   UNL     1      46.456   2.695   7.570  0.00  0.00    +0.000 A 
ATOM     18  C   UNL     1      45.892   1.697   8.372  0.00  0.00    +0.000 A 
ATOM     19  C   UNL     1      44.992   2.039   9.389  0.00  0.00    +0.000 A 
BRANCH  17  20
ATOM     20  C   UNL     1      47.411   2.386   6.473  0.00  0.00    +0.000 C 
ATOM     21  N   UNL     1      47.424   3.220   5.388  0.00  0.00    +0.000 N 
ATOM     22  O   UNL     1      48.138   1.400   6.512  0.00  0.00    +0.000 OA
ATOM     23  H   UNL     1      46.683   3.880   5.203  0.00  0.00    +0.000 HD
ATOM     24  H   UNL     1      47.998   2.926   4.609  0.00  0.00    +0.000 HD
ENDBRANCH  17  20
ENDBRANCH  13  14
ENDBRANCH   1  13
TORSDOF 7
ENDMDL
MODEL 2
REMARK VINA RESULT:    -7.371      1.816      2.406
REMARK INTER + INTRA:         -11.033
REMARK INTER:                 -10.438
REMARK INTRA:                  -0.595
REMARK UNBOUND:                -0.861
REMARK  Name = 
REMARK  7 active torsions:
REMARK  status: ('A' for Active; 'I' for Inactive)
REMARK    1  A    between atoms: N_1  and  C_2
REMARK    2  A    between atoms: C_2  and  C_3
REMARK    3  A    between atoms: C_7  and  O_8
REMARK    4  A    between atoms: O_8  and  C_9
REMARK    5  A    between atoms: C_9  and  C_10
REMARK    6  A    between atoms: C_10  and  C_11
REMARK    7  A    between atoms: C_14  and  C_15
REMARK                            x       y       z     vdW  Elec       q    Type
REMARK                         _______ _______ _______ _____ _____    ______ ____
ROOT
ATOM      1  C   UNL     1      43.894   3.158  12.013  0.00  0.00    +0.000 C 
ENDROOT
BRANCH   1   2
ATOM      2  O   UNL     1      43.880   4.176  13.021  0.00  0.00    +0.000 OA
BRANCH   2   7
ATOM      3  C   UNL     1      45.598   7.341  12.392  0.00  0.00    +0.000 A 
ATOM      4  C   UNL     1      46.894   7.056  12.844  0.00  0.00    +0.000 A 
ATOM      5  C   UNL     1      47.207   5.795  13.348  0.00  0.00    +0.000 A 
ATOM      6  C   UNL     1      46.224   4.806  13.417  0.00  0.00    +0.000 A 
ATOM      7  C   UNL     1      44.922   5.069  12.983  0.00  0.00    +0.000 A 
ATOM      8  C   UNL     1      44.619   6.336  12.467  0.00  0.00    +0.000 A 
BRANCH   3   9
ATOM      9  C   UNL     1      45.268   8.719  11.875  0.00  0.00    +0.000 C 
BRANCH   9  10
ATOM     10  N   UNL     1      44.716   9.573  12.922  0.00  0.00    +0.000 NA
ATOM     11  H   UNL     1      43.790   9.235  13.177  0.00  0.00    +0.000 HD
ATOM     12  H   UNL     1      44.588  10.511  12.545  0.00  0.00    +0.000 HD
ENDBRANCH   9  10
ENDBRANCH   3   9
ENDBRANCH   2   7
ENDBRANCH   1   2
BRANCH   1  13
ATOM     13  C   UNL     1      43.545   3.763  10.653  0.00  0.00    +0.000 C 
BRANCH  13  14
ATOM     14  C   UNL     1      44.558   3.375   9.600  0.00  0.00    +0.000 A 
ATOM     15  C   UNL     1      45.132   4.348   8.771  0.00  0.00    +0.000 A 
ATOM     16  C   UNL     1      46.040   3.982   7.773  0.00  0.00    +0.000 A 
ATOM     17  C   UNL     1      46.394   2.640   7.595  0.00  0.00    +0.000 A 
ATOM     18  C   UNL     1      45.811   1.662   8.407  0.00  0.00    +0.000 A 
ATOM     19  C   UNL     1      44.898   2.029   9.402  0.00  0.00    +0.000 A 
BRANCH  17  20
ATOM     20  C   UNL     1      47.365   2.303   6.519  0.00  0.00    +0.000 C 
ATOM     21  N   UNL     1      47.393   3.109   5.414  0.00  0.00    +0.000 N 
ATOM     22  O   UNL     1      48.092   1.319   6.594  0.00  0.00    +0.000 OA
ATOM     23  H   UNL     1      46.654   3.763   5.202  0.00  0.00    +0.000 HD
ATOM     24  H   UNL     1      47.977   2.795   4.650  0.00  0.00    +0.000 HD
ENDBRANCH  17  20
ENDBRANCH  13  14
ENDBRANCH   1  13
TORSDOF 7
ENDMDL
MODEL 3
REMARK VINA RESULT:    -7.341      2.287      6.247
REMARK INTER + INTRA:         -10.992
REMARK INTER:                 -10.137
REMARK INTRA:                  -0.854
REMARK UNBOUND:                -0.861
REMARK  Name = 
REMARK  7 active torsions:
REMARK  status: ('A' for Active; 'I' for Inactive)
REMARK    1  A    between atoms: N_1  and  C_2
REMARK    2  A    between atoms: C_2  and  C_3
REMARK    3  A    between atoms: C_7  and  O_8
REMARK    4  A    between atoms: O_8  and  C_9
REMARK    5  A    between atoms: C_9  and  C_10
REMARK    6  A    between atoms: C_10  and  C_11
REMARK    7  A    between atoms: C_14  and  C_15
REMARK                            x       y       z     vdW  Elec       q    Type
REMARK                         _______ _______ _______ _____ _____    ______ ____
ROOT
ATOM      1  C   UNL     1      43.249   3.379  11.275  0.00  0.00    +0.000 C 
ENDROOT
BRANCH   1   2
ATOM      2  O   UNL     1      43.855   2.391  10.434  0.00  0.00    +0.000 OA
BRANCH   2   7
ATOM      3  C   UNL     1      46.375   2.258   7.788  0.00  0.00    +0.000 A 
ATOM      4  C   UNL     1      46.534   3.615   7.479  0.00  0.00    +0.000 A 
ATOM      5  C   UNL     1      45.811   4.587   8.166  0.00  0.00    +0.000 A 
ATOM      6  C   UNL     1      44.910   4.214   9.164  0.00  0.00    +0.000 A 
ATOM      7  C   UNL     1      44.724   2.867   9.483  0.00  0.00    +0.000 A 
ATOM      8  C   UNL     1      45.465   1.896   8.795  0.00  0.00    +0.000 A 
BRANCH   3   9
ATOM      9  C   UNL     1      47.144   1.214   7.016  0.00  0.00    +0.000 C 
BRANCH   9  10
ATOM     10  N   UNL     1      48.434   1.721   6.557  0.00  0.00    +0.000 NA
ATOM     11  H   UNL     1      49.043   0.935   6.338  0.00  0.00    +0.000 HD
ATOM     12  H   UNL     1      48.877   2.227   7.323  0.00  0.00    +0.000 HD
ENDBRANCH   9  10
ENDBRANCH   3   9
ENDBRANCH   2   7
ENDBRANCH   1   2
BRANCH   1  13
ATOM     13  C   UNL     1      43.928   3.385  12.646  0.00  0.00    +0.000 C 
BRANCH  13  14
ATOM     14  C   UNL     1      44.777   4.622  12.835  0.00  0.00    +0.000 A 
ATOM     15  C   UNL     1      44.282   5.886  12.486  0.00  0.00    +0.000 A 
ATOM     16  C   UNL     1      45.082   7.023  12.626  0.00  0.00    +0.000 A 
ATOM     17  C   UNL     1      46.386   6.916  13.123  0.00  0.00    +0.000 A 
ATOM     18  C   UNL     1      46.893   5.655  13.456  0.00  0.00    +0.000 A 
ATOM     19  C   UNL     1      46.092   4.517  13.311  0.00  0.00    +0.000 A 
BRANCH  17  20
ATOM     20  C   UNL     1      47.196   8.157  13.252  0.00  0.00    +0.000 C 
ATOM     21  N   UNL     1      47.117   8.848  14.430  0.00  0.00    +0.000 N 
ATOM     22  O   UNL     1      47.885   8.574  12.328  0.00  0.00    +0.000 OA
ATOM     23  H   UNL     1      46.385   8.684  15.106  0.00  0.00    +0.000 HD
ATOM     24  H   UNL     1      47.585   9.743  14.452  0.00  0.00    +0.000 HD
ENDBRANCH  17  20
ENDBRANCH  13  14
ENDBRANCH   1  13
TORSDOF 7
ENDMDL
MODEL 4
REMARK VINA RESULT:    -7.159      1.538      1.977
REMARK INTER + INTRA:         -10.741
REMARK INTER:                 -10.127
REMARK INTRA:                  -0.613
REMARK UNBOUND:                -0.861
REMARK  Name = 
REMARK  7 active torsions:
REMARK  status: ('A' for Active; 'I' for Inactive)
REMARK    1  A    between atoms: N_1  and  C_2
REMARK    2  A    between atoms: C_2  and  C_3
REMARK    3  A    between atoms: C_7  and  O_8
REMARK    4  A    between atoms: O_8  and  C_9
REMARK    5  A    between atoms: C_9  and  C_10
REMARK    6  A    between atoms: C_10  and  C_11
REMARK    7  A    between atoms: C_14  and  C_15
REMARK                            x       y       z     vdW  Elec       q    Type
REMARK                         _______ _______ _______ _____ _____    ______ ____
ROOT
ATOM      1  C   UNL     1      43.649   5.395  10.880  0.00  0.00    +0.000 C 
ENDROOT
BRANCH   1   2
ATOM      2  O   UNL     1      43.734   5.641  12.289  0.00  0.00    +0.000 OA
BRANCH   2   7
ATOM      3  C   UNL     1      46.931   7.049  13.367  0.00  0.00    +0.000 A 
ATOM      4  C   UNL     1      47.581   5.919  13.881  0.00  0.00    +0.000 A 
ATOM      5  C   UNL     1      46.960   4.672  13.855  0.00  0.00    +0.000 A 
ATOM      6  C   UNL     1      45.676   4.541  13.325  0.00  0.00    +0.000 A 
ATOM      7  C   UNL     1      45.002   5.655  12.817  0.00  0.00    +0.000 A 
ATOM      8  C   UNL     1      45.638   6.903  12.836  0.00  0.00    +0.000 A 
BRANCH   3   9
ATOM      9  C   UNL     1      47.605   8.398  13.428  0.00  0.00    +0.000 C 
BRANCH   9  10
ATOM     10  N   UNL     1      47.293   9.104  14.666  0.00  0.00    +0.000 NA
ATOM     11  H   UNL     1      46.310   9.368  14.662  0.00  0.00    +0.000 HD
ATOM     12  H   UNL     1      47.827   9.972  14.689  0.00  0.00    +0.000 HD
ENDBRANCH   9  10
ENDBRANCH   3   9
ENDBRANCH   2   7
ENDBRANCH   1   2
BRANCH   1  13
ATOM     13  C   UNL     1      43.604   3.889  10.613  0.00  0.00    +0.000 C 
BRANCH  13  14
ATOM     14  C   UNL     1      44.632   3.481   9.583  0.00  0.00    +0.000 A 
ATOM     15  C   UNL     1      45.286   4.447   8.808  0.00  0.00    +0.000 A 
ATOM     16  C   UNL     1      46.209   4.065   7.829  0.00  0.00    +0.000 A 
ATOM     17  C   UNL     1      46.497   2.713   7.617  0.00  0.00    +0.000 A 
ATOM     18  C   UNL     1      45.834   1.741   8.375  0.00  0.00    +0.000 A 
ATOM     19  C   UNL     1      44.907   2.125   9.351  0.00  0.00    +0.000 A 
BRANCH  17  20
ATOM     20  C   UNL     1      47.486   2.359   6.564  0.00  0.00    +0.000 C 
ATOM     21  N   UNL     1      47.467   3.084   5.405  0.00  0.00    +0.000 N 
ATOM     22  O   UNL     1      48.271   1.427   6.706  0.00  0.00    +0.000 OA
ATOM     23  H   UNL     1      46.690   3.677   5.150  0.00  0.00    +0.000 HD
ATOM     24  H   UNL     1      48.069   2.753   4.663  0.00  0.00    +0.000 HD
ENDBRANCH  17  20
ENDBRANCH  13  14
ENDBRANCH   1  13
TORSDOF 7
ENDMDL
MODEL 5
REMARK VINA RESULT:    -6.859      1.912      6.696
REMARK INTER + INTRA:         -10.327
REMARK INTER:                  -9.770
REMARK INTRA:                  -0.557
REMARK UNBOUND:                -0.861
REMARK  Name = 
REMARK  7 active torsions:
REMARK  status: ('A' for Active; 'I' for Inactive)
REMARK    1  A    between atoms: N_1  and  C_2
REMARK    2  A    between atoms: C_2  and  C_3
REMARK    3  A    between atoms: C_7  and  O_8
REMARK    4  A    between atoms: O_8  and  C_9
REMARK    5  A    between atoms: C_9  and  C_10
REMARK    6  A    between atoms: C_10  and  C_11
REMARK    7  A    between atoms: C_14  and  C_15
REMARK                            x       y       z     vdW  Elec       q    Type
REMARK                         _______ _______ _______ _____ _____    ______ ____
ROOT
ATOM      1  C   UNL     1      43.621   4.025  10.246  0.00  0.00    +0.000 C 
ENDROOT
BRANCH   1   2
ATOM      2  O   UNL     1      44.272   4.291   8.998  0.00  0.00    +0.000 OA
BRANCH   2   7
ATOM      3  C   UNL     1      46.554   2.593   6.702  0.00  0.00    +0.000 A 
ATOM      4  C   UNL     1      46.658   1.325   7.291  0.00  0.00    +0.000 A 
ATOM      5  C   UNL     1      45.951   1.023   8.451  0.00  0.00    +0.000 A 
ATOM      6  C   UNL     1      45.139   1.990   9.047  0.00  0.00    +0.000 A 
ATOM      7  C   UNL     1      45.027   3.265   8.487  0.00  0.00    +0.000 A 
ATOM      8  C   UNL     1      45.733   3.556   7.312  0.00  0.00    +0.000 A 
BRANCH   3   9
ATOM      9  C   UNL     1      47.348   2.914   5.460  0.00  0.00    +0.000 C 
BRANCH   9  10
ATOM     10  N   UNL     1      48.489   2.017   5.299  0.00  0.00    +0.000 NA
ATOM     11  H   UNL     1      49.150   2.178   6.056  0.00  0.00    +0.000 HD
ATOM     12  H   UNL     1      48.973   2.258   4.435  0.00  0.00    +0.000 HD
ENDBRANCH   9  10
ENDBRANCH   3   9
ENDBRANCH   2   7
ENDBRANCH   1   2
BRANCH   1  13
ATOM     13  C   UNL     1      43.503   5.314  11.061  0.00  0.00    +0.000 C 
BRANCH  13  14
ATOM     14  C   UNL     1      44.755   5.571  11.868  0.00  0.00    +0.000 A 
ATOM     15  C   UNL     1      45.038   4.805  13.007  0.00  0.00    +0.000 A 
ATOM     16  C   UNL     1      46.177   5.070  13.774  0.00  0.00    +0.000 A 
ATOM     17  C   UNL     1      47.053   6.098  13.410  0.00  0.00    +0.000 A 
ATOM     18  C   UNL     1      46.767   6.878  12.284  0.00  0.00    +0.000 A 
ATOM     19  C   UNL     1      45.624   6.615  11.520  0.00  0.00    +0.000 A 
BRANCH  17  20
ATOM     20  C   UNL     1      48.250   6.338  14.259  0.00  0.00    +0.000 C 
ATOM     21  N   UNL     1      48.121   6.148  15.608  0.00  0.00    +0.000 N 
ATOM     22  O   UNL     1      49.309   6.730  13.782  0.00  0.00    +0.000 OA
ATOM     23  H   UNL     1      47.222   6.076  16.061  0.00  0.00    +0.000 HD
ATOM     24  H   UNL     1      48.911   6.427  16.173  0.00  0.00    +0.000 HD
ENDBRANCH  17  20
ENDBRANCH  13  14
ENDBRANCH   1  13
TORSDOF 7
ENDMDL
MODEL 6
REMARK VINA RESULT:    -6.447      2.274      7.166
REMARK INTER + INTRA:          -9.757
REMARK INTER:                  -9.276
REMARK INTRA:                  -0.481
REMARK UNBOUND:                -0.861
REMARK  Name = 
REMARK  7 active torsions:
REMARK  status: ('A' for Active; 'I' for Inactive)
REMARK    1  A    between atoms: N_1  and  C_2
REMARK    2  A    between atoms: C_2  and  C_3
REMARK    3  A    between atoms: C_7  and  O_8
REMARK    4  A    between atoms: O_8  and  C_9
REMARK    5  A    between atoms: C_9  and  C_10
REMARK    6  A    between atoms: C_10  and  C_11
REMARK    7  A    between atoms: C_14  and  C_15
REMARK                            x       y       z     vdW  Elec       q    Type
REMARK                         _______ _______ _______ _____ _____    ______ ____
ROOT
ATOM      1  C   UNL     1      45.157   5.225  10.752  0.00  0.00    +0.000 C 
ENDROOT
BRANCH   1   2
ATOM      2  O   UNL     1      45.088   5.120   9.324  0.00  0.00    +0.000 OA
BRANCH   2   7
ATOM      3  C   UNL     1      46.682   2.786   7.006  0.00  0.00    +0.000 A 
ATOM      4  C   UNL     1      46.340   1.548   7.569  0.00  0.00    +0.000 A 
ATOM      5  C   UNL     1      45.558   1.486   8.719  0.00  0.00    +0.000 A 
ATOM      6  C   UNL     1      45.117   2.661   9.331  0.00  0.00    +0.000 A 
ATOM      7  C   UNL     1      45.454   3.907   8.796  0.00  0.00    +0.000 A 
ATOM      8  C   UNL     1      46.232   3.960   7.632  0.00  0.00    +0.000 A 
BRANCH   3   9
ATOM      9  C   UNL     1      47.553   2.838   5.775  0.00  0.00    +0.000 C 
BRANCH   9  10
ATOM     10  N   UNL     1      48.537   1.760   5.761  0.00  0.00    +0.000 NA
ATOM     11  H   UNL     1      49.411   2.099   6.157  0.00  0.00    +0.000 HD
ATOM     12  H   UNL     1      48.733   1.511   4.792  0.00  0.00    +0.000 HD
ENDBRANCH   9  10
ENDBRANCH   3   9
ENDBRANCH   2   7
ENDBRANCH   1   2
BRANCH   1  13
ATOM     13  C   UNL     1      46.259   6.208  11.151  0.00  0.00    +0.000 C 
BRANCH  13  14
ATOM     14  C   UNL     1      46.762   5.932  12.550  0.00  0.00    +0.000 A 
ATOM     15  C   UNL     1      47.646   6.820  13.176  0.00  0.00    +0.000 A 
ATOM     16  C   UNL     1      48.141   6.544  14.455  0.00  0.00    +0.000 A 
ATOM     17  C   UNL     1      47.753   5.381  15.128  0.00  0.00    +0.000 A 
ATOM     18  C   UNL     1      46.884   4.480  14.501  0.00  0.00    +0.000 A 
ATOM     19  C   UNL     1      46.394   4.756  13.219  0.00  0.00    +0.000 A 
BRANCH  17  20
ATOM     20  C   UNL     1      48.307   5.133  16.486  0.00  0.00    +0.000 C 
ATOM     21  N   UNL     1      48.029   6.050  17.463  0.00  0.00    +0.000 N 
ATOM     22  O   UNL     1      49.020   4.165  16.723  0.00  0.00    +0.000 OA
ATOM     23  H   UNL     1      47.668   6.970  17.255  0.00  0.00    +0.000 HD
ATOM     24  H   UNL     1      48.508   5.920  18.344  0.00  0.00    +0.000 HD
ENDBRANCH  17  20
ENDBRANCH  13  14
ENDBRANCH   1  13
TORSDOF 7
ENDMDL
MODEL 7
REMARK VINA RESULT:    -6.168      3.077      3.779
REMARK INTER + INTRA:          -9.374
REMARK INTER:                  -8.975
REMARK INTRA:                  -0.398
REMARK UNBOUND:                -0.861
REMARK  Name = 
REMARK  7 active torsions:
REMARK  status: ('A' for Active; 'I' for Inactive)
REMARK    1  A    between atoms: N_1  and  C_2
REMARK    2  A    between atoms: C_2  and  C_3
REMARK    3  A    between atoms: C_7  and  O_8
REMARK    4  A    between atoms: O_8  and  C_9
REMARK    5  A    between atoms: C_9  and  C_10
REMARK    6  A    between atoms: C_10  and  C_11
REMARK    7  A    between atoms: C_14  and  C_15
REMARK                            x       y       z     vdW  Elec       q    Type
REMARK                         _______ _______ _______ _____ _____    ______ ____
ROOT
ATOM      1  C   UNL     1      44.723   5.575  11.300  0.00  0.00    +0.000 C 
ENDROOT
BRANCH   1   2
ATOM      2  O   UNL     1      43.983   6.726  11.724  0.00  0.00    +0.000 OA
BRANCH   2   7
ATOM      3  C   UNL     1      44.787  10.247  11.154  0.00  0.00    +0.000 A 
ATOM      4  C   UNL     1      45.974  10.389  11.886  0.00  0.00    +0.000 A 
ATOM      5  C   UNL     1      46.524   9.303  12.562  0.00  0.00    +0.000 A 
ATOM      6  C   UNL     1      45.887   8.061  12.525  0.00  0.00    +0.000 A 
ATOM      7  C   UNL     1      44.697   7.896  11.813  0.00  0.00    +0.000 A 
ATOM      8  C   UNL     1      44.157   8.991  11.126  0.00  0.00    +0.000 A 
BRANCH   3   9
ATOM      9  C   UNL     1      44.189  11.440  10.450  0.00  0.00    +0.000 C 
BRANCH   9  10
ATOM     10  N   UNL     1      42.785  11.224  10.116  0.00  0.00    +0.000 NA
ATOM     11  H   UNL     1      42.245  12.039  10.400  0.00  0.00    +0.000 HD
ATOM     12  H   UNL     1      42.436  10.439  10.664  0.00  0.00    +0.000 HD
ENDBRANCH   9  10
ENDBRANCH   3   9
ENDBRANCH   2   7
ENDBRANCH   1   2
BRANCH   1  13
ATOM     13  C   UNL     1      43.917   4.787  10.266  0.00  0.00    +0.000 C 
BRANCH  13  14
ATOM     14  C   UNL     1      44.817   3.931   9.403  0.00  0.00    +0.000 A 
ATOM     15  C   UNL     1      45.627   4.516   8.421  0.00  0.00    +0.000 A 
ATOM     16  C   UNL     1      46.430   3.719   7.598  0.00  0.00    +0.000 A 
ATOM     17  C   UNL     1      46.440   2.328   7.750  0.00  0.00    +0.000 A 
ATOM     18  C   UNL     1      45.619   1.737   8.717  0.00  0.00    +0.000 A 
ATOM     19  C   UNL     1      44.812   2.535   9.536  0.00  0.00    +0.000 A 
BRANCH  17  20
ATOM     20  C   UNL     1      47.311   1.526   6.850  0.00  0.00    +0.000 C 
ATOM     21  N   UNL     1      48.355   2.166   6.241  0.00  0.00    +0.000 N 
ATOM     22  O   UNL     1      47.087   0.342   6.626  0.00  0.00    +0.000 OA
ATOM     23  H   UNL     1      48.422   3.173   6.197  0.00  0.00    +0.000 HD
ATOM     24  H   UNL     1      48.861   1.630   5.549  0.00  0.00    +0.000 HD
ENDBRANCH  17  20
ENDBRANCH  13  14
ENDBRANCH   1  13
TORSDOF 7
ENDMDL
MODEL 8
REMARK VINA RESULT:    -5.891      3.139      5.167
REMARK INTER + INTRA:          -8.991
REMARK INTER:                  -8.350
REMARK INTRA:                  -0.640
REMARK UNBOUND:                -0.861
REMARK  Name = 
REMARK  7 active torsions:
REMARK  status: ('A' for Active; 'I' for Inactive)
REMARK    1  A    between atoms: N_1  and  C_2
REMARK    2  A    between atoms: C_2  and  C_3
REMARK    3  A    between atoms: C_7  and  O_8
REMARK    4  A    between atoms: O_8  and  C_9
REMARK    5  A    between atoms: C_9  and  C_10
REMARK    6  A    between atoms: C_10  and  C_11
REMARK    7  A    between atoms: C_14  and  C_15
REMARK                            x       y       z     vdW  Elec       q    Type
REMARK                         _______ _______ _______ _____ _____    ______ ____
ROOT
ATOM      1  C   UNL     1      48.493   6.740  13.514  0.00  0.00    +0.000 C 
ENDROOT
BRANCH   1   2
ATOM      2  O   UNL     1      48.348   7.108  14.891  0.00  0.00    +0.000 OA
BRANCH   2   7
ATOM      3  C   UNL     1      48.780   4.244  17.122  0.00  0.00    +0.000 A 
ATOM      4  C   UNL     1      50.072   4.463  17.618  0.00  0.00    +0.000 A 
ATOM      5  C   UNL     1      50.803   5.581  17.223  0.00  0.00    +0.000 A 
ATOM      6  C   UNL     1      50.255   6.490  16.316  0.00  0.00    +0.000 A 
ATOM      7  C   UNL     1      48.974   6.288  15.798  0.00  0.00    +0.000 A 
ATOM      8  C   UNL     1      48.241   5.167  16.210  0.00  0.00    +0.000 A 
BRANCH   3   9
ATOM      9  C   UNL     1      48.012   3.014  17.539  0.00  0.00    +0.000 C 
BRANCH   9  10
ATOM     10  N   UNL     1      46.570   3.221  17.453  0.00  0.00    +0.000 NA
ATOM     11  H   UNL     1      46.287   3.206  16.475  0.00  0.00    +0.000 HD
ATOM     12  H   UNL     1      46.353   4.153  17.804  0.00  0.00    +0.000 HD
ENDBRANCH   9  10
ENDBRANCH   3   9
ENDBRANCH   2   7
ENDBRANCH   1   2
BRANCH   1  13
ATOM     13  C   UNL     1      47.296   7.249  12.708  0.00  0.00    +0.000 C 
BRANCH  13  14
ATOM     14  C   UNL     1      46.416   6.109  12.249  0.00  0.00    +0.000 A 
ATOM     15  C   UNL     1      46.290   4.950  13.025  0.00  0.00    +0.000 A 
ATOM     16  C   UNL     1      45.506   3.881  12.580  0.00  0.00    +0.000 A 
ATOM     17  C   UNL     1      44.831   3.958  11.357  0.00  0.00    +0.000 A 
ATOM     18  C   UNL     1      44.968   5.106  10.568  0.00  0.00    +0.000 A 
ATOM     19  C   UNL     1      45.757   6.173  11.013  0.00  0.00    +0.000 A 
BRANCH  17  20
ATOM     20  C   UNL     1      44.010   2.794  10.929  0.00  0.00    +0.000 C 
ATOM     21  N   UNL     1      44.463   2.052   9.872  0.00  0.00    +0.000 N 
ATOM     22  O   UNL     1      42.946   2.523  11.473  0.00  0.00    +0.000 OA
ATOM     23  H   UNL     1      45.184   2.382   9.248  0.00  0.00    +0.000 HD
ATOM     24  H   UNL     1      43.834   1.339   9.529  0.00  0.00    +0.000 HD
ENDBRANCH  17  20
ENDBRANCH  13  14
ENDBRANCH   1  13
TORSDOF 7
ENDMDL
MODEL 9
REMARK VINA RESULT:    -5.829      4.482      8.001
REMARK INTER + INTRA:          -8.905
REMARK INTER:                  -8.437
REMARK INTRA:                  -0.468
REMARK UNBOUND:                -0.861
REMARK  Name = 
REMARK  7 active torsions:
REMARK  status: ('A' for Active; 'I' for Inactive)
REMARK    1  A    between atoms: N_1  and  C_2
REMARK    2  A    between atoms: C_2  and  C_3
REMARK    3  A    between atoms: C_7  and  O_8
REMARK    4  A    between atoms: O_8  and  C_9
REMARK    5  A    between atoms: C_9  and  C_10
REMARK    6  A    between atoms: C_10  and  C_11
REMARK    7  A    between atoms: C_14  and  C_15
REMARK                            x       y       z     vdW  Elec       q    Type
REMARK                         _______ _______ _______ _____ _____    ______ ____
ROOT
ATOM      1  C   UNL     1      46.908   4.241  15.484  0.00  0.00    +0.000 C 
ENDROOT
BRANCH   1   2
ATOM      2  O   UNL     1      47.609   4.818  14.376  0.00  0.00    +0.000 OA
BRANCH   2   7
ATOM      3  C   UNL     1      45.110   4.214  11.776  0.00  0.00    +0.000 A 
ATOM      4  C   UNL     1      45.187   5.396  11.028  0.00  0.00    +0.000 A 
ATOM      5  C   UNL     1      46.088   6.398  11.378  0.00  0.00    +0.000 A 
ATOM      6  C   UNL     1      46.918   6.237  12.489  0.00  0.00    +0.000 A 
ATOM      7  C   UNL     1      46.853   5.072  13.258  0.00  0.00    +0.000 A 
ATOM      8  C   UNL     1      45.951   4.064  12.892  0.00  0.00    +0.000 A 
BRANCH   3   9
ATOM      9  C   UNL     1      44.109   3.149  11.401  0.00  0.00    +0.000 C 
BRANCH   9  10
ATOM     10  N   UNL     1      43.635   2.415  12.570  0.00  0.00    +0.000 NA
ATOM     11  H   UNL     1      43.337   1.485  12.283  0.00  0.00    +0.000 HD
ATOM     12  H   UNL     1      42.808   2.884  12.937  0.00  0.00    +0.000 HD
ENDBRANCH   9  10
ENDBRANCH   3   9
ENDBRANCH   2   7
ENDBRANCH   1   2
BRANCH   1  13
ATOM     13  C   UNL     1      47.601   4.619  16.795  0.00  0.00    +0.000 C 
BRANCH  13  14
ATOM     14  C   UNL     1      48.857   3.805  17.009  0.00  0.00    +0.000 A 
ATOM     15  C   UNL     1      48.879   2.437  16.706  0.00  0.00    +0.000 A 
ATOM     16  C   UNL     1      50.029   1.678  16.941  0.00  0.00    +0.000 A 
ATOM     17  C   UNL     1      51.176   2.276  17.474  0.00  0.00    +0.000 A 
ATOM     18  C   UNL     1      51.155   3.638  17.796  0.00  0.00    +0.000 A 
ATOM     19  C   UNL     1      50.001   4.395  17.565  0.00  0.00    +0.000 A 
BRANCH  17  20
ATOM     20  C   UNL     1      52.374   1.425  17.705  0.00  0.00    +0.000 C 
ATOM     21  N   UNL     1      52.177   0.186  18.251  0.00  0.00    +0.000 N 
ATOM     22  O   UNL     1      53.505   1.825  17.454  0.00  0.00    +0.000 OA
ATOM     23  H   UNL     1      51.311  -0.077  18.699  0.00  0.00    +0.000 HD
ATOM     24  H   UNL     1      53.011  -0.326  18.503  0.00  0.00    +0.000 HD
ENDBRANCH  17  20
ENDBRANCH  13  14
ENDBRANCH   1  13
TORSDOF 7
ENDMDL
