MODEL 1
REMARK VINA RESULT:    -8.910      0.000      0.000
REMARK INTER + INTRA:         -13.695
REMARK INTER:                 -12.556
REMARK INTRA:                  -1.139
REMARK UNBOUND:                -1.139
REMARK  Name = 
REMARK  7 active torsions:
REMARK  status: ('A' for Active; 'I' for Inactive)
REMARK    1  A    between atoms: C_2  and  C_4
REMARK    2  A    between atoms: C_4  and  C_5
REMARK    3  A    between atoms: C_5  and  N_6
REMARK    4  A    between atoms: C_5  and  C_19
REMARK    5  A    between atoms: C_7  and  C_9
REMARK    6  A    between atoms: C_22  and  C_23
REMARK    7  A    between atoms: C_23  and  C_24
REMARK                            x       y       z     vdW  Elec       q    Type
REMARK                         _______ _______ _______ _____ _____    ______ ____
ROOT
ATOM      1  C   UNL     1      46.344   7.797  12.565  0.00  0.00    +0.000 C 
ENDROOT
BRANCH   1   2
ATOM      2  C   UNL     1      45.862   6.583  11.774  0.00  0.00    +0.000 A 
ATOM      3  C   UNL     1      44.947   5.679  12.330  0.00  0.00    +0.000 A 
ATOM      4  C   UNL     1      44.469   4.600  11.579  0.00  0.00    +0.000 A 
ATOM      5  C   UNL     1      44.893   4.403  10.257  0.00  0.00    +0.000 A 
ATOM      6  C   UNL     1      45.815   5.300   9.706  0.00  0.00    +0.000 A 
ATOM      7  C   UNL     1      46.295   6.373  10.456  0.00  0.00    +0.000 A 
BRANCH   5   8
ATOM      8  C   UNL     1      44.338   3.272   9.420  0.00  0.00    +0.000 C 
BRANCH   8   9
ATOM      9  C   UNL     1      45.322   2.744   8.401  0.00  0.00    +0.000 A 
ATOM     10  C   UNL     1      45.897   1.473   8.552  0.00  0.00    +0.000 A 
ATOM     11  C   UNL     1      46.836   1.005   7.631  0.00  0.00    +0.000 A 
ATOM     12  C   UNL     1      47.210   1.799   6.550  0.00  0.00    +0.000 A 
ATOM     13  C   UNL     1      46.642   3.061   6.385  0.00  0.00    +0.000 A 
ATOM     14  C   UNL     1      45.705   3.532   7.306  0.00  0.00    +0.000 A 
ENDBRANCH   8   9
ENDBRANCH   5   8
ENDBRANCH   1   2
BRANCH   1  15
ATOM     15  N   UNL     1      46.959   7.302  13.796  0.00  0.00    +0.000 N 
ATOM     16  C   UNL     1      48.254   6.867  13.900  0.00  0.00    +0.000 C 
ATOM     17  O   UNL     1      49.048   6.917  12.966  0.00  0.00    +0.000 OA
ATOM     18  H   UNL     1      46.298   6.958  14.489  0.00  0.00    +0.000 HD
BRANCH  16  19
ATOM     19  C   UNL     1      48.662   6.398  15.229  0.00  0.00    +0.000 A 
ATOM     20  C   UNL     1      49.664   7.062  15.925  0.00  0.00    +0.000 A 
ATOM     21  S   UNL     1      49.990   6.387  17.459  0.00  0.00    +0.000 S 
ATOM     22  C   UNL     1      48.842   5.152  17.223  0.00  0.00    +0.000 A 
ATOM     23  N   UNL     1      48.650   4.182  18.155  0.00  0.00    +0.000 NA
ATOM     24  C   UNL     1      47.771   3.292  17.828  0.00  0.00    +0.000 A 
ATOM     25  N   UNL     1      47.058   3.294  16.656  0.00  0.00    +0.000 N 
ATOM     26  C   UNL     1      47.191   4.276  15.704  0.00  0.00    +0.000 A 
ATOM     27  O   UNL     1      46.496   4.289  14.695  0.00  0.00    +0.000 OA
ATOM     28  C   UNL     1      48.191   5.279  16.009  0.00  0.00    +0.000 A 
ATOM     29  H   UNL     1      46.367   2.582  16.467  0.00  0.00    +0.000 HD
ENDBRANCH  16  19
ENDBRANCH   1  15
BRANCH   1  30
ATOM     30  C   UNL     1      45.201   8.789  12.828  0.00  0.00    +0.000 C 
BRANCH  30  32
ATOM     31  N   UNL     1      43.630   8.956  10.973  0.00  0.00    +0.000 N 
ATOM     32  C   UNL     1      44.742   9.477  11.568  0.00  0.00    +0.000 C 
ATOM     33  O   UNL     1      45.330  10.429  11.066  0.00  0.00    +0.000 OA
ATOM     34  H   UNL     1      43.387   9.360  10.076  0.00  0.00    +0.000 HD
ATOM     35  H   UNL     1      43.355   7.996  11.137  0.00  0.00    +0.000 HD
ENDBRANCH  30  32
ENDBRANCH   1  30
TORSDOF 7
ENDMDL
MODEL 2
REMARK VINA RESULT:    -8.543      2.579      4.485
REMARK INTER + INTRA:         -13.178
REMARK INTER:                 -11.605
REMARK INTRA:                  -1.573
REMARK UNBOUND:                -1.139
REMARK  Name = 
REMARK  7 active torsions:
REMARK  status: ('A' for Active; 'I' for Inactive)
REMARK    1  A    between atoms: C_2  and  C_4
REMARK    2  A    between atoms: C_4  and  C_5
REMARK    3  A    between atoms: C_5  and  N_6
REMARK    4  A    between atoms: C_5  and  C_19
REMARK    5  A    between atoms: C_7  and  C_9
REMARK    6  A    between atoms: C_22  and  C_23
REMARK    7  A    between atoms: C_23  and  C_24
REMARK                            x       y       z     vdW  Elec       q    Type
REMARK                         _______ _______ _______ _____ _____    ______ ____
ROOT
ATOM      1  C   UNL     1      46.868   5.333  14.099  0.00  0.00    +0.000 C 
ENDROOT
BRANCH   1   2
ATOM      2  C   UNL     1      46.188   4.940  12.789  0.00  0.00    +0.000 A 
ATOM      3  C   UNL     1      46.200   5.803  11.685  0.00  0.00    +0.000 A 
ATOM      4  C   UNL     1      45.622   5.412  10.472  0.00  0.00    +0.000 A 
ATOM      5  C   UNL     1      45.022   4.152  10.337  0.00  0.00    +0.000 A 
ATOM      6  C   UNL     1      45.000   3.295  11.444  0.00  0.00    +0.000 A 
ATOM      7  C   UNL     1      45.573   3.686  12.653  0.00  0.00    +0.000 A 
BRANCH   5   8
ATOM      8  C   UNL     1      44.446   3.701   9.014  0.00  0.00    +0.000 C 
BRANCH   8   9
ATOM      9  C   UNL     1      45.436   2.939   8.160  0.00  0.00    +0.000 A 
ATOM     10  C   UNL     1      45.778   1.614   8.471  0.00  0.00    +0.000 A 
ATOM     11  C   UNL     1      46.721   0.927   7.705  0.00  0.00    +0.000 A 
ATOM     12  C   UNL     1      47.333   1.554   6.622  0.00  0.00    +0.000 A 
ATOM     13  C   UNL     1      46.997   2.868   6.300  0.00  0.00    +0.000 A 
ATOM     14  C   UNL     1      46.055   3.557   7.066  0.00  0.00    +0.000 A 
ENDBRANCH   8   9
ENDBRANCH   5   8
ENDBRANCH   1   2
BRANCH   1  15
ATOM     15  N   UNL     1      48.014   6.177  13.762  0.00  0.00    +0.000 N 
ATOM     16  C   UNL     1      48.009   7.546  13.798  0.00  0.00    +0.000 C 
ATOM     17  O   UNL     1      47.046   8.198  14.187  0.00  0.00    +0.000 OA
ATOM     18  H   UNL     1      48.704   5.731  13.162  0.00  0.00    +0.000 HD
BRANCH  16  19
ATOM     19  C   UNL     1      49.266   8.196  13.406  0.00  0.00    +0.000 A 
ATOM     20  C   UNL     1      49.294   9.063  12.322  0.00  0.00    +0.000 A 
ATOM     21  S   UNL     1      50.834   9.738  12.030  0.00  0.00    +0.000 S 
ATOM     22  C   UNL     1      51.528   8.854  13.307  0.00  0.00    +0.000 A 
ATOM     23  N   UNL     1      52.858   8.931  13.577  0.00  0.00    +0.000 NA
ATOM     24  C   UNL     1      53.251   8.181  14.553  0.00  0.00    +0.000 A 
ATOM     25  N   UNL     1      52.428   7.370  15.294  0.00  0.00    +0.000 N 
ATOM     26  C   UNL     1      51.073   7.290  15.082  0.00  0.00    +0.000 A 
ATOM     27  O   UNL     1      50.351   6.606  15.798  0.00  0.00    +0.000 OA
ATOM     28  C   UNL     1      50.589   8.087  13.974  0.00  0.00    +0.000 A 
ATOM     29  H   UNL     1      52.792   6.823  16.061  0.00  0.00    +0.000 HD
ENDBRANCH  16  19
ENDBRANCH   1  15
BRANCH   1  30
ATOM     30  C   UNL     1      47.261   4.097  14.922  0.00  0.00    +0.000 C 
BRANCH  30  32
ATOM     31  N   UNL     1      47.677   5.475  16.889  0.00  0.00    +0.000 N 
ATOM     32  C   UNL     1      47.115   4.330  16.405  0.00  0.00    +0.000 C 
ATOM     33  O   UNL     1      46.558   3.540  17.160  0.00  0.00    +0.000 OA
ATOM     34  H   UNL     1      47.661   5.575  17.896  0.00  0.00    +0.000 HD
ATOM     35  H   UNL     1      48.427   5.936  16.390  0.00  0.00    +0.000 HD
ENDBRANCH  30  32
ENDBRANCH   1  30
TORSDOF 7
ENDMDL
MODEL 3
REMARK VINA RESULT:    -8.485      1.823      2.500
REMARK INTER + INTRA:         -13.096
REMARK INTER:                 -11.767
REMARK INTRA:                  -1.328
REMARK UNBOUND:                -1.139
REMARK  Name = 
REMARK  7 active torsions:
REMARK  status: ('A' for Active; 'I' for Inactive)
REMARK    1  A    between atoms: C_2  and  C_4
REMARK    2  A    between atoms: C_4  and  C_5
REMARK    3  A    between atoms: C_5  and  N_6
REMARK    4  A    between atoms: C_5  and  C_19
REMARK    5  A    between atoms: C_7  and  C_9
REMARK    6  A    between atoms: C_22  and  C_23
REMARK    7  A    between atoms: C_23  and  C_24
REMARK                            x       y       z     vdW  Elec       q    Type
REMARK                         _______ _______ _______ _____ _____    ______ ____
ROOT
ATOM      1  C   UNL     1      46.836   6.798  13.050  0.00  0.00    +0.000 C 
ENDROOT
BRANCH   1   2
ATOM      2  C   UNL     1      46.167   5.826  12.081  0.00  0.00    +0.000 A 
ATOM      3  C   UNL     1      46.022   6.147  10.725  0.00  0.00    +0.000 A 
ATOM      4  C   UNL     1      45.458   5.228   9.834  0.00  0.00    +0.000 A 
ATOM      5  C   UNL     1      45.030   3.969  10.278  0.00  0.00    +0.000 A 
ATOM      6  C   UNL     1      45.164   3.653  11.635  0.00  0.00    +0.000 A 
ATOM      7  C   UNL     1      45.723   4.571  12.524  0.00  0.00    +0.000 A 
BRANCH   5   8
ATOM      8  C   UNL     1      44.472   2.949   9.311  0.00  0.00    +0.000 C 
BRANCH   8   9
ATOM      9  C   UNL     1      45.457   2.541   8.239  0.00  0.00    +0.000 A 
ATOM     10  C   UNL     1      46.114   1.303   8.304  0.00  0.00    +0.000 A 
ATOM     11  C   UNL     1      47.054   0.946   7.335  0.00  0.00    +0.000 A 
ATOM     12  C   UNL     1      47.346   1.820   6.291  0.00  0.00    +0.000 A 
ATOM     13  C   UNL     1      46.695   3.050   6.211  0.00  0.00    +0.000 A 
ATOM     14  C   UNL     1      45.758   3.410   7.181  0.00  0.00    +0.000 A 
ENDBRANCH   8   9
ENDBRANCH   5   8
ENDBRANCH   1   2
BRANCH   1  15
ATOM     15  N   UNL     1      47.007   6.099  14.324  0.00  0.00    +0.000 N 
ATOM     16  C   UNL     1      48.187   6.020  15.015  0.00  0.00    +0.000 C 
ATOM     17  O   UNL     1      49.208   6.596  14.655  0.00  0.00    +0.000 OA
ATOM     18  H   UNL     1      46.314   5.377  14.505  0.00  0.00    +0.000 HD
BRANCH  16  19
ATOM     19  C   UNL     1      48.139   5.255  16.268  0.00  0.00    +0.000 A 
ATOM     20  C   UNL     1      47.764   3.918  16.254  0.00  0.00    +0.000 A 
ATOM     21  S   UNL     1      47.787   3.189  17.797  0.00  0.00    +0.000 S 
ATOM     22  C   UNL     1      48.245   4.648  18.544  0.00  0.00    +0.000 A 
ATOM     23  N   UNL     1      48.393   4.734  19.892  0.00  0.00    +0.000 NA
ATOM     24  C   UNL     1      48.712   5.910  20.322  0.00  0.00    +0.000 A 
ATOM     25  N   UNL     1      48.910   7.006  19.521  0.00  0.00    +0.000 N 
ATOM     26  C   UNL     1      48.811   6.957  18.152  0.00  0.00    +0.000 A 
ATOM     27  O   UNL     1      49.054   7.934  17.455  0.00  0.00    +0.000 OA
ATOM     28  C   UNL     1      48.420   5.666  17.623  0.00  0.00    +0.000 A 
ATOM     29  H   UNL     1      49.180   7.896  19.915  0.00  0.00    +0.000 HD
ENDBRANCH  16  19
ENDBRANCH   1  15
BRANCH   1  30
ATOM     30  C   UNL     1      46.029   8.099  13.190  0.00  0.00    +0.000 C 
BRANCH  30  32
ATOM     31  N   UNL     1      47.859   9.508  13.965  0.00  0.00    +0.000 N 
ATOM     32  C   UNL     1      46.890   9.325  13.023  0.00  0.00    +0.000 C 
ATOM     33  O   UNL     1      46.732  10.142  12.122  0.00  0.00    +0.000 OA
ATOM     34  H   UNL     1      48.367  10.382  13.902  0.00  0.00    +0.000 HD
ATOM     35  H   UNL     1      47.780   9.084  14.881  0.00  0.00    +0.000 HD
ENDBRANCH  30  32
ENDBRANCH   1  30
TORSDOF 7
ENDMDL
MODEL 4
REMARK VINA RESULT:    -8.474      2.513      4.938
REMARK INTER + INTRA:         -13.080
REMARK INTER:                 -11.155
REMARK INTRA:                  -1.925
REMARK UNBOUND:                -1.139
REMARK  Name = 
REMARK  7 active torsions:
REMARK  status: ('A' for Active; 'I' for Inactive)
REMARK    1  A    between atoms: C_2  and  C_4
REMARK    2  A    between atoms: C_4  and  C_5
REMARK    3  A    between atoms: C_5  and  N_6
REMARK    4  A    between atoms: C_5  and  C_19
REMARK    5  A    between atoms: C_7  and  C_9
REMARK    6  A    between atoms: C_22  and  C_23
REMARK    7  A    between atoms: C_23  and  C_24
REMARK                            x       y       z     vdW  Elec       q    Type
REMARK                         _______ _______ _______ _____ _____    ______ ____
ROOT
ATOM      1  C   UNL     1      47.212   5.356  14.597  0.00  0.00    +0.000 C 
ENDROOT
BRANCH   1   2
ATOM      2  C   UNL     1      46.421   4.993  13.342  0.00  0.00    +0.000 A 
ATOM      3  C   UNL     1      46.283   5.906  12.288  0.00  0.00    +0.000 A 
ATOM      4  C   UNL     1      45.602   5.544  11.120  0.00  0.00    +0.000 A 
ATOM      5  C   UNL     1      45.048   4.264  10.981  0.00  0.00    +0.000 A 
ATOM      6  C   UNL     1      45.176   3.357  12.038  0.00  0.00    +0.000 A 
ATOM      7  C   UNL     1      45.851   3.718  13.204  0.00  0.00    +0.000 A 
BRANCH   5   8
ATOM      8  C   UNL     1      44.361   3.847   9.700  0.00  0.00    +0.000 C 
BRANCH   8   9
ATOM      9  C   UNL     1      45.290   3.170   8.717  0.00  0.00    +0.000 A 
ATOM     10  C   UNL     1      45.516   1.786   8.782  0.00  0.00    +0.000 A 
ATOM     11  C   UNL     1      46.405   1.170   7.899  0.00  0.00    +0.000 A 
ATOM     12  C   UNL     1      47.077   1.927   6.943  0.00  0.00    +0.000 A 
ATOM     13  C   UNL     1      46.856   3.301   6.863  0.00  0.00    +0.000 A 
ATOM     14  C   UNL     1      45.970   3.920   7.747  0.00  0.00    +0.000 A 
ENDBRANCH   8   9
ENDBRANCH   5   8
ENDBRANCH   1   2
BRANCH   1  15
ATOM     15  N   UNL     1      48.350   6.173  14.175  0.00  0.00    +0.000 N 
ATOM     16  C   UNL     1      48.895   7.190  14.914  0.00  0.00    +0.000 C 
ATOM     17  O   UNL     1      48.511   7.469  16.045  0.00  0.00    +0.000 OA
ATOM     18  H   UNL     1      48.503   6.197  13.170  0.00  0.00    +0.000 HD
BRANCH  16  19
ATOM     19  C   UNL     1      50.027   7.890  14.294  0.00  0.00    +0.000 A 
ATOM     20  C   UNL     1      51.294   7.797  14.854  0.00  0.00    +0.000 A 
ATOM     21  S   UNL     1      52.486   8.659  13.987  0.00  0.00    +0.000 S 
ATOM     22  C   UNL     1      51.340   9.230  12.866  0.00  0.00    +0.000 A 
ATOM     23  N   UNL     1      51.695  10.078  11.866  0.00  0.00    +0.000 NA
ATOM     24  C   UNL     1      50.716  10.455  11.111  0.00  0.00    +0.000 A 
ATOM     25  N   UNL     1      49.415  10.047  11.259  0.00  0.00    +0.000 N 
ATOM     26  C   UNL     1      49.018   9.160  12.230  0.00  0.00    +0.000 A 
ATOM     27  O   UNL     1      47.861   8.762  12.302  0.00  0.00    +0.000 OA
ATOM     28  C   UNL     1      50.074   8.735  13.126  0.00  0.00    +0.000 A 
ATOM     29  H   UNL     1      48.697  10.360  10.621  0.00  0.00    +0.000 HD
ENDBRANCH  16  19
ENDBRANCH   1  15
BRANCH   1  30
ATOM     30  C   UNL     1      47.636   4.104  15.379  0.00  0.00    +0.000 C 
BRANCH  30  32
ATOM     31  N   UNL     1      47.253   5.260  17.489  0.00  0.00    +0.000 N 
ATOM     32  C   UNL     1      47.096   4.101  16.786  0.00  0.00    +0.000 C 
ATOM     33  O   UNL     1      46.571   3.121  17.306  0.00  0.00    +0.000 OA
ATOM     34  H   UNL     1      46.977   5.218  18.463  0.00  0.00    +0.000 HD
ATOM     35  H   UNL     1      47.974   5.924  17.240  0.00  0.00    +0.000 HD
ENDBRANCH  30  32
ENDBRANCH   1  30
TORSDOF 7
ENDMDL
MODEL 5
REMARK VINA RESULT:    -8.446      2.546      4.663
REMARK INTER + INTRA:         -13.040
REMARK INTER:                 -11.809
REMARK INTRA:                  -1.232
REMARK UNBOUND:                -1.139
REMARK  Name = 
REMARK  7 active torsions:
REMARK  status: ('A' for Active; 'I' for Inactive)
REMARK    1  A    between atoms: C_2  and  C_4
REMARK    2  A    between atoms: C_4  and  C_5
REMARK    3  A    between atoms: C_5  and  N_6
REMARK    4  A    between atoms: C_5  and  C_19
REMARK    5  A    between atoms: C_7  and  C_9
REMARK    6  A    between atoms: C_22  and  C_23
REMARK    7  A    between atoms: C_23  and  C_24
REMARK                            x       y       z     vdW  Elec       q    Type
REMARK                         _______ _______ _______ _____ _____    ______ ____
ROOT
ATOM      1  C   UNL     1      46.304   5.478  13.926  0.00  0.00    +0.000 C 
ENDROOT
BRANCH   1   2
ATOM      2  C   UNL     1      45.757   4.938  12.606  0.00  0.00    +0.000 A 
ATOM      3  C   UNL     1      45.682   5.755  11.470  0.00  0.00    +0.000 A 
ATOM      4  C   UNL     1      45.231   5.237  10.251  0.00  0.00    +0.000 A 
ATOM      5  C   UNL     1      44.847   3.892  10.142  0.00  0.00    +0.000 A 
ATOM      6  C   UNL     1      44.911   3.080  11.280  0.00  0.00    +0.000 A 
ATOM      7  C   UNL     1      45.357   3.597  12.496  0.00  0.00    +0.000 A 
BRANCH   5   8
ATOM      8  C   UNL     1      44.413   3.311   8.816  0.00  0.00    +0.000 C 
BRANCH   8   9
ATOM      9  C   UNL     1      45.559   2.744   8.007  0.00  0.00    +0.000 A 
ATOM     10  C   UNL     1      46.027   1.443   8.244  0.00  0.00    +0.000 A 
ATOM     11  C   UNL     1      47.111   0.937   7.524  0.00  0.00    +0.000 A 
ATOM     12  C   UNL     1      47.739   1.724   6.562  0.00  0.00    +0.000 A 
ATOM     13  C   UNL     1      47.279   3.016   6.313  0.00  0.00    +0.000 A 
ATOM     14  C   UNL     1      46.197   3.525   7.033  0.00  0.00    +0.000 A 
ENDBRANCH   8   9
ENDBRANCH   5   8
ENDBRANCH   1   2
BRANCH   1  15
ATOM     15  N   UNL     1      46.874   6.798  13.656  0.00  0.00    +0.000 N 
ATOM     16  C   UNL     1      48.151   7.019  13.213  0.00  0.00    +0.000 C 
ATOM     17  O   UNL     1      48.924   6.108  12.935  0.00  0.00    +0.000 OA
ATOM     18  H   UNL     1      46.413   7.564  14.142  0.00  0.00    +0.000 HD
BRANCH  16  19
ATOM     19  C   UNL     1      48.523   8.426  13.021  0.00  0.00    +0.000 A 
ATOM     20  C   UNL     1      48.818   8.901  11.750  0.00  0.00    +0.000 A 
ATOM     21  S   UNL     1      49.208  10.562  11.718  0.00  0.00    +0.000 S 
ATOM     22  C   UNL     1      49.050  10.691  13.407  0.00  0.00    +0.000 A 
ATOM     23  N   UNL     1      49.301  11.861  14.051  0.00  0.00    +0.000 NA
ATOM     24  C   UNL     1      49.173  11.804  15.336  0.00  0.00    +0.000 A 
ATOM     25  N   UNL     1      48.802  10.682  16.033  0.00  0.00    +0.000 N 
ATOM     26  C   UNL     1      48.501   9.489  15.421  0.00  0.00    +0.000 A 
ATOM     27  O   UNL     1      48.111   8.520  16.061  0.00  0.00    +0.000 OA
ATOM     28  C   UNL     1      48.664   9.493  13.982  0.00  0.00    +0.000 A 
ATOM     29  H   UNL     1      48.698  10.705  17.038  0.00  0.00    +0.000 HD
ENDBRANCH  16  19
ENDBRANCH   1  15
BRANCH   1  30
ATOM     30  C   UNL     1      47.318   4.509  14.554  0.00  0.00    +0.000 C 
BRANCH  30  32
ATOM     31  N   UNL     1      47.872   5.486  16.717  0.00  0.00    +0.000 N 
ATOM     32  C   UNL     1      47.223   4.483  16.059  0.00  0.00    +0.000 C 
ATOM     33  O   UNL     1      46.631   3.607  16.682  0.00  0.00    +0.000 OA
ATOM     34  H   UNL     1      47.886   5.405  17.726  0.00  0.00    +0.000 HD
ATOM     35  H   UNL     1      48.639   5.981  16.281  0.00  0.00    +0.000 HD
ENDBRANCH  30  32
ENDBRANCH   1  30
TORSDOF 7
ENDMDL
MODEL 6
REMARK VINA RESULT:    -8.166      3.937      9.620
REMARK INTER + INTRA:         -12.647
REMARK INTER:                 -11.019
REMARK INTRA:                  -1.627
REMARK UNBOUND:                -1.139
REMARK  Name = 
REMARK  7 active torsions:
REMARK  status: ('A' for Active; 'I' for Inactive)
REMARK    1  A    between atoms: C_2  and  C_4
REMARK    2  A    between atoms: C_4  and  C_5
REMARK    3  A    between atoms: C_5  and  N_6
REMARK    4  A    between atoms: C_5  and  C_19
REMARK    5  A    between atoms: C_7  and  C_9
REMARK    6  A    between atoms: C_22  and  C_23
REMARK    7  A    between atoms: C_23  and  C_24
REMARK                            x       y       z     vdW  Elec       q    Type
REMARK                         _______ _______ _______ _____ _____    ______ ____
ROOT
ATOM      1  C   UNL     1      48.186   4.652  16.244  0.00  0.00    +0.000 C 
ENDROOT
BRANCH   1   2
ATOM      2  C   UNL     1      48.169   5.648  17.401  0.00  0.00    +0.000 A 
ATOM      3  C   UNL     1      47.330   5.454  18.506  0.00  0.00    +0.000 A 
ATOM      4  C   UNL     1      47.360   6.343  19.586  0.00  0.00    +0.000 A 
ATOM      5  C   UNL     1      48.231   7.442  19.585  0.00  0.00    +0.000 A 
ATOM      6  C   UNL     1      49.061   7.642  18.476  0.00  0.00    +0.000 A 
ATOM      7  C   UNL     1      49.028   6.758  17.398  0.00  0.00    +0.000 A 
BRANCH   5   8
ATOM      8  C   UNL     1      48.311   8.374  20.773  0.00  0.00    +0.000 C 
BRANCH   8   9
ATOM      9  C   UNL     1      47.263   9.465  20.748  0.00  0.00    +0.000 A 
ATOM     10  C   UNL     1      47.203  10.375  19.682  0.00  0.00    +0.000 A 
ATOM     11  C   UNL     1      46.261  11.406  19.681  0.00  0.00    +0.000 A 
ATOM     12  C   UNL     1      45.369  11.537  20.743  0.00  0.00    +0.000 A 
ATOM     13  C   UNL     1      45.414  10.635  21.805  0.00  0.00    +0.000 A 
ATOM     14  C   UNL     1      46.357   9.606  21.809  0.00  0.00    +0.000 A 
ENDBRANCH   8   9
ENDBRANCH   5   8
ENDBRANCH   1   2
BRANCH   1  15
ATOM     15  N   UNL     1      47.237   5.131  15.239  0.00  0.00    +0.000 N 
ATOM     16  C   UNL     1      47.582   5.824  14.109  0.00  0.00    +0.000 C 
ATOM     17  O   UNL     1      48.747   6.052  13.800  0.00  0.00    +0.000 OA
ATOM     18  H   UNL     1      46.284   5.243  15.578  0.00  0.00    +0.000 HD
BRANCH  16  19
ATOM     19  C   UNL     1      46.467   6.222  13.242  0.00  0.00    +0.000 A 
ATOM     20  C   UNL     1      46.262   7.562  12.941  0.00  0.00    +0.000 A 
ATOM     21  S   UNL     1      44.933   7.831  11.904  0.00  0.00    +0.000 S 
ATOM     22  C   UNL     1      44.553   6.173  11.865  0.00  0.00    +0.000 A 
ATOM     23  N   UNL     1      43.471   5.714  11.183  0.00  0.00    +0.000 NA
ATOM     24  C   UNL     1      43.287   4.438  11.269  0.00  0.00    +0.000 A 
ATOM     25  N   UNL     1      44.097   3.577  11.965  0.00  0.00    +0.000 N 
ATOM     26  C   UNL     1      45.223   3.991  12.635  0.00  0.00    +0.000 A 
ATOM     27  O   UNL     1      45.965   3.194  13.197  0.00  0.00    +0.000 OA
ATOM     28  C   UNL     1      45.453   5.421  12.599  0.00  0.00    +0.000 A 
ATOM     29  H   UNL     1      43.913   2.584  11.976  0.00  0.00    +0.000 HD
ENDBRANCH  16  19
ENDBRANCH   1  15
BRANCH   1  30
ATOM     30  C   UNL     1      47.875   3.226  16.723  0.00  0.00    +0.000 C 
BRANCH  30  32
ATOM     31  N   UNL     1      49.836   2.540  17.996  0.00  0.00    +0.000 N 
ATOM     32  C   UNL     1      49.119   2.383  16.847  0.00  0.00    +0.000 C 
ATOM     33  O   UNL     1      49.505   1.617  15.970  0.00  0.00    +0.000 OA
ATOM     34  H   UNL     1      50.719   2.045  18.029  0.00  0.00    +0.000 HD
ATOM     35  H   UNL     1      49.760   3.387  18.544  0.00  0.00    +0.000 HD
ENDBRANCH  30  32
ENDBRANCH   1  30
TORSDOF 7
ENDMDL
MODEL 7
REMARK VINA RESULT:    -7.946      4.262      9.550
REMARK INTER + INTRA:         -12.336
REMARK INTER:                 -10.309
REMARK INTRA:                  -2.027
REMARK UNBOUND:                -1.139
REMARK  Name = 
REMARK  7 active torsions:
REMARK  status: ('A' for Active; 'I' for Inactive)
REMARK    1  A    between atoms: C_2  and  C_4
REMARK    2  A    between atoms: C_4  and  C_5
REMARK    3  A    between atoms: C_5  and  N_6
REMARK    4  A    between atoms: C_5  and  C_19
REMARK    5  A    between atoms: C_7  and  C_9
REMARK    6  A    between atoms: C_22  and  C_23
REMARK    7  A    between atoms: C_23  and  C_24
REMARK                            x       y       z     vdW  Elec       q    Type
REMARK                         _______ _______ _______ _____ _____    ______ ____
ROOT
ATOM      1  C   UNL     1      48.829   5.688  16.840  0.00  0.00    +0.000 C 
ENDROOT
BRANCH   1   2
ATOM      2  C   UNL     1      48.598   6.892  17.750  0.00  0.00    +0.000 A 
ATOM      3  C   UNL     1      47.814   6.781  18.906  0.00  0.00    +0.000 A 
ATOM      4  C   UNL     1      47.653   7.875  19.763  0.00  0.00    +0.000 A 
ATOM      5  C   UNL     1      48.273   9.101  19.484  0.00  0.00    +0.000 A 
ATOM      6  C   UNL     1      49.047   9.215  18.323  0.00  0.00    +0.000 A 
ATOM      7  C   UNL     1      49.204   8.126  17.467  0.00  0.00    +0.000 A 
BRANCH   5   8
ATOM      8  C   UNL     1      48.150  10.271  20.434  0.00  0.00    +0.000 C 
BRANCH   8   9
ATOM      9  C   UNL     1      46.819  10.983  20.336  0.00  0.00    +0.000 A 
ATOM     10  C   UNL     1      46.678  12.131  19.542  0.00  0.00    +0.000 A 
ATOM     11  C   UNL     1      45.459  12.809  19.485  0.00  0.00    +0.000 A 
ATOM     12  C   UNL     1      44.369  12.349  20.220  0.00  0.00    +0.000 A 
ATOM     13  C   UNL     1      44.495  11.206  21.009  0.00  0.00    +0.000 A 
ATOM     14  C   UNL     1      45.713  10.528  21.068  0.00  0.00    +0.000 A 
ENDBRANCH   8   9
ENDBRANCH   5   8
ENDBRANCH   1   2
BRANCH   1  15
ATOM     15  N   UNL     1      47.829   5.747  15.773  0.00  0.00    +0.000 N 
ATOM     16  C   UNL     1      48.071   6.201  14.504  0.00  0.00    +0.000 C 
ATOM     17  O   UNL     1      49.185   6.542  14.121  0.00  0.00    +0.000 OA
ATOM     18  H   UNL     1      46.865   5.773  16.099  0.00  0.00    +0.000 HD
BRANCH  16  19
ATOM     19  C   UNL     1      46.919   6.186  13.594  0.00  0.00    +0.000 A 
ATOM     20  C   UNL     1      46.365   7.380  13.152  0.00  0.00    +0.000 A 
ATOM     21  S   UNL     1      45.048   7.167  12.087  0.00  0.00    +0.000 S 
ATOM     22  C   UNL     1      45.139   5.473  12.222  0.00  0.00    +0.000 A 
ATOM     23  N   UNL     1      44.247   4.667  11.587  0.00  0.00    +0.000 NA
ATOM     24  C   UNL     1      44.417   3.405  11.806  0.00  0.00    +0.000 A 
ATOM     25  N   UNL     1      45.408   2.876  12.593  0.00  0.00    +0.000 N 
ATOM     26  C   UNL     1      46.354   3.649  13.221  0.00  0.00    +0.000 A 
ATOM     27  O   UNL     1      47.267   3.148  13.867  0.00  0.00    +0.000 OA
ATOM     28  C   UNL     1      46.185   5.076  13.035  0.00  0.00    +0.000 A 
ATOM     29  H   UNL     1      45.502   1.877  12.708  0.00  0.00    +0.000 HD
ENDBRANCH  16  19
ENDBRANCH   1  15
BRANCH   1  30
ATOM     30  C   UNL     1      48.782   4.369  17.627  0.00  0.00    +0.000 C 
BRANCH  30  32
ATOM     31  N   UNL     1      48.374   2.347  16.330  0.00  0.00    +0.000 N 
ATOM     32  C   UNL     1      47.816   3.380  17.024  0.00  0.00    +0.000 C 
ATOM     33  O   UNL     1      46.597   3.490  17.109  0.00  0.00    +0.000 OA
ATOM     34  H   UNL     1      47.719   1.744  15.846  0.00  0.00    +0.000 HD
ATOM     35  H   UNL     1      49.305   2.425  15.941  0.00  0.00    +0.000 HD
ENDBRANCH  30  32
ENDBRANCH   1  30
TORSDOF 7
ENDMDL
MODEL 8
REMARK VINA RESULT:    -7.915      2.494      3.310
REMARK INTER + INTRA:         -12.292
REMARK INTER:                 -10.641
REMARK INTRA:                  -1.652
REMARK UNBOUND:                -1.139
REMARK  Name = 
REMARK  7 active torsions:
REMARK  status: ('A' for Active; 'I' for Inactive)
REMARK    1  A    between atoms: C_2  and  C_4
REMARK    2  A    between atoms: C_4  and  C_5
REMARK    3  A    between atoms: C_5  and  N_6
REMARK    4  A    between atoms: C_5  and  C_19
REMARK    5  A    between atoms: C_7  and  C_9
REMARK    6  A    between atoms: C_22  and  C_23
REMARK    7  A    between atoms: C_23  and  C_24
REMARK                            x       y       z     vdW  Elec       q    Type
REMARK                         _______ _______ _______ _____ _____    ______ ____
ROOT
ATOM      1  C   UNL     1      48.077   7.246  14.086  0.00  0.00    +0.000 C 
ENDROOT
BRANCH   1   2
ATOM      2  C   UNL     1      47.183   6.520  13.083  0.00  0.00    +0.000 A 
ATOM      3  C   UNL     1      46.519   5.338  13.436  0.00  0.00    +0.000 A 
ATOM      4  C   UNL     1      45.659   4.709  12.529  0.00  0.00    +0.000 A 
ATOM      5  C   UNL     1      45.444   5.249  11.253  0.00  0.00    +0.000 A 
ATOM      6  C   UNL     1      46.116   6.423  10.897  0.00  0.00    +0.000 A 
ATOM      7  C   UNL     1      46.976   7.048  11.800  0.00  0.00    +0.000 A 
BRANCH   5   8
ATOM      8  C   UNL     1      44.473   4.606  10.288  0.00  0.00    +0.000 C 
BRANCH   8   9
ATOM      9  C   UNL     1      45.149   3.743   9.246  0.00  0.00    +0.000 A 
ATOM     10  C   UNL     1      45.175   2.346   9.381  0.00  0.00    +0.000 A 
ATOM     11  C   UNL     1      45.835   1.555   8.439  0.00  0.00    +0.000 A 
ATOM     12  C   UNL     1      46.474   2.148   7.353  0.00  0.00    +0.000 A 
ATOM     13  C   UNL     1      46.449   3.534   7.204  0.00  0.00    +0.000 A 
ATOM     14  C   UNL     1      45.792   4.327   8.146  0.00  0.00    +0.000 A 
ENDBRANCH   8   9
ENDBRANCH   5   8
ENDBRANCH   1   2
BRANCH   1  15
ATOM     15  N   UNL     1      48.075   6.464  15.322  0.00  0.00    +0.000 N 
ATOM     16  C   UNL     1      49.199   6.107  16.019  0.00  0.00    +0.000 C 
ATOM     17  O   UNL     1      50.324   6.475  15.698  0.00  0.00    +0.000 OA
ATOM     18  H   UNL     1      47.244   5.894  15.459  0.00  0.00    +0.000 HD
BRANCH  16  19
ATOM     19  C   UNL     1      48.969   5.308  17.229  0.00  0.00    +0.000 A 
ATOM     20  C   UNL     1      48.721   3.945  17.127  0.00  0.00    +0.000 A 
ATOM     21  S   UNL     1      48.499   3.179  18.636  0.00  0.00    +0.000 S 
ATOM     22  C   UNL     1      48.671   4.650  19.473  0.00  0.00    +0.000 A 
ATOM     23  N   UNL     1      48.540   4.712  20.824  0.00  0.00    +0.000 NA
ATOM     24  C   UNL     1      48.663   5.898  21.321  0.00  0.00    +0.000 A 
ATOM     25  N   UNL     1      48.921   7.029  20.587  0.00  0.00    +0.000 N 
ATOM     26  C   UNL     1      49.101   7.008  19.225  0.00  0.00    +0.000 A 
ATOM     27  O   UNL     1      49.393   8.021  18.601  0.00  0.00    +0.000 OA
ATOM     28  C   UNL     1      48.937   5.703  18.616  0.00  0.00    +0.000 A 
ATOM     29  H   UNL     1      49.029   7.926  21.037  0.00  0.00    +0.000 HD
ENDBRANCH  16  19
ENDBRANCH   1  15
BRANCH   1  30
ATOM     30  C   UNL     1      47.620   8.698  14.300  0.00  0.00    +0.000 C 
BRANCH  30  32
ATOM     31  N   UNL     1      47.626   9.573  16.574  0.00  0.00    +0.000 N 
ATOM     32  C   UNL     1      48.352   9.363  15.438  0.00  0.00    +0.000 C 
ATOM     33  O   UNL     1      49.519   9.733  15.365  0.00  0.00    +0.000 OA
ATOM     34  H   UNL     1      48.094  10.108  17.296  0.00  0.00    +0.000 HD
ATOM     35  H   UNL     1      46.616   9.623  16.543  0.00  0.00    +0.000 HD
ENDBRANCH  30  32
ENDBRANCH   1  30
TORSDOF 7
ENDMDL
MODEL 9
REMARK VINA RESULT:    -7.772      3.885      9.761
REMARK INTER + INTRA:         -12.092
REMARK INTER:                 -10.613
REMARK INTRA:                  -1.479
REMARK UNBOUND:                -1.139
REMARK  Name = 
REMARK  7 active torsions:
REMARK  status: ('A' for Active; 'I' for Inactive)
REMARK    1  A    between atoms: C_2  and  C_4
REMARK    2  A    between atoms: C_4  and  C_5
REMARK    3  A    between atoms: C_5  and  N_6
REMARK    4  A    between atoms: C_5  and  C_19
REMARK    5  A    between atoms: C_7  and  C_9
REMARK    6  A    between atoms: C_22  and  C_23
REMARK    7  A    between atoms: C_23  and  C_24
REMARK                            x       y       z     vdW  Elec       q    Type
REMARK                         _______ _______ _______ _____ _____    ______ ____
ROOT
ATOM      1  C   UNL     1      48.042   4.586  16.378  0.00  0.00    +0.000 C 
ENDROOT
BRANCH   1   2
ATOM      2  C   UNL     1      48.048   5.661  17.461  0.00  0.00    +0.000 A 
ATOM      3  C   UNL     1      47.351   5.475  18.663  0.00  0.00    +0.000 A 
ATOM      4  C   UNL     1      47.407   6.442  19.673  0.00  0.00    +0.000 A 
ATOM      5  C   UNL     1      48.160   7.613  19.503  0.00  0.00    +0.000 A 
ATOM      6  C   UNL     1      48.846   7.803  18.299  0.00  0.00    +0.000 A 
ATOM      7  C   UNL     1      48.788   6.841  17.291  0.00  0.00    +0.000 A 
BRANCH   5   8
ATOM      8  C   UNL     1      48.271   8.636  20.612  0.00  0.00    +0.000 C 
BRANCH   8   9
ATOM      9  C   UNL     1      47.272   9.765  20.485  0.00  0.00    +0.000 A 
ATOM     10  C   UNL     1      47.416  10.740  19.486  0.00  0.00    +0.000 A 
ATOM     11  C   UNL     1      46.516  11.803  19.397  0.00  0.00    +0.000 A 
ATOM     12  C   UNL     1      45.462  11.904  20.302  0.00  0.00    +0.000 A 
ATOM     13  C   UNL     1      45.304  10.938  21.295  0.00  0.00    +0.000 A 
ATOM     14  C   UNL     1      46.205   9.876  21.388  0.00  0.00    +0.000 A 
ENDBRANCH   8   9
ENDBRANCH   5   8
ENDBRANCH   1   2
BRANCH   1  15
ATOM     15  N   UNL     1      47.002   4.942  15.413  0.00  0.00    +0.000 N 
ATOM     16  C   UNL     1      46.846   4.356  14.184  0.00  0.00    +0.000 C 
ATOM     17  O   UNL     1      47.538   3.417  13.803  0.00  0.00    +0.000 OA
ATOM     18  H   UNL     1      46.616   5.875  15.533  0.00  0.00    +0.000 HD
BRANCH  16  19
ATOM     19  C   UNL     1      45.743   4.876  13.367  0.00  0.00    +0.000 A 
ATOM     20  C   UNL     1      44.689   4.046  13.010  0.00  0.00    +0.000 A 
ATOM     21  S   UNL     1      43.491   4.828  12.079  0.00  0.00    +0.000 S 
ATOM     22  C   UNL     1      44.366   6.288  12.075  0.00  0.00    +0.000 A 
ATOM     23  N   UNL     1      43.916   7.378  11.399  0.00  0.00    +0.000 NA
ATOM     24  C   UNL     1      44.698   8.405  11.456  0.00  0.00    +0.000 A 
ATOM     25  N   UNL     1      45.886   8.443  12.143  0.00  0.00    +0.000 N 
ATOM     26  C   UNL     1      46.360   7.380  12.872  0.00  0.00    +0.000 A 
ATOM     27  O   UNL     1      47.392   7.461  13.528  0.00  0.00    +0.000 OA
ATOM     28  C   UNL     1      45.534   6.191  12.809  0.00  0.00    +0.000 A 
ATOM     29  H   UNL     1      46.444   9.285  12.169  0.00  0.00    +0.000 HD
ENDBRANCH  16  19
ENDBRANCH   1  15
BRANCH   1  30
ATOM     30  C   UNL     1      47.844   3.184  16.975  0.00  0.00    +0.000 C 
BRANCH  30  32
ATOM     31  N   UNL     1      49.934   2.497  18.022  0.00  0.00    +0.000 N 
ATOM     32  C   UNL     1      49.111   2.367  16.942  0.00  0.00    +0.000 C 
ATOM     33  O   UNL     1      49.424   1.645  16.001  0.00  0.00    +0.000 OA
ATOM     34  H   UNL     1      50.826   2.023  17.948  0.00  0.00    +0.000 HD
ATOM     35  H   UNL     1      49.895   3.320  18.609  0.00  0.00    +0.000 HD
ENDBRANCH  30  32
ENDBRANCH   1  30
TORSDOF 7
ENDMDL
