MODEL 1
REMARK VINA RESULT:    -8.165      0.000      0.000
REMARK INTER + INTRA:         -12.064
REMARK INTER:                 -11.029
REMARK INTRA:                  -1.036
REMARK UNBOUND:                -1.036
REMARK  Name = 
REMARK  6 active torsions:
REMARK  status: ('A' for Active; 'I' for Inactive)
REMARK    1  A    between atoms: C_2  and  C_4
REMARK    2  A    between atoms: C_7  and  C_8
REMARK    3  A    between atoms: C_8  and  N_9
REMARK    4  A    between atoms: C_16  and  C_17
REMARK    5  A    between atoms: C_17  and  N_18
REMARK    6  A    between atoms: C_19  and  C_21
REMARK                            x       y       z     vdW  Elec       q    Type
REMARK                         _______ _______ _______ _____ _____    ______ ____
ROOT
ATOM      1  C   UNL     1      43.625   4.462  11.515  0.00  0.00    +0.000 A 
ATOM      2  C   UNL     1      43.133   3.159  11.329  0.00  0.00    +0.000 A 
ATOM      3  C   UNL     1      43.764   2.279  10.453  0.00  0.00    +0.000 A 
ATOM      4  C   UNL     1      44.877   2.691   9.719  0.00  0.00    +0.000 A 
ATOM      5  C   UNL     1      45.362   3.995   9.894  0.00  0.00    +0.000 A 
ATOM      6  C   UNL     1      44.764   4.890  10.802  0.00  0.00    +0.000 A 
ENDROOT
BRANCH   1   8
ATOM      7  N   UNL     1      41.915   6.155  11.874  0.00  0.00    +0.000 N 
ATOM      8  C   UNL     1      42.882   5.368  12.440  0.00  0.00    +0.000 C 
ATOM      9  O   UNL     1      43.117   5.415  13.639  0.00  0.00    +0.000 OA
ATOM     10  H   UNL     1      41.388   6.762  12.489  0.00  0.00    +0.000 HD
ATOM     11  H   UNL     1      41.599   6.047  10.923  0.00  0.00    +0.000 HD
ENDBRANCH   1   8
BRANCH   4  12
ATOM     12  C   UNL     1      45.571   1.731   8.783  0.00  0.00    +0.000 C 
BRANCH  12  13
ATOM     13  N   UNL     1      46.582   2.358   7.901  0.00  0.00    +0.000 NA
ATOM     14  C   UNL     1      47.437   1.324   7.291  0.00  0.00    +0.000 C 
ATOM     15  C   UNL     1      48.325   1.842   6.157  0.00  0.00    +0.000 C 
ATOM     16  C   UNL     1      47.497   2.568   5.109  0.00  0.00    +0.000 C 
ATOM     17  C   UNL     1      46.747   3.708   5.776  0.00  0.00    +0.000 C 
ATOM     18  C   UNL     1      45.871   3.188   6.913  0.00  0.00    +0.000 C 
ENDBRANCH  12  13
ENDBRANCH   4  12
BRANCH   6  19
ATOM     19  C   UNL     1      45.378   6.257  10.947  0.00  0.00    +0.000 C 
BRANCH  19  20
ATOM     20  N   UNL     1      46.072   6.392  12.199  0.00  0.00    +0.000 N 
ATOM     21  C   UNL     1      47.406   6.685  12.303  0.00  0.00    +0.000 C 
ATOM     22  O   UNL     1      48.104   6.985  11.338  0.00  0.00    +0.000 OA
ATOM     23  H   UNL     1      45.535   6.124  13.014  0.00  0.00    +0.000 HD
BRANCH  21  24
ATOM     24  C   UNL     1      47.936   6.679  13.667  0.00  0.00    +0.000 A 
ATOM     25  C   UNL     1      48.778   7.690  14.105  0.00  0.00    +0.000 A 
ATOM     26  S   UNL     1      49.237   7.523  15.742  0.00  0.00    +0.000 S 
ATOM     27  C   UNL     1      48.369   6.066  15.897  0.00  0.00    +0.000 A 
ATOM     28  N   UNL     1      48.353   5.378  17.071  0.00  0.00    +0.000 NA
ATOM     29  C   UNL     1      47.675   4.279  17.033  0.00  0.00    +0.000 A 
ATOM     30  N   UNL     1      47.017   3.803  15.928  0.00  0.00    +0.000 N 
ATOM     31  C   UNL     1      47.017   4.456  14.719  0.00  0.00    +0.000 A 
ATOM     32  O   UNL     1      46.448   3.977  13.746  0.00  0.00    +0.000 OA
ATOM     33  C   UNL     1      47.740   5.713  14.717  0.00  0.00    +0.000 A 
ATOM     34  H   UNL     1      46.514   2.928  15.956  0.00  0.00    +0.000 HD
ENDBRANCH  21  24
ENDBRANCH  19  20
ENDBRANCH   6  19
TORSDOF 6
ENDMDL
MODEL 2
REMARK VINA RESULT:    -8.079      3.881      9.555
REMARK INTER + INTRA:         -11.948
REMARK INTER:                 -11.155
REMARK INTRA:                  -0.793
REMARK UNBOUND:                -1.036
REMARK  Name = 
REMARK  6 active torsions:
REMARK  status: ('A' for Active; 'I' for Inactive)
REMARK    1  A    between atoms: C_2  and  C_4
REMARK    2  A    between atoms: C_7  and  C_8
REMARK    3  A    between atoms: C_8  and  N_9
REMARK    4  A    between atoms: C_16  and  C_17
REMARK    5  A    between atoms: C_17  and  N_18
REMARK    6  A    between atoms: C_19  and  C_21
REMARK                            x       y       z     vdW  Elec       q    Type
REMARK                         _______ _______ _______ _____ _____    ______ ____
ROOT
ATOM      1  C   UNL     1      49.904   3.469  17.414  0.00  0.00    +0.000 A 
ATOM      2  C   UNL     1      50.997   4.112  18.019  0.00  0.00    +0.000 A 
ATOM      3  C   UNL     1      50.889   5.425  18.472  0.00  0.00    +0.000 A 
ATOM      4  C   UNL     1      49.699   6.133  18.301  0.00  0.00    +0.000 A 
ATOM      5  C   UNL     1      48.610   5.497  17.687  0.00  0.00    +0.000 A 
ATOM      6  C   UNL     1      48.685   4.159  17.256  0.00  0.00    +0.000 A 
ENDROOT
BRANCH   1   8
ATOM      7  N   UNL     1      50.850   1.246  17.705  0.00  0.00    +0.000 N 
ATOM      8  C   UNL     1      50.096   2.074  16.917  0.00  0.00    +0.000 C 
ATOM      9  O   UNL     1      49.612   1.682  15.864  0.00  0.00    +0.000 OA
ATOM     10  H   UNL     1      50.975   0.292  17.393  0.00  0.00    +0.000 HD
ATOM     11  H   UNL     1      51.148   1.488  18.637  0.00  0.00    +0.000 HD
ENDBRANCH   1   8
BRANCH   4  12
ATOM     12  C   UNL     1      49.577   7.550  18.808  0.00  0.00    +0.000 C 
BRANCH  12  13
ATOM     13  N   UNL     1      48.301   7.845  19.501  0.00  0.00    +0.000 NA
ATOM     14  C   UNL     1      48.444   7.615  20.950  0.00  0.00    +0.000 C 
ATOM     15  C   UNL     1      47.277   8.153  21.782  0.00  0.00    +0.000 C 
ATOM     16  C   UNL     1      47.023   9.620  21.474  0.00  0.00    +0.000 C 
ATOM     17  C   UNL     1      46.746   9.771  19.988  0.00  0.00    +0.000 C 
ATOM     18  C   UNL     1      47.908   9.224  19.162  0.00  0.00    +0.000 C 
ENDBRANCH  12  13
ENDBRANCH   4  12
BRANCH   6  19
ATOM     19  C   UNL     1      47.452   3.551  16.641  0.00  0.00    +0.000 C 
BRANCH  19  20
ATOM     20  N   UNL     1      46.854   4.434  15.678  0.00  0.00    +0.000 N 
ATOM     21  C   UNL     1      46.858   4.205  14.328  0.00  0.00    +0.000 C 
ATOM     22  O   UNL     1      47.264   3.159  13.826  0.00  0.00    +0.000 OA
ATOM     23  H   UNL     1      46.535   5.319  16.052  0.00  0.00    +0.000 HD
BRANCH  21  24
ATOM     24  C   UNL     1      46.282   5.277  13.516  0.00  0.00    +0.000 A 
ATOM     25  C   UNL     1      46.929   6.496  13.387  0.00  0.00    +0.000 A 
ATOM     26  S   UNL     1      46.117   7.586  12.354  0.00  0.00    +0.000 S 
ATOM     27  C   UNL     1      44.847   6.481  12.091  0.00  0.00    +0.000 A 
ATOM     28  N   UNL     1      43.792   6.798  11.293  0.00  0.00    +0.000 NA
ATOM     29  C   UNL     1      42.895   5.873  11.207  0.00  0.00    +0.000 A 
ATOM     30  N   UNL     1      42.952   4.663  11.850  0.00  0.00    +0.000 N 
ATOM     31  C   UNL     1      43.990   4.306  12.677  0.00  0.00    +0.000 A 
ATOM     32  O   UNL     1      43.985   3.231  13.264  0.00  0.00    +0.000 OA
ATOM     33  C   UNL     1      45.042   5.300  12.783  0.00  0.00    +0.000 A 
ATOM     34  H   UNL     1      42.211   3.985  11.756  0.00  0.00    +0.000 HD
ENDBRANCH  21  24
ENDBRANCH  19  20
ENDBRANCH   6  19
TORSDOF 6
ENDMDL
MODEL 3
REMARK VINA RESULT:    -7.714      4.389      9.235
REMARK INTER + INTRA:         -11.455
REMARK INTER:                 -10.138
REMARK INTRA:                  -1.317
REMARK UNBOUND:                -1.036
REMARK  Name = 
REMARK  6 active torsions:
REMARK  status: ('A' for Active; 'I' for Inactive)
REMARK    1  A    between atoms: C_2  and  C_4
REMARK    2  A    between atoms: C_7  and  C_8
REMARK    3  A    between atoms: C_8  and  N_9
REMARK    4  A    between atoms: C_16  and  C_17
REMARK    5  A    between atoms: C_17  and  N_18
REMARK    6  A    between atoms: C_19  and  C_21
REMARK                            x       y       z     vdW  Elec       q    Type
REMARK                         _______ _______ _______ _____ _____    ______ ____
ROOT
ATOM      1  C   UNL     1      50.129   3.404  17.457  0.00  0.00    +0.000 A 
ATOM      2  C   UNL     1      51.295   4.018  17.946  0.00  0.00    +0.000 A 
ATOM      3  C   UNL     1      51.269   5.334  18.399  0.00  0.00    +0.000 A 
ATOM      4  C   UNL     1      50.088   6.076  18.343  0.00  0.00    +0.000 A 
ATOM      5  C   UNL     1      48.926   5.469  17.845  0.00  0.00    +0.000 A 
ATOM      6  C   UNL     1      48.920   4.127  17.416  0.00  0.00    +0.000 A 
ENDROOT
BRANCH   1   8
ATOM      7  N   UNL     1      50.973   1.136  17.708  0.00  0.00    +0.000 N 
ATOM      8  C   UNL     1      50.232   2.003  16.951  0.00  0.00    +0.000 C 
ATOM      9  O   UNL     1      49.688   1.638  15.918  0.00  0.00    +0.000 OA
ATOM     10  H   UNL     1      51.039   0.178  17.391  0.00  0.00    +0.000 HD
ATOM     11  H   UNL     1      51.319   1.360  18.628  0.00  0.00    +0.000 HD
ENDBRANCH   1   8
BRANCH   4  12
ATOM     12  C   UNL     1      50.056   7.497  18.852  0.00  0.00    +0.000 C 
BRANCH  12  13
ATOM     13  N   UNL     1      48.781   8.208  18.604  0.00  0.00    +0.000 NA
ATOM     14  C   UNL     1      48.108   8.509  19.881  0.00  0.00    +0.000 C 
ATOM     15  C   UNL     1      46.932   9.479  19.749  0.00  0.00    +0.000 C 
ATOM     16  C   UNL     1      47.355  10.750  19.031  0.00  0.00    +0.000 C 
ATOM     17  C   UNL     1      47.911  10.383  17.666  0.00  0.00    +0.000 C 
ATOM     18  C   UNL     1      49.078   9.407  17.801  0.00  0.00    +0.000 C 
ENDBRANCH  12  13
ENDBRANCH   4  12
BRANCH   6  19
ATOM     19  C   UNL     1      47.615   3.552  16.931  0.00  0.00    +0.000 C 
BRANCH  19  20
ATOM     20  N   UNL     1      46.998   4.403  15.951  0.00  0.00    +0.000 N 
ATOM     21  C   UNL     1      46.933   4.106  14.616  0.00  0.00    +0.000 C 
ATOM     22  O   UNL     1      47.287   3.025  14.151  0.00  0.00    +0.000 OA
ATOM     23  H   UNL     1      46.720   5.315  16.293  0.00  0.00    +0.000 HD
BRANCH  21  24
ATOM     24  C   UNL     1      46.349   5.152  13.776  0.00  0.00    +0.000 A 
ATOM     25  C   UNL     1      45.107   4.978  13.186  0.00  0.00    +0.000 A 
ATOM     26  S   UNL     1      44.586   6.338  12.295  0.00  0.00    +0.000 S 
ATOM     27  C   UNL     1      46.029   7.179  12.625  0.00  0.00    +0.000 A 
ATOM     28  N   UNL     1      46.241   8.431  12.136  0.00  0.00    +0.000 NA
ATOM     29  C   UNL     1      47.390   8.935  12.447  0.00  0.00    +0.000 A 
ATOM     30  N   UNL     1      48.347   8.300  13.196  0.00  0.00    +0.000 N 
ATOM     31  C   UNL     1      48.182   7.031  13.698  0.00  0.00    +0.000 A 
ATOM     32  O   UNL     1      49.077   6.485  14.330  0.00  0.00    +0.000 OA
ATOM     33  C   UNL     1      46.894   6.432  13.403  0.00  0.00    +0.000 A 
ATOM     34  H   UNL     1      49.233   8.740  13.394  0.00  0.00    +0.000 HD
ENDBRANCH  21  24
ENDBRANCH  19  20
ENDBRANCH   6  19
TORSDOF 6
ENDMDL
MODEL 4
REMARK VINA RESULT:    -7.651      3.888      9.467
REMARK INTER + INTRA:         -11.371
REMARK INTER:                 -10.133
REMARK INTRA:                  -1.237
REMARK UNBOUND:                -1.036
REMARK  Name = 
REMARK  6 active torsions:
REMARK  status: ('A' for Active; 'I' for Inactive)
REMARK    1  A    between atoms: C_2  and  C_4
REMARK    2  A    between atoms: C_7  and  C_8
REMARK    3  A    between atoms: C_8  and  N_9
REMARK    4  A    between atoms: C_16  and  C_17
REMARK    5  A    between atoms: C_17  and  N_18
REMARK    6  A    between atoms: C_19  and  C_21
REMARK                            x       y       z     vdW  Elec       q    Type
REMARK                         _______ _______ _______ _____ _____    ______ ____
ROOT
ATOM      1  C   UNL     1      48.171   5.271  17.765  0.00  0.00    +0.000 A 
ATOM      2  C   UNL     1      47.817   5.277  19.126  0.00  0.00    +0.000 A 
ATOM      3  C   UNL     1      47.802   6.465  19.852  0.00  0.00    +0.000 A 
ATOM      4  C   UNL     1      48.171   7.666  19.246  0.00  0.00    +0.000 A 
ATOM      5  C   UNL     1      48.536   7.662  17.892  0.00  0.00    +0.000 A 
ATOM      6  C   UNL     1      48.522   6.479  17.128  0.00  0.00    +0.000 A 
ENDROOT
BRANCH   1   8
ATOM      7  N   UNL     1      46.997   3.464  16.638  0.00  0.00    +0.000 N 
ATOM      8  C   UNL     1      48.203   3.960  17.053  0.00  0.00    +0.000 C 
ATOM      9  O   UNL     1      49.245   3.353  16.847  0.00  0.00    +0.000 OA
ATOM     10  H   UNL     1      47.001   2.585  16.136  0.00  0.00    +0.000 HD
ATOM     11  H   UNL     1      46.140   3.994  16.666  0.00  0.00    +0.000 HD
ENDBRANCH   1   8
BRANCH   4  12
ATOM     12  C   UNL     1      48.137   8.957  20.030  0.00  0.00    +0.000 C 
BRANCH  12  13
ATOM     13  N   UNL     1      47.114   9.924  19.572  0.00  0.00    +0.000 NA
ATOM     14  C   UNL     1      46.232  10.301  20.692  0.00  0.00    +0.000 C 
ATOM     15  C   UNL     1      45.325  11.497  20.393  0.00  0.00    +0.000 C 
ATOM     16  C   UNL     1      46.137  12.684  19.901  0.00  0.00    +0.000 C 
ATOM     17  C   UNL     1      46.916  12.270  18.664  0.00  0.00    +0.000 C 
ATOM     18  C   UNL     1      47.812  11.071  18.964  0.00  0.00    +0.000 C 
ENDBRANCH  12  13
ENDBRANCH   4  12
BRANCH   6  19
ATOM     19  C   UNL     1      48.894   6.580  15.672  0.00  0.00    +0.000 C 
BRANCH  19  20
ATOM     20  N   UNL     1      47.753   6.372  14.822  0.00  0.00    +0.000 N 
ATOM     21  C   UNL     1      47.832   6.225  13.463  0.00  0.00    +0.000 C 
ATOM     22  O   UNL     1      48.898   6.132  12.859  0.00  0.00    +0.000 OA
ATOM     23  H   UNL     1      46.856   6.471  15.282  0.00  0.00    +0.000 HD
BRANCH  21  24
ATOM     24  C   UNL     1      46.544   6.122  12.776  0.00  0.00    +0.000 A 
ATOM     25  C   UNL     1      45.920   7.250  12.266  0.00  0.00    +0.000 A 
ATOM     26  S   UNL     1      44.458   6.903  11.455  0.00  0.00    +0.000 S 
ATOM     27  C   UNL     1      44.587   5.243  11.810  0.00  0.00    +0.000 A 
ATOM     28  N   UNL     1      43.634   4.360  11.405  0.00  0.00    +0.000 NA
ATOM     29  C   UNL     1      43.853   3.139  11.768  0.00  0.00    +0.000 A 
ATOM     30  N   UNL     1      44.933   2.722  12.502  0.00  0.00    +0.000 N 
ATOM     31  C   UNL     1      45.912   3.579  12.944  0.00  0.00    +0.000 A 
ATOM     32  O   UNL     1      46.840   3.172  13.630  0.00  0.00    +0.000 OA
ATOM     33  C   UNL     1      45.729   4.959  12.536  0.00  0.00    +0.000 A 
ATOM     34  H   UNL     1      45.042   1.755  12.768  0.00  0.00    +0.000 HD
ENDBRANCH  21  24
ENDBRANCH  19  20
ENDBRANCH   6  19
TORSDOF 6
ENDMDL
MODEL 5
REMARK VINA RESULT:    -7.623      3.935      8.635
REMARK INTER + INTRA:         -11.333
REMARK INTER:                 -10.660
REMARK INTRA:                  -0.673
REMARK UNBOUND:                -1.036
REMARK  Name = 
REMARK  6 active torsions:
REMARK  status: ('A' for Active; 'I' for Inactive)
REMARK    1  A    between atoms: C_2  and  C_4
REMARK    2  A    between atoms: C_7  and  C_8
REMARK    3  A    between atoms: C_8  and  N_9
REMARK    4  A    between atoms: C_16  and  C_17
REMARK    5  A    between atoms: C_17  and  N_18
REMARK    6  A    between atoms: C_19  and  C_21
REMARK                            x       y       z     vdW  Elec       q    Type
REMARK                         _______ _______ _______ _____ _____    ______ ____
ROOT
ATOM      1  C   UNL     1      49.958   3.365  17.498  0.00  0.00    +0.000 A 
ATOM      2  C   UNL     1      51.075   3.957  18.113  0.00  0.00    +0.000 A 
ATOM      3  C   UNL     1      50.997   5.241  18.645  0.00  0.00    +0.000 A 
ATOM      4  C   UNL     1      49.813   5.974  18.547  0.00  0.00    +0.000 A 
ATOM      5  C   UNL     1      48.701   5.390  17.924  0.00  0.00    +0.000 A 
ATOM      6  C   UNL     1      48.746   4.079  17.412  0.00  0.00    +0.000 A 
ENDROOT
BRANCH   1   8
ATOM      7  N   UNL     1      50.913   1.130  17.611  0.00  0.00    +0.000 N 
ATOM      8  C   UNL     1      50.119   2.000  16.914  0.00  0.00    +0.000 C 
ATOM      9  O   UNL     1      49.576   1.668  15.869  0.00  0.00    +0.000 OA
ATOM     10  H   UNL     1      51.018   0.195  17.240  0.00  0.00    +0.000 HD
ATOM     11  H   UNL     1      51.262   1.319  18.537  0.00  0.00    +0.000 HD
ENDBRANCH   1   8
BRANCH   4  12
ATOM     12  C   UNL     1      49.723   7.359  19.141  0.00  0.00    +0.000 C 
BRANCH  12  13
ATOM     13  N   UNL     1      49.664   8.451  18.143  0.00  0.00    +0.000 NA
ATOM     14  C   UNL     1      50.453   8.094  16.950  0.00  0.00    +0.000 C 
ATOM     15  C   UNL     1      50.231   9.026  15.756  0.00  0.00    +0.000 C 
ATOM     16  C   UNL     1      48.751   9.143  15.428  0.00  0.00    +0.000 C 
ATOM     17  C   UNL     1      48.013   9.647  16.656  0.00  0.00    +0.000 C 
ATOM     18  C   UNL     1      48.246   8.721  17.847  0.00  0.00    +0.000 C 
ENDBRANCH  12  13
ENDBRANCH   4  12
BRANCH   6  19
ATOM     19  C   UNL     1      47.490   3.524  16.792  0.00  0.00    +0.000 C 
BRANCH  19  20
ATOM     20  N   UNL     1      46.942   4.427  15.817  0.00  0.00    +0.000 N 
ATOM     21  C   UNL     1      46.922   4.174  14.471  0.00  0.00    +0.000 C 
ATOM     22  O   UNL     1      47.258   3.097  13.985  0.00  0.00    +0.000 OA
ATOM     23  H   UNL     1      46.681   5.336  16.178  0.00  0.00    +0.000 HD
BRANCH  21  24
ATOM     24  C   UNL     1      46.408   5.267  13.644  0.00  0.00    +0.000 A 
ATOM     25  C   UNL     1      47.133   6.437  13.483  0.00  0.00    +0.000 A 
ATOM     26  S   UNL     1      46.382   7.558  12.437  0.00  0.00    +0.000 S 
ATOM     27  C   UNL     1      45.039   6.535  12.212  0.00  0.00    +0.000 A 
ATOM     28  N   UNL     1      43.997   6.906  11.419  0.00  0.00    +0.000 NA
ATOM     29  C   UNL     1      43.039   6.041  11.362  0.00  0.00    +0.000 A 
ATOM     30  N   UNL     1      43.024   4.844  12.029  0.00  0.00    +0.000 N 
ATOM     31  C   UNL     1      44.047   4.434  12.852  0.00  0.00    +0.000 A 
ATOM     32  O   UNL     1      43.978   3.374  13.460  0.00  0.00    +0.000 OA
ATOM     33  C   UNL     1      45.163   5.358  12.925  0.00  0.00    +0.000 A 
ATOM     34  H   UNL     1      42.239   4.215  11.957  0.00  0.00    +0.000 HD
ENDBRANCH  21  24
ENDBRANCH  19  20
ENDBRANCH   6  19
TORSDOF 6
ENDMDL
MODEL 6
REMARK VINA RESULT:    -7.573      2.299      4.199
REMARK INTER + INTRA:         -11.266
REMARK INTER:                  -9.741
REMARK INTRA:                  -1.525
REMARK UNBOUND:                -1.036
REMARK  Name = 
REMARK  6 active torsions:
REMARK  status: ('A' for Active; 'I' for Inactive)
REMARK    1  A    between atoms: C_2  and  C_4
REMARK    2  A    between atoms: C_7  and  C_8
REMARK    3  A    between atoms: C_8  and  N_9
REMARK    4  A    between atoms: C_16  and  C_17
REMARK    5  A    between atoms: C_17  and  N_18
REMARK    6  A    between atoms: C_19  and  C_21
REMARK                            x       y       z     vdW  Elec       q    Type
REMARK                         _______ _______ _______ _____ _____    ______ ____
ROOT
ATOM      1  C   UNL     1      46.928   8.795  12.147  0.00  0.00    +0.000 A 
ATOM      2  C   UNL     1      45.572   8.889  11.791  0.00  0.00    +0.000 A 
ATOM      3  C   UNL     1      44.816   7.743  11.556  0.00  0.00    +0.000 A 
ATOM      4  C   UNL     1      45.406   6.481  11.639  0.00  0.00    +0.000 A 
ATOM      5  C   UNL     1      46.763   6.385  11.982  0.00  0.00    +0.000 A 
ATOM      6  C   UNL     1      47.536   7.528  12.261  0.00  0.00    +0.000 A 
ENDROOT
BRANCH   1   8
ATOM      7  N   UNL     1      47.730  10.551  13.626  0.00  0.00    +0.000 N 
ATOM      8  C   UNL     1      47.691  10.062  12.349  0.00  0.00    +0.000 C 
ATOM      9  O   UNL     1      48.254  10.641  11.429  0.00  0.00    +0.000 OA
ATOM     10  H   UNL     1      48.259  11.399  13.785  0.00  0.00    +0.000 HD
ATOM     11  H   UNL     1      47.400  10.036  14.427  0.00  0.00    +0.000 HD
ENDBRANCH   1   8
BRANCH   4  12
ATOM     12  C   UNL     1      44.583   5.238  11.402  0.00  0.00    +0.000 C 
BRANCH  12  13
ATOM     13  N   UNL     1      45.193   4.267  10.465  0.00  0.00    +0.000 NA
ATOM     14  C   UNL     1      44.320   3.089  10.311  0.00  0.00    +0.000 C 
ATOM     15  C   UNL     1      44.723   2.164   9.160  0.00  0.00    +0.000 C 
ATOM     16  C   UNL     1      44.846   2.939   7.858  0.00  0.00    +0.000 C 
ATOM     17  C   UNL     1      45.863   4.053   8.042  0.00  0.00    +0.000 C 
ATOM     18  C   UNL     1      45.462   4.968   9.197  0.00  0.00    +0.000 C 
ENDBRANCH  12  13
ENDBRANCH   4  12
BRANCH   6  19
ATOM     19  C   UNL     1      48.974   7.322  12.657  0.00  0.00    +0.000 C 
BRANCH  19  20
ATOM     20  N   UNL     1      49.081   6.597  13.893  0.00  0.00    +0.000 N 
ATOM     21  C   UNL     1      48.891   7.161  15.126  0.00  0.00    +0.000 C 
ATOM     22  O   UNL     1      48.488   8.310  15.284  0.00  0.00    +0.000 OA
ATOM     23  H   UNL     1      49.439   5.654  13.803  0.00  0.00    +0.000 HD
BRANCH  21  24
ATOM     24  C   UNL     1      49.143   6.270  16.260  0.00  0.00    +0.000 A 
ATOM     25  C   UNL     1      50.173   6.530  17.152  0.00  0.00    +0.000 A 
ATOM     26  S   UNL     1      50.259   5.401  18.430  0.00  0.00    +0.000 S 
ATOM     27  C   UNL     1      48.959   4.499  17.799  0.00  0.00    +0.000 A 
ATOM     28  N   UNL     1      48.519   3.371  18.419  0.00  0.00    +0.000 NA
ATOM     29  C   UNL     1      47.544   2.779  17.813  0.00  0.00    +0.000 A 
ATOM     30  N   UNL     1      46.973   3.208  16.642  0.00  0.00    +0.000 N 
ATOM     31  C   UNL     1      47.394   4.332  15.974  0.00  0.00    +0.000 A 
ATOM     32  O   UNL     1      46.883   4.660  14.911  0.00  0.00    +0.000 OA
ATOM     33  C   UNL     1      48.468   5.052  16.631  0.00  0.00    +0.000 A 
ATOM     34  H   UNL     1      46.222   2.693  16.208  0.00  0.00    +0.000 HD
ENDBRANCH  21  24
ENDBRANCH  19  20
ENDBRANCH   6  19
TORSDOF 6
ENDMDL
MODEL 7
REMARK VINA RESULT:    -7.548      2.524      4.742
REMARK INTER + INTRA:         -11.231
REMARK INTER:                 -10.881
REMARK INTRA:                  -0.350
REMARK UNBOUND:                -1.036
REMARK  Name = 
REMARK  6 active torsions:
REMARK  status: ('A' for Active; 'I' for Inactive)
REMARK    1  A    between atoms: C_2  and  C_4
REMARK    2  A    between atoms: C_7  and  C_8
REMARK    3  A    between atoms: C_8  and  N_9
REMARK    4  A    between atoms: C_16  and  C_17
REMARK    5  A    between atoms: C_17  and  N_18
REMARK    6  A    between atoms: C_19  and  C_21
REMARK                            x       y       z     vdW  Elec       q    Type
REMARK                         _______ _______ _______ _____ _____    ______ ____
ROOT
ATOM      1  C   UNL     1      46.974   6.286  13.436  0.00  0.00    +0.000 A 
ATOM      2  C   UNL     1      46.307   7.171  12.572  0.00  0.00    +0.000 A 
ATOM      3  C   UNL     1      45.219   6.742  11.816  0.00  0.00    +0.000 A 
ATOM      4  C   UNL     1      44.795   5.414  11.881  0.00  0.00    +0.000 A 
ATOM      5  C   UNL     1      45.467   4.526  12.734  0.00  0.00    +0.000 A 
ATOM      6  C   UNL     1      46.545   4.947  13.536  0.00  0.00    +0.000 A 
ENDROOT
BRANCH   1   8
ATOM      7  N   UNL     1      47.896   7.698  15.190  0.00  0.00    +0.000 N 
ATOM      8  C   UNL     1      48.156   6.799  14.191  0.00  0.00    +0.000 C 
ATOM      9  O   UNL     1      49.299   6.443  13.938  0.00  0.00    +0.000 OA
ATOM     10  H   UNL     1      48.684   8.042  15.724  0.00  0.00    +0.000 HD
ATOM     11  H   UNL     1      46.967   7.910  15.517  0.00  0.00    +0.000 HD
ENDBRANCH   1   8
BRANCH   4  12
ATOM     12  C   UNL     1      43.604   4.953  11.075  0.00  0.00    +0.000 C 
BRANCH  12  13
ATOM     13  N   UNL     1      43.950   4.210   9.842  0.00  0.00    +0.000 NA
ATOM     14  C   UNL     1      45.159   4.784   9.223  0.00  0.00    +0.000 C 
ATOM     15  C   UNL     1      45.755   3.922   8.108  0.00  0.00    +0.000 C 
ATOM     16  C   UNL     1      45.998   2.501   8.591  0.00  0.00    +0.000 C 
ATOM     17  C   UNL     1      44.686   1.918   9.087  0.00  0.00    +0.000 C 
ATOM     18  C   UNL     1      44.090   2.786  10.193  0.00  0.00    +0.000 C 
ENDBRANCH  12  13
ENDBRANCH   4  12
BRANCH   6  19
ATOM     19  C   UNL     1      47.180   3.930  14.448  0.00  0.00    +0.000 C 
BRANCH  19  20
ATOM     20  N   UNL     1      47.632   4.532  15.673  0.00  0.00    +0.000 N 
ATOM     21  C   UNL     1      47.204   4.144  16.915  0.00  0.00    +0.000 C 
ATOM     22  O   UNL     1      46.490   3.163  17.103  0.00  0.00    +0.000 OA
ATOM     23  H   UNL     1      48.199   5.362  15.555  0.00  0.00    +0.000 HD
BRANCH  21  24
ATOM     24  C   UNL     1      47.713   4.952  18.024  0.00  0.00    +0.000 A 
ATOM     25  C   UNL     1      46.860   5.748  18.773  0.00  0.00    +0.000 A 
ATOM     26  S   UNL     1      47.645   6.563  20.052  0.00  0.00    +0.000 S 
ATOM     27  C   UNL     1      49.159   5.920  19.608  0.00  0.00    +0.000 A 
ATOM     28  N   UNL     1      50.287   6.235  20.301  0.00  0.00    +0.000 NA
ATOM     29  C   UNL     1      51.364   5.694  19.835  0.00  0.00    +0.000 A 
ATOM     30  N   UNL     1      51.417   4.873  18.739  0.00  0.00    +0.000 N 
ATOM     31  C   UNL     1      50.307   4.540  18.001  0.00  0.00    +0.000 A 
ATOM     32  O   UNL     1      50.403   3.834  17.005  0.00  0.00    +0.000 OA
ATOM     33  C   UNL     1      49.065   5.097  18.502  0.00  0.00    +0.000 A 
ATOM     34  H   UNL     1      52.293   4.492  18.413  0.00  0.00    +0.000 HD
ENDBRANCH  21  24
ENDBRANCH  19  20
ENDBRANCH   6  19
TORSDOF 6
ENDMDL
MODEL 8
REMARK VINA RESULT:    -7.453      3.636      5.845
REMARK INTER + INTRA:         -11.103
REMARK INTER:                  -9.793
REMARK INTRA:                  -1.311
REMARK UNBOUND:                -1.036
REMARK  Name = 
REMARK  6 active torsions:
REMARK  status: ('A' for Active; 'I' for Inactive)
REMARK    1  A    between atoms: C_2  and  C_4
REMARK    2  A    between atoms: C_7  and  C_8
REMARK    3  A    between atoms: C_8  and  N_9
REMARK    4  A    between atoms: C_16  and  C_17
REMARK    5  A    between atoms: C_17  and  N_18
REMARK    6  A    between atoms: C_19  and  C_21
REMARK                            x       y       z     vdW  Elec       q    Type
REMARK                         _______ _______ _______ _____ _____    ______ ____
ROOT
ATOM      1  C   UNL     1      45.447   4.728  12.379  0.00  0.00    +0.000 A 
ATOM      2  C   UNL     1      45.279   5.869  11.575  0.00  0.00    +0.000 A 
ATOM      3  C   UNL     1      46.066   7.001  11.773  0.00  0.00    +0.000 A 
ATOM      4  C   UNL     1      47.012   7.031  12.798  0.00  0.00    +0.000 A 
ATOM      5  C   UNL     1      47.173   5.898  13.609  0.00  0.00    +0.000 A 
ATOM      6  C   UNL     1      46.415   4.729  13.403  0.00  0.00    +0.000 A 
ENDROOT
BRANCH   1   8
ATOM      7  N   UNL     1      44.831   2.788  11.047  0.00  0.00    +0.000 N 
ATOM      8  C   UNL     1      44.547   3.561  12.140  0.00  0.00    +0.000 C 
ATOM      9  O   UNL     1      43.602   3.302  12.873  0.00  0.00    +0.000 OA
ATOM     10  H   UNL     1      44.243   1.982  10.880  0.00  0.00    +0.000 HD
ATOM     11  H   UNL     1      45.674   2.886  10.503  0.00  0.00    +0.000 HD
ENDBRANCH   1   8
BRANCH   4  12
ATOM     12  C   UNL     1      47.878   8.251  13.000  0.00  0.00    +0.000 C 
BRANCH  12  13
ATOM     13  N   UNL     1      49.323   8.021  12.776  0.00  0.00    +0.000 NA
ATOM     14  C   UNL     1      49.581   7.757  11.348  0.00  0.00    +0.000 C 
ATOM     15  C   UNL     1      51.064   7.783  10.970  0.00  0.00    +0.000 C 
ATOM     16  C   UNL     1      51.716   9.080  11.420  0.00  0.00    +0.000 C 
ATOM     17  C   UNL     1      51.535   9.226  12.922  0.00  0.00    +0.000 C 
ATOM     18  C   UNL     1      50.056   9.189  13.297  0.00  0.00    +0.000 C 
ENDBRANCH  12  13
ENDBRANCH   4  12
BRANCH   6  19
ATOM     19  C   UNL     1      46.684   3.551  14.302  0.00  0.00    +0.000 C 
BRANCH  19  20
ATOM     20  N   UNL     1      47.720   3.843  15.255  0.00  0.00    +0.000 N 
ATOM     21  C   UNL     1      47.565   3.723  16.610  0.00  0.00    +0.000 C 
ATOM     22  O   UNL     1      46.565   3.234  17.131  0.00  0.00    +0.000 OA
ATOM     23  H   UNL     1      48.549   4.275  14.864  0.00  0.00    +0.000 HD
BRANCH  21  24
ATOM     24  C   UNL     1      48.711   4.164  17.406  0.00  0.00    +0.000 A 
ATOM     25  C   UNL     1      48.671   5.359  18.107  0.00  0.00    +0.000 A 
ATOM     26  S   UNL     1      50.087   5.658  19.013  0.00  0.00    +0.000 S 
ATOM     27  C   UNL     1      50.818   4.227  18.451  0.00  0.00    +0.000 A 
ATOM     28  N   UNL     1      52.074   3.878  18.842  0.00  0.00    +0.000 NA
ATOM     29  C   UNL     1      52.508   2.781  18.316  0.00  0.00    +0.000 A 
ATOM     30  N   UNL     1      51.804   2.004  17.433  0.00  0.00    +0.000 N 
ATOM     31  C   UNL     1      50.540   2.323  17.000  0.00  0.00    +0.000 A 
ATOM     32  O   UNL     1      49.960   1.622  16.180  0.00  0.00    +0.000 OA
ATOM     33  C   UNL     1      49.994   3.533  17.586  0.00  0.00    +0.000 A 
ATOM     34  H   UNL     1      52.203   1.162  17.044  0.00  0.00    +0.000 HD
ENDBRANCH  21  24
ENDBRANCH  19  20
ENDBRANCH   6  19
TORSDOF 6
ENDMDL
MODEL 9
REMARK VINA RESULT:    -7.229      3.349      5.645
REMARK INTER + INTRA:         -10.800
REMARK INTER:                  -9.449
REMARK INTRA:                  -1.350
REMARK UNBOUND:                -1.036
REMARK  Name = 
REMARK  6 active torsions:
REMARK  status: ('A' for Active; 'I' for Inactive)
REMARK    1  A    between atoms: C_2  and  C_4
REMARK    2  A    between atoms: C_7  and  C_8
REMARK    3  A    between atoms: C_8  and  N_9
REMARK    4  A    between atoms: C_16  and  C_17
REMARK    5  A    between atoms: C_17  and  N_18
REMARK    6  A    between atoms: C_19  and  C_21
REMARK                            x       y       z     vdW  Elec       q    Type
REMARK                         _______ _______ _______ _____ _____    ______ ____
ROOT
ATOM      1  C   UNL     1      44.344   4.602  11.630  0.00  0.00    +0.000 A 
ATOM      2  C   UNL     1      43.728   5.631  10.899  0.00  0.00    +0.000 A 
ATOM      3  C   UNL     1      43.990   6.968  11.192  0.00  0.00    +0.000 A 
ATOM      4  C   UNL     1      44.844   7.304  12.243  0.00  0.00    +0.000 A 
ATOM      5  C   UNL     1      45.452   6.278  12.982  0.00  0.00    +0.000 A 
ATOM      6  C   UNL     1      45.231   4.921  12.678  0.00  0.00    +0.000 A 
ENDROOT
BRANCH   1   8
ATOM      7  N   UNL     1      44.831   2.549  10.418  0.00  0.00    +0.000 N 
ATOM      8  C   UNL     1      43.993   3.191  11.290  0.00  0.00    +0.000 C 
ATOM      9  O   UNL     1      43.012   2.629  11.759  0.00  0.00    +0.000 OA
ATOM     10  H   UNL     1      44.619   1.586  10.191  0.00  0.00    +0.000 HD
ATOM     11  H   UNL     1      45.717   2.927  10.121  0.00  0.00    +0.000 HD
ENDBRANCH   1   8
BRANCH   4  12
ATOM     12  C   UNL     1      45.142   8.753  12.549  0.00  0.00    +0.000 C 
BRANCH  12  13
ATOM     13  N   UNL     1      46.238   9.336  11.742  0.00  0.00    +0.000 NA
ATOM     14  C   UNL     1      46.046  10.791  11.598  0.00  0.00    +0.000 C 
ATOM     15  C   UNL     1      47.261  11.524  11.025  0.00  0.00    +0.000 C 
ATOM     16  C   UNL     1      48.513  11.206  11.825  0.00  0.00    +0.000 C 
ATOM     17  C   UNL     1      48.733   9.703  11.819  0.00  0.00    +0.000 C 
ATOM     18  C   UNL     1      47.515   8.975  12.382  0.00  0.00    +0.000 C 
ENDBRANCH  12  13
ENDBRANCH   4  12
BRANCH   6  19
ATOM     19  C   UNL     1      45.956   3.891  13.505  0.00  0.00    +0.000 C 
BRANCH  19  20
ATOM     20  N   UNL     1      46.566   4.483  14.664  0.00  0.00    +0.000 N 
ATOM     21  C   UNL     1      47.456   3.829  15.474  0.00  0.00    +0.000 C 
ATOM     22  O   UNL     1      47.912   2.718  15.212  0.00  0.00    +0.000 OA
ATOM     23  H   UNL     1      46.194   5.387  14.927  0.00  0.00    +0.000 HD
BRANCH  21  24
ATOM     24  C   UNL     1      47.884   4.578  16.656  0.00  0.00    +0.000 A 
ATOM     25  C   UNL     1      47.532   4.157  17.929  0.00  0.00    +0.000 A 
ATOM     26  S   UNL     1      48.177   5.139  19.168  0.00  0.00    +0.000 S 
ATOM     27  C   UNL     1      48.900   6.189  18.038  0.00  0.00    +0.000 A 
ATOM     28  N   UNL     1      49.612   7.275  18.443  0.00  0.00    +0.000 NA
ATOM     29  C   UNL     1      50.080   7.993  17.476  0.00  0.00    +0.000 A 
ATOM     30  N   UNL     1      49.896   7.728  16.144  0.00  0.00    +0.000 N 
ATOM     31  C   UNL     1      49.172   6.652  15.689  0.00  0.00    +0.000 A 
ATOM     32  O   UNL     1      48.999   6.472  14.491  0.00  0.00    +0.000 OA
ATOM     33  C   UNL     1      48.651   5.795  16.737  0.00  0.00    +0.000 A 
ATOM     34  H   UNL     1      50.274   8.336  15.433  0.00  0.00    +0.000 HD
ENDBRANCH  21  24
ENDBRANCH  19  20
ENDBRANCH   6  19
TORSDOF 6
ENDMDL
