MODEL 1
REMARK VINA RESULT:    -8.361      0.000      0.000
REMARK INTER + INTRA:         -13.209
REMARK INTER:                 -11.783
REMARK INTRA:                  -1.426
REMARK UNBOUND:                -1.426
REMARK  Name = 
REMARK  7 active torsions:
REMARK  status: ('A' for Active; 'I' for Inactive)
REMARK    1  A    between atoms: C_2  and  C_4
REMARK    2  A    between atoms: C_4  and  N_5
REMARK    3  A    between atoms: C_4  and  C_18
REMARK    4  A    between atoms: C_6  and  C_8
REMARK    5  A    between atoms: C_21  and  C_22
REMARK    6  A    between atoms: C_22  and  N_23
REMARK    7  A    between atoms: C_24  and  C_26
REMARK                            x       y       z     vdW  Elec       q    Type
REMARK                         _______ _______ _______ _____ _____    ______ ____
ROOT
ATOM      1  C   UNL     1      48.191   6.873  14.363  0.00  0.00    +0.000 C 
ENDROOT
BRANCH   1   2
ATOM      2  C   UNL     1      47.211   5.961  13.635  0.00  0.00    +0.000 A 
ATOM      3  C   UNL     1      46.559   6.426  12.484  0.00  0.00    +0.000 A 
ATOM      4  C   UNL     1      45.709   5.587  11.760  0.00  0.00    +0.000 A 
ATOM      5  C   UNL     1      45.487   4.266  12.170  0.00  0.00    +0.000 A 
ATOM      6  C   UNL     1      46.144   3.797  13.314  0.00  0.00    +0.000 A 
ATOM      7  C   UNL     1      46.994   4.636  14.040  0.00  0.00    +0.000 A 
BRANCH   5   8
ATOM      8  C   UNL     1      44.580   3.364  11.377  0.00  0.00    +0.000 C 
BRANCH   8   9
ATOM      9  N   UNL     1      45.268   2.780  10.246  0.00  0.00    +0.000 N 
ATOM     10  C   UNL     1      45.091   3.305   8.983  0.00  0.00    +0.000 C 
ATOM     11  O   UNL     1      44.345   4.247   8.743  0.00  0.00    +0.000 OA
ATOM     12  H   UNL     1      46.042   2.160  10.437  0.00  0.00    +0.000 HD
BRANCH  10  13
ATOM     13  C   UNL     1      45.883   2.693   7.892  0.00  0.00    +0.000 A 
ATOM     14  C   UNL     1      46.220   3.374   6.721  0.00  0.00    +0.000 A 
ATOM     15  C   UNL     1      46.979   2.725   5.747  0.00  0.00    +0.000 A 
ATOM     16  C   UNL     1      47.374   1.417   5.982  0.00  0.00    +0.000 A 
ATOM     17  N   UNL     1      47.077   0.735   7.108  0.00  0.00    +0.000 NA
ATOM     18  C   UNL     1      46.347   1.392   8.045  0.00  0.00    +0.000 A 
ENDBRANCH  10  13
ENDBRANCH   8   9
ENDBRANCH   5   8
ENDBRANCH   1   2
BRANCH   1  20
ATOM     19  N   UNL     1      47.302   9.089  15.001  0.00  0.00    +0.000 N 
ATOM     20  C   UNL     1      47.985   8.380  14.044  0.00  0.00    +0.000 C 
ATOM     21  O   UNL     1      48.311   8.936  12.998  0.00  0.00    +0.000 OA
ATOM     22  H   UNL     1      47.043  10.037  14.757  0.00  0.00    +0.000 HD
ATOM     23  H   UNL     1      46.713   8.603  15.671  0.00  0.00    +0.000 HD
ENDBRANCH   1  20
BRANCH   1  24
ATOM     24  N   UNL     1      48.091   6.651  15.800  0.00  0.00    +0.000 N 
ATOM     25  C   UNL     1      49.151   6.240  16.558  0.00  0.00    +0.000 C 
ATOM     26  O   UNL     1      50.273   6.107  16.074  0.00  0.00    +0.000 OA
ATOM     27  H   UNL     1      47.158   6.668  16.198  0.00  0.00    +0.000 HD
BRANCH  25  28
ATOM     28  C   UNL     1      48.890   6.014  17.989  0.00  0.00    +0.000 A 
ATOM     29  C   UNL     1      49.175   4.778  18.553  0.00  0.00    +0.000 A 
ATOM     30  S   UNL     1      48.841   4.691  20.223  0.00  0.00    +0.000 S 
ATOM     31  C   UNL     1      48.251   6.286  20.246  0.00  0.00    +0.000 A 
ATOM     32  N   UNL     1      47.760   6.833  21.391  0.00  0.00    +0.000 NA
ATOM     33  C   UNL     1      47.313   8.036  21.260  0.00  0.00    +0.000 A 
ATOM     34  N   UNL     1      47.318   8.745  20.088  0.00  0.00    +0.000 N 
ATOM     35  C   UNL     1      47.846   8.251  18.918  0.00  0.00    +0.000 A 
ATOM     36  O   UNL     1      47.908   8.945  17.910  0.00  0.00    +0.000 OA
ATOM     37  C   UNL     1      48.335   6.887  19.002  0.00  0.00    +0.000 A 
ATOM     38  H   UNL     1      46.973   9.693  20.056  0.00  0.00    +0.000 HD
ENDBRANCH  25  28
ENDBRANCH   1  24
TORSDOF 7
ENDMDL
MODEL 2
REMARK VINA RESULT:    -7.885      2.858      4.317
REMARK INTER + INTRA:         -12.538
REMARK INTER:                 -11.039
REMARK INTRA:                  -1.499
REMARK UNBOUND:                -1.426
REMARK  Name = 
REMARK  7 active torsions:
REMARK  status: ('A' for Active; 'I' for Inactive)
REMARK    1  A    between atoms: C_2  and  C_4
REMARK    2  A    between atoms: C_4  and  N_5
REMARK    3  A    between atoms: C_4  and  C_18
REMARK    4  A    between atoms: C_6  and  C_8
REMARK    5  A    between atoms: C_21  and  C_22
REMARK    6  A    between atoms: C_22  and  N_23
REMARK    7  A    between atoms: C_24  and  C_26
REMARK                            x       y       z     vdW  Elec       q    Type
REMARK                         _______ _______ _______ _____ _____    ______ ____
ROOT
ATOM      1  C   UNL     1      46.953   5.314  14.884  0.00  0.00    +0.000 C 
ENDROOT
BRANCH   1   2
ATOM      2  C   UNL     1      46.147   5.204  13.596  0.00  0.00    +0.000 A 
ATOM      3  C   UNL     1      46.605   5.849  12.439  0.00  0.00    +0.000 A 
ATOM      4  C   UNL     1      45.923   5.708  11.228  0.00  0.00    +0.000 A 
ATOM      5  C   UNL     1      44.765   4.922  11.147  0.00  0.00    +0.000 A 
ATOM      6  C   UNL     1      44.312   4.270  12.299  0.00  0.00    +0.000 A 
ATOM      7  C   UNL     1      44.993   4.412  13.511  0.00  0.00    +0.000 A 
BRANCH   5   8
ATOM      8  C   UNL     1      44.043   4.765   9.836  0.00  0.00    +0.000 C 
BRANCH   8   9
ATOM      9  N   UNL     1      44.944   4.363   8.777  0.00  0.00    +0.000 N 
ATOM     10  C   UNL     1      45.312   3.040   8.649  0.00  0.00    +0.000 C 
ATOM     11  O   UNL     1      44.937   2.158   9.412  0.00  0.00    +0.000 OA
ATOM     12  H   UNL     1      45.091   5.010   8.016  0.00  0.00    +0.000 HD
BRANCH  10  13
ATOM     13  C   UNL     1      46.183   2.702   7.500  0.00  0.00    +0.000 A 
ATOM     14  C   UNL     1      46.301   3.512   6.369  0.00  0.00    +0.000 A 
ATOM     15  C   UNL     1      47.153   3.123   5.335  0.00  0.00    +0.000 A 
ATOM     16  C   UNL     1      47.857   1.936   5.473  0.00  0.00    +0.000 A 
ATOM     17  N   UNL     1      47.777   1.138   6.557  0.00  0.00    +0.000 NA
ATOM     18  C   UNL     1      46.949   1.543   7.554  0.00  0.00    +0.000 A 
ENDBRANCH  10  13
ENDBRANCH   8   9
ENDBRANCH   5   8
ENDBRANCH   1   2
BRANCH   1  20
ATOM     19  N   UNL     1      46.938   3.862  16.886  0.00  0.00    +0.000 N 
ATOM     20  C   UNL     1      47.245   3.940  15.549  0.00  0.00    +0.000 C 
ATOM     21  O   UNL     1      47.784   2.984  14.997  0.00  0.00    +0.000 OA
ATOM     22  H   UNL     1      47.240   3.024  17.368  0.00  0.00    +0.000 HD
ATOM     23  H   UNL     1      46.850   4.711  17.437  0.00  0.00    +0.000 HD
ENDBRANCH   1  20
BRANCH   1  24
ATOM     24  N   UNL     1      48.205   6.013  14.621  0.00  0.00    +0.000 N 
ATOM     25  C   UNL     1      48.913   6.651  15.601  0.00  0.00    +0.000 C 
ATOM     26  O   UNL     1      48.565   6.603  16.780  0.00  0.00    +0.000 OA
ATOM     27  H   UNL     1      48.458   6.140  13.648  0.00  0.00    +0.000 HD
BRANCH  25  28
ATOM     28  C   UNL     1      50.135   7.353  15.180  0.00  0.00    +0.000 A 
ATOM     29  C   UNL     1      51.342   7.068  15.804  0.00  0.00    +0.000 A 
ATOM     30  S   UNL     1      52.664   7.947  15.181  0.00  0.00    +0.000 S 
ATOM     31  C   UNL     1      51.665   8.784  14.088  0.00  0.00    +0.000 A 
ATOM     32  N   UNL     1      52.177   9.736  13.262  0.00  0.00    +0.000 NA
ATOM     33  C   UNL     1      51.305  10.316  12.510  0.00  0.00    +0.000 A 
ATOM     34  N   UNL     1      49.965  10.027  12.505  0.00  0.00    +0.000 N 
ATOM     35  C   UNL     1      49.411   9.041  13.287  0.00  0.00    +0.000 A 
ATOM     36  O   UNL     1      48.223   8.754  13.196  0.00  0.00    +0.000 OA
ATOM     37  C   UNL     1      50.345   8.377  14.177  0.00  0.00    +0.000 A 
ATOM     38  H   UNL     1      49.336  10.503  11.875  0.00  0.00    +0.000 HD
ENDBRANCH  25  28
ENDBRANCH   1  24
TORSDOF 7
ENDMDL
MODEL 3
REMARK VINA RESULT:    -7.853      1.238      1.849
REMARK INTER + INTRA:         -12.492
REMARK INTER:                 -11.526
REMARK INTRA:                  -0.966
REMARK UNBOUND:                -1.426
REMARK  Name = 
REMARK  7 active torsions:
REMARK  status: ('A' for Active; 'I' for Inactive)
REMARK    1  A    between atoms: C_2  and  C_4
REMARK    2  A    between atoms: C_4  and  N_5
REMARK    3  A    between atoms: C_4  and  C_18
REMARK    4  A    between atoms: C_6  and  C_8
REMARK    5  A    between atoms: C_21  and  C_22
REMARK    6  A    between atoms: C_22  and  N_23
REMARK    7  A    between atoms: C_24  and  C_26
REMARK                            x       y       z     vdW  Elec       q    Type
REMARK                         _______ _______ _______ _____ _____    ______ ____
ROOT
ATOM      1  C   UNL     1      48.338   7.255  14.102  0.00  0.00    +0.000 C 
ENDROOT
BRANCH   1   2
ATOM      2  C   UNL     1      47.345   6.285  13.475  0.00  0.00    +0.000 A 
ATOM      3  C   UNL     1      46.697   6.635  12.282  0.00  0.00    +0.000 A 
ATOM      4  C   UNL     1      45.835   5.736  11.650  0.00  0.00    +0.000 A 
ATOM      5  C   UNL     1      45.597   4.468  12.198  0.00  0.00    +0.000 A 
ATOM      6  C   UNL     1      46.249   4.114  13.384  0.00  0.00    +0.000 A 
ATOM      7  C   UNL     1      47.112   5.013  14.018  0.00  0.00    +0.000 A 
BRANCH   5   8
ATOM      8  C   UNL     1      44.676   3.500  11.504  0.00  0.00    +0.000 C 
BRANCH   8   9
ATOM      9  N   UNL     1      45.323   2.867  10.376  0.00  0.00    +0.000 N 
ATOM     10  C   UNL     1      45.089   3.328   9.098  0.00  0.00    +0.000 C 
ATOM     11  O   UNL     1      44.324   4.251   8.843  0.00  0.00    +0.000 OA
ATOM     12  H   UNL     1      46.111   2.263  10.565  0.00  0.00    +0.000 HD
BRANCH  10  13
ATOM     13  C   UNL     1      45.842   2.670   8.005  0.00  0.00    +0.000 A 
ATOM     14  C   UNL     1      46.185   3.319   6.818  0.00  0.00    +0.000 A 
ATOM     15  C   UNL     1      46.905   2.627   5.844  0.00  0.00    +0.000 A 
ATOM     16  C   UNL     1      47.258   1.310   6.096  0.00  0.00    +0.000 A 
ATOM     17  N   UNL     1      46.955   0.658   7.238  0.00  0.00    +0.000 NA
ATOM     18  C   UNL     1      46.263   1.356   8.174  0.00  0.00    +0.000 A 
ENDBRANCH  10  13
ENDBRANCH   8   9
ENDBRANCH   5   8
ENDBRANCH   1   2
BRANCH   1  20
ATOM     19  N   UNL     1      47.333   9.512  13.988  0.00  0.00    +0.000 N 
ATOM     20  C   UNL     1      48.294   8.676  13.474  0.00  0.00    +0.000 C 
ATOM     21  O   UNL     1      48.983   9.057  12.530  0.00  0.00    +0.000 OA
ATOM     22  H   UNL     1      47.200  10.392  13.507  0.00  0.00    +0.000 HD
ATOM     23  H   UNL     1      46.534   9.124  14.481  0.00  0.00    +0.000 HD
ENDBRANCH   1  20
BRANCH   1  24
ATOM     24  N   UNL     1      48.099   7.341  15.538  0.00  0.00    +0.000 N 
ATOM     25  C   UNL     1      48.982   6.857  16.462  0.00  0.00    +0.000 C 
ATOM     26  O   UNL     1      50.069   6.388  16.128  0.00  0.00    +0.000 OA
ATOM     27  H   UNL     1      47.175   7.640  15.827  0.00  0.00    +0.000 HD
BRANCH  25  28
ATOM     28  C   UNL     1      48.587   6.972  17.875  0.00  0.00    +0.000 A 
ATOM     29  C   UNL     1      48.201   8.205  18.382  0.00  0.00    +0.000 A 
ATOM     30  S   UNL     1      47.750   8.161  20.026  0.00  0.00    +0.000 S 
ATOM     31  C   UNL     1      48.104   6.502  20.138  0.00  0.00    +0.000 A 
ATOM     32  N   UNL     1      47.965   5.835  21.317  0.00  0.00    +0.000 NA
ATOM     33  C   UNL     1      48.301   4.591  21.270  0.00  0.00    +0.000 A 
ATOM     34  N   UNL     1      48.758   3.949  20.149  0.00  0.00    +0.000 N 
ATOM     35  C   UNL     1      48.869   4.569  18.926  0.00  0.00    +0.000 A 
ATOM     36  O   UNL     1      49.202   3.942  17.927  0.00  0.00    +0.000 OA
ATOM     37  C   UNL     1      48.533   5.981  18.929  0.00  0.00    +0.000 A 
ATOM     38  H   UNL     1      48.984   2.965  20.172  0.00  0.00    +0.000 HD
ENDBRANCH  25  28
ENDBRANCH   1  24
TORSDOF 7
ENDMDL
MODEL 4
REMARK VINA RESULT:    -7.481      3.023      4.825
REMARK INTER + INTRA:         -11.968
REMARK INTER:                 -10.577
REMARK INTRA:                  -1.391
REMARK UNBOUND:                -1.426
REMARK  Name = 
REMARK  7 active torsions:
REMARK  status: ('A' for Active; 'I' for Inactive)
REMARK    1  A    between atoms: C_2  and  C_4
REMARK    2  A    between atoms: C_4  and  N_5
REMARK    3  A    between atoms: C_4  and  C_18
REMARK    4  A    between atoms: C_6  and  C_8
REMARK    5  A    between atoms: C_21  and  C_22
REMARK    6  A    between atoms: C_22  and  N_23
REMARK    7  A    between atoms: C_24  and  C_26
REMARK                            x       y       z     vdW  Elec       q    Type
REMARK                         _______ _______ _______ _____ _____    ______ ____
ROOT
ATOM      1  C   UNL     1      47.388   5.939  14.946  0.00  0.00    +0.000 C 
ENDROOT
BRANCH   1   2
ATOM      2  C   UNL     1      46.536   5.204  13.918  0.00  0.00    +0.000 A 
ATOM      3  C   UNL     1      46.791   3.852  13.651  0.00  0.00    +0.000 A 
ATOM      4  C   UNL     1      45.981   3.137  12.764  0.00  0.00    +0.000 A 
ATOM      5  C   UNL     1      44.901   3.759  12.122  0.00  0.00    +0.000 A 
ATOM      6  C   UNL     1      44.640   5.106  12.395  0.00  0.00    +0.000 A 
ATOM      7  C   UNL     1      45.450   5.822  13.281  0.00  0.00    +0.000 A 
BRANCH   5   8
ATOM      8  C   UNL     1      44.026   2.978  11.179  0.00  0.00    +0.000 C 
BRANCH   8   9
ATOM      9  N   UNL     1      44.779   2.465  10.056  0.00  0.00    +0.000 N 
ATOM     10  C   UNL     1      45.055   3.280   8.978  0.00  0.00    +0.000 C 
ATOM     11  O   UNL     1      44.668   4.440   8.893  0.00  0.00    +0.000 OA
ATOM     12  H   UNL     1      45.290   1.604  10.188  0.00  0.00    +0.000 HD
BRANCH  10  13
ATOM     13  C   UNL     1      45.888   2.699   7.901  0.00  0.00    +0.000 A 
ATOM     14  C   UNL     1      46.237   3.401   6.745  0.00  0.00    +0.000 A 
ATOM     15  C   UNL     1      47.036   2.781   5.784  0.00  0.00    +0.000 A 
ATOM     16  C   UNL     1      47.458   1.481   6.017  0.00  0.00    +0.000 A 
ATOM     17  N   UNL     1      47.152   0.780   7.129  0.00  0.00    +0.000 NA
ATOM     18  C   UNL     1      46.382   1.409   8.053  0.00  0.00    +0.000 A 
ENDBRANCH  10  13
ENDBRANCH   8   9
ENDBRANCH   5   8
ENDBRANCH   1   2
BRANCH   1  20
ATOM     19  N   UNL     1      46.946   4.636  16.999  0.00  0.00    +0.000 N 
ATOM     20  C   UNL     1      47.901   5.023  16.091  0.00  0.00    +0.000 C 
ATOM     21  O   UNL     1      49.073   4.703  16.274  0.00  0.00    +0.000 OA
ATOM     22  H   UNL     1      47.280   4.150  17.822  0.00  0.00    +0.000 HD
ATOM     23  H   UNL     1      46.085   5.168  17.090  0.00  0.00    +0.000 HD
ENDBRANCH   1  20
BRANCH   1  24
ATOM     24  N   UNL     1      48.516   6.578  14.279  0.00  0.00    +0.000 N 
ATOM     25  C   UNL     1      48.491   7.885  13.876  0.00  0.00    +0.000 C 
ATOM     26  O   UNL     1      47.534   8.615  14.126  0.00  0.00    +0.000 OA
ATOM     27  H   UNL     1      49.274   5.971  13.986  0.00  0.00    +0.000 HD
BRANCH  25  28
ATOM     28  C   UNL     1      49.686   8.381  13.176  0.00  0.00    +0.000 A 
ATOM     29  C   UNL     1      49.560   8.939  11.911  0.00  0.00    +0.000 A 
ATOM     30  S   UNL     1      51.033   9.489  11.252  0.00  0.00    +0.000 S 
ATOM     31  C   UNL     1      51.906   8.953  12.609  0.00  0.00    +0.000 A 
ATOM     32  N   UNL     1      53.259   9.091  12.669  0.00  0.00    +0.000 NA
ATOM     33  C   UNL     1      53.798   8.612  13.738  0.00  0.00    +0.000 A 
ATOM     34  N   UNL     1      53.107   8.011  14.757  0.00  0.00    +0.000 N 
ATOM     35  C   UNL     1      51.737   7.893  14.763  0.00  0.00    +0.000 A 
ATOM     36  O   UNL     1      51.146   7.425  15.729  0.00  0.00    +0.000 OA
ATOM     37  C   UNL     1      51.081   8.389  13.567  0.00  0.00    +0.000 A 
ATOM     38  H   UNL     1      53.587   7.676  15.580  0.00  0.00    +0.000 HD
ENDBRANCH  25  28
ENDBRANCH   1  24
TORSDOF 7
ENDMDL
MODEL 5
REMARK VINA RESULT:    -7.232      1.595      1.853
REMARK INTER + INTRA:         -11.618
REMARK INTER:                 -10.084
REMARK INTRA:                  -1.533
REMARK UNBOUND:                -1.426
REMARK  Name = 
REMARK  7 active torsions:
REMARK  status: ('A' for Active; 'I' for Inactive)
REMARK    1  A    between atoms: C_2  and  C_4
REMARK    2  A    between atoms: C_4  and  N_5
REMARK    3  A    between atoms: C_4  and  C_18
REMARK    4  A    between atoms: C_6  and  C_8
REMARK    5  A    between atoms: C_21  and  C_22
REMARK    6  A    between atoms: C_22  and  N_23
REMARK    7  A    between atoms: C_24  and  C_26
REMARK                            x       y       z     vdW  Elec       q    Type
REMARK                         _______ _______ _______ _____ _____    ______ ____
ROOT
ATOM      1  C   UNL     1      48.467   8.815  14.121  0.00  0.00    +0.000 C 
ENDROOT
BRANCH   1   2
ATOM      2  C   UNL     1      47.474   8.151  13.175  0.00  0.00    +0.000 A 
ATOM      3  C   UNL     1      47.936   7.225  12.229  0.00  0.00    +0.000 A 
ATOM      4  C   UNL     1      47.038   6.551  11.397  0.00  0.00    +0.000 A 
ATOM      5  C   UNL     1      45.660   6.790  11.488  0.00  0.00    +0.000 A 
ATOM      6  C   UNL     1      45.197   7.708  12.438  0.00  0.00    +0.000 A 
ATOM      7  C   UNL     1      46.095   8.383  13.270  0.00  0.00    +0.000 A 
BRANCH   5   8
ATOM      8  C   UNL     1      44.699   6.050  10.597  0.00  0.00    +0.000 C 
BRANCH   8   9
ATOM      9  N   UNL     1      45.390   5.146   9.704  0.00  0.00    +0.000 N 
ATOM     10  C   UNL     1      44.852   3.908   9.422  0.00  0.00    +0.000 C 
ATOM     11  O   UNL     1      43.807   3.498   9.915  0.00  0.00    +0.000 OA
ATOM     12  H   UNL     1      46.122   5.529   9.123  0.00  0.00    +0.000 HD
BRANCH  10  13
ATOM     13  C   UNL     1      45.587   3.070   8.447  0.00  0.00    +0.000 A 
ATOM     14  C   UNL     1      46.117   3.574   7.257  0.00  0.00    +0.000 A 
ATOM     15  C   UNL     1      46.805   2.717   6.399  0.00  0.00    +0.000 A 
ATOM     16  C   UNL     1      46.939   1.386   6.764  0.00  0.00    +0.000 A 
ATOM     17  N   UNL     1      46.452   0.870   7.912  0.00  0.00    +0.000 NA
ATOM     18  C   UNL     1      45.795   1.727   8.735  0.00  0.00    +0.000 A 
ENDBRANCH  10  13
ENDBRANCH   8   9
ENDBRANCH   5   8
ENDBRANCH   1   2
BRANCH   1  20
ATOM     19  N   UNL     1      48.577  11.041  15.191  0.00  0.00    +0.000 N 
ATOM     20  C   UNL     1      48.495  10.364  13.999  0.00  0.00    +0.000 C 
ATOM     21  O   UNL     1      48.372  10.997  12.952  0.00  0.00    +0.000 OA
ATOM     22  H   UNL     1      48.465  12.046  15.145  0.00  0.00    +0.000 HD
ATOM     23  H   UNL     1      48.309  10.581  16.056  0.00  0.00    +0.000 HD
ENDBRANCH   1  20
BRANCH   1  24
ATOM     24  N   UNL     1      48.167   8.431  15.495  0.00  0.00    +0.000 N 
ATOM     25  C   UNL     1      48.979   7.608  16.224  0.00  0.00    +0.000 C 
ATOM     26  O   UNL     1      50.053   7.207  15.780  0.00  0.00    +0.000 OA
ATOM     27  H   UNL     1      47.247   8.676  15.844  0.00  0.00    +0.000 HD
BRANCH  25  28
ATOM     28  C   UNL     1      48.526   7.271  17.583  0.00  0.00    +0.000 A 
ATOM     29  C   UNL     1      48.395   5.939  17.953  0.00  0.00    +0.000 A 
ATOM     30  S   UNL     1      47.886   5.721  19.566  0.00  0.00    +0.000 S 
ATOM     31  C   UNL     1      47.770   7.399  19.816  0.00  0.00    +0.000 A 
ATOM     32  N   UNL     1      47.343   7.900  21.008  0.00  0.00    +0.000 NA
ATOM     33  C   UNL     1      47.268   9.187  21.051  0.00  0.00    +0.000 A 
ATOM     34  N   UNL     1      47.587  10.020  20.011  0.00  0.00    +0.000 N 
ATOM     35  C   UNL     1      48.068   9.562  18.807  0.00  0.00    +0.000 A 
ATOM     36  O   UNL     1      48.422  10.341  17.930  0.00  0.00    +0.000 OA
ATOM     37  C   UNL     1      48.142   8.117  18.694  0.00  0.00    +0.000 A 
ATOM     38  H   UNL     1      47.528  11.023  20.116  0.00  0.00    +0.000 HD
ENDBRANCH  25  28
ENDBRANCH   1  24
TORSDOF 7
ENDMDL
MODEL 6
REMARK VINA RESULT:    -7.134      3.770      5.779
REMARK INTER + INTRA:         -11.479
REMARK INTER:                 -10.002
REMARK INTRA:                  -1.477
REMARK UNBOUND:                -1.426
REMARK  Name = 
REMARK  7 active torsions:
REMARK  status: ('A' for Active; 'I' for Inactive)
REMARK    1  A    between atoms: C_2  and  C_4
REMARK    2  A    between atoms: C_4  and  N_5
REMARK    3  A    between atoms: C_4  and  C_18
REMARK    4  A    between atoms: C_6  and  C_8
REMARK    5  A    between atoms: C_21  and  C_22
REMARK    6  A    between atoms: C_22  and  N_23
REMARK    7  A    between atoms: C_24  and  C_26
REMARK                            x       y       z     vdW  Elec       q    Type
REMARK                         _______ _______ _______ _____ _____    ______ ____
ROOT
ATOM      1  C   UNL     1      48.812   7.502  14.767  0.00  0.00    +0.000 C 
ENDROOT
BRANCH   1   2
ATOM      2  C   UNL     1      47.760   7.047  13.763  0.00  0.00    +0.000 A 
ATOM      3  C   UNL     1      47.256   7.963  12.830  0.00  0.00    +0.000 A 
ATOM      4  C   UNL     1      46.342   7.555  11.854  0.00  0.00    +0.000 A 
ATOM      5  C   UNL     1      45.909   6.223  11.793  0.00  0.00    +0.000 A 
ATOM      6  C   UNL     1      46.418   5.306  12.719  0.00  0.00    +0.000 A 
ATOM      7  C   UNL     1      47.331   5.714  13.695  0.00  0.00    +0.000 A 
BRANCH   5   8
ATOM      8  C   UNL     1      44.935   5.788  10.731  0.00  0.00    +0.000 C 
BRANCH   8   9
ATOM      9  N   UNL     1      45.586   5.014   9.697  0.00  0.00    +0.000 N 
ATOM     10  C   UNL     1      45.113   3.760   9.373  0.00  0.00    +0.000 C 
ATOM     11  O   UNL     1      44.164   3.229   9.938  0.00  0.00    +0.000 OA
ATOM     12  H   UNL     1      46.216   5.499   9.074  0.00  0.00    +0.000 HD
BRANCH  10  13
ATOM     13  C   UNL     1      45.793   3.061   8.258  0.00  0.00    +0.000 A 
ATOM     14  C   UNL     1      46.184   3.704   7.081  0.00  0.00    +0.000 A 
ATOM     15  C   UNL     1      46.829   2.972   6.085  0.00  0.00    +0.000 A 
ATOM     16  C   UNL     1      47.062   1.623   6.304  0.00  0.00    +0.000 A 
ATOM     17  N   UNL     1      46.711   0.975   7.434  0.00  0.00    +0.000 NA
ATOM     18  C   UNL     1      46.093   1.711   8.393  0.00  0.00    +0.000 A 
ENDBRANCH  10  13
ENDBRANCH   8   9
ENDBRANCH   5   8
ENDBRANCH   1   2
BRANCH   1  20
ATOM     19  N   UNL     1      48.103   6.996  17.081  0.00  0.00    +0.000 N 
ATOM     20  C   UNL     1      48.892   6.599  16.029  0.00  0.00    +0.000 C 
ATOM     21  O   UNL     1      49.646   5.638  16.169  0.00  0.00    +0.000 OA
ATOM     22  H   UNL     1      48.237   6.501  17.955  0.00  0.00    +0.000 HD
ATOM     23  H   UNL     1      47.772   7.955  17.134  0.00  0.00    +0.000 HD
ENDBRANCH   1  20
BRANCH   1  24
ATOM     24  N   UNL     1      50.116   7.563  14.117  0.00  0.00    +0.000 N 
ATOM     25  C   UNL     1      50.817   8.728  13.979  0.00  0.00    +0.000 C 
ATOM     26  O   UNL     1      50.414   9.781  14.468  0.00  0.00    +0.000 OA
ATOM     27  H   UNL     1      50.420   6.726  13.631  0.00  0.00    +0.000 HD
BRANCH  25  28
ATOM     28  C   UNL     1      52.099   8.644  13.262  0.00  0.00    +0.000 A 
ATOM     29  C   UNL     1      53.266   9.063  13.886  0.00  0.00    +0.000 A 
ATOM     30  S   UNL     1      54.664   8.875  12.929  0.00  0.00    +0.000 S 
ATOM     31  C   UNL     1      53.757   8.276  11.621  0.00  0.00    +0.000 A 
ATOM     32  N   UNL     1      54.359   7.948  10.445  0.00  0.00    +0.000 NA
ATOM     33  C   UNL     1      53.551   7.540   9.526  0.00  0.00    +0.000 A 
ATOM     34  N   UNL     1      52.194   7.425   9.678  0.00  0.00    +0.000 N 
ATOM     35  C   UNL     1      51.548   7.699  10.861  0.00  0.00    +0.000 A 
ATOM     36  O   UNL     1      50.345   7.505  10.984  0.00  0.00    +0.000 OA
ATOM     37  C   UNL     1      52.408   8.193  11.921  0.00  0.00    +0.000 A 
ATOM     38  H   UNL     1      51.618   7.077   8.925  0.00  0.00    +0.000 HD
ENDBRANCH  25  28
ENDBRANCH   1  24
TORSDOF 7
ENDMDL
MODEL 7
REMARK VINA RESULT:    -7.062      3.662      6.124
REMARK INTER + INTRA:         -11.378
REMARK INTER:                 -10.340
REMARK INTRA:                  -1.038
REMARK UNBOUND:                -1.426
REMARK  Name = 
REMARK  7 active torsions:
REMARK  status: ('A' for Active; 'I' for Inactive)
REMARK    1  A    between atoms: C_2  and  C_4
REMARK    2  A    between atoms: C_4  and  N_5
REMARK    3  A    between atoms: C_4  and  C_18
REMARK    4  A    between atoms: C_6  and  C_8
REMARK    5  A    between atoms: C_21  and  C_22
REMARK    6  A    between atoms: C_22  and  N_23
REMARK    7  A    between atoms: C_24  and  C_26
REMARK                            x       y       z     vdW  Elec       q    Type
REMARK                         _______ _______ _______ _____ _____    ______ ____
ROOT
ATOM      1  C   UNL     1      47.687   7.948  13.921  0.00  0.00    +0.000 C 
ENDROOT
BRANCH   1   2
ATOM      2  C   UNL     1      46.646   7.109  13.190  0.00  0.00    +0.000 A 
ATOM      3  C   UNL     1      45.665   7.745  12.418  0.00  0.00    +0.000 A 
ATOM      4  C   UNL     1      44.742   6.997  11.683  0.00  0.00    +0.000 A 
ATOM      5  C   UNL     1      44.776   5.596  11.706  0.00  0.00    +0.000 A 
ATOM      6  C   UNL     1      45.761   4.959  12.470  0.00  0.00    +0.000 A 
ATOM      7  C   UNL     1      46.684   5.707  13.206  0.00  0.00    +0.000 A 
BRANCH   5   8
ATOM      8  C   UNL     1      43.786   4.798  10.901  0.00  0.00    +0.000 C 
BRANCH   8   9
ATOM      9  N   UNL     1      44.445   3.798  10.089  0.00  0.00    +0.000 N 
ATOM     10  C   UNL     1      45.249   4.182   9.037  0.00  0.00    +0.000 C 
ATOM     11  O   UNL     1      45.427   5.351   8.717  0.00  0.00    +0.000 OA
ATOM     12  H   UNL     1      44.496   2.857  10.454  0.00  0.00    +0.000 HD
BRANCH  10  13
ATOM     13  C   UNL     1      45.940   3.100   8.299  0.00  0.00    +0.000 A 
ATOM     14  C   UNL     1      46.823   3.341   7.244  0.00  0.00    +0.000 A 
ATOM     15  C   UNL     1      47.440   2.264   6.610  0.00  0.00    +0.000 A 
ATOM     16  C   UNL     1      47.152   0.983   7.056  0.00  0.00    +0.000 A 
ATOM     17  N   UNL     1      46.316   0.716   8.081  0.00  0.00    +0.000 NA
ATOM     18  C   UNL     1      45.736   1.782   8.688  0.00  0.00    +0.000 A 
ENDBRANCH  10  13
ENDBRANCH   8   9
ENDBRANCH   5   8
ENDBRANCH   1   2
BRANCH   1  20
ATOM     19  N   UNL     1      48.219   7.142  16.197  0.00  0.00    +0.000 N 
ATOM     20  C   UNL     1      48.590   7.118  14.875  0.00  0.00    +0.000 C 
ATOM     21  O   UNL     1      49.619   6.532  14.548  0.00  0.00    +0.000 OA
ATOM     22  H   UNL     1      48.864   6.719  16.853  0.00  0.00    +0.000 HD
ATOM     23  H   UNL     1      47.625   7.890  16.545  0.00  0.00    +0.000 HD
ENDBRANCH   1  20
BRANCH   1  24
ATOM     24  N   UNL     1      48.511   8.659  12.952  0.00  0.00    +0.000 N 
ATOM     25  C   UNL     1      49.124   9.848  13.236  0.00  0.00    +0.000 C 
ATOM     26  O   UNL     1      49.071  10.345  14.359  0.00  0.00    +0.000 OA
ATOM     27  H   UNL     1      48.492   8.313  11.999  0.00  0.00    +0.000 HD
BRANCH  25  28
ATOM     28  C   UNL     1      49.888  10.473  12.145  0.00  0.00    +0.000 A 
ATOM     29  C   UNL     1      51.275  10.482  12.193  0.00  0.00    +0.000 A 
ATOM     30  S   UNL     1      52.006  11.220  10.841  0.00  0.00    +0.000 S 
ATOM     31  C   UNL     1      50.495  11.605  10.163  0.00  0.00    +0.000 A 
ATOM     32  N   UNL     1      50.410  12.291   8.990  0.00  0.00    +0.000 NA
ATOM     33  C   UNL     1      49.205  12.546   8.607  0.00  0.00    +0.000 A 
ATOM     34  N   UNL     1      48.075  12.173   9.287  0.00  0.00    +0.000 N 
ATOM     35  C   UNL     1      48.112  11.439  10.449  0.00  0.00    +0.000 A 
ATOM     36  O   UNL     1      47.080  11.052  10.986  0.00  0.00    +0.000 OA
ATOM     37  C   UNL     1      49.446  11.150  10.943  0.00  0.00    +0.000 A 
ATOM     38  H   UNL     1      47.159  12.385   8.922  0.00  0.00    +0.000 HD
ENDBRANCH  25  28
ENDBRANCH   1  24
TORSDOF 7
ENDMDL
MODEL 8
REMARK VINA RESULT:    -6.726      5.128      8.171
REMARK INTER + INTRA:         -10.904
REMARK INTER:                 -10.094
REMARK INTRA:                  -0.810
REMARK UNBOUND:                -1.426
REMARK  Name = 
REMARK  7 active torsions:
REMARK  status: ('A' for Active; 'I' for Inactive)
REMARK    1  A    between atoms: C_2  and  C_4
REMARK    2  A    between atoms: C_4  and  N_5
REMARK    3  A    between atoms: C_4  and  C_18
REMARK    4  A    between atoms: C_6  and  C_8
REMARK    5  A    between atoms: C_21  and  C_22
REMARK    6  A    between atoms: C_22  and  N_23
REMARK    7  A    between atoms: C_24  and  C_26
REMARK                            x       y       z     vdW  Elec       q    Type
REMARK                         _______ _______ _______ _____ _____    ______ ____
ROOT
ATOM      1  C   UNL     1      45.574   8.294  12.332  0.00  0.00    +0.000 C 
ENDROOT
BRANCH   1   2
ATOM      2  C   UNL     1      47.057   8.427  12.008  0.00  0.00    +0.000 A 
ATOM      3  C   UNL     1      47.633   9.702  11.919  0.00  0.00    +0.000 A 
ATOM      4  C   UNL     1      49.003   9.849  11.691  0.00  0.00    +0.000 A 
ATOM      5  C   UNL     1      49.829   8.726  11.543  0.00  0.00    +0.000 A 
ATOM      6  C   UNL     1      49.257   7.453  11.641  0.00  0.00    +0.000 A 
ATOM      7  C   UNL     1      47.886   7.304  11.867  0.00  0.00    +0.000 A 
BRANCH   5   8
ATOM      8  C   UNL     1      51.306   8.893  11.311  0.00  0.00    +0.000 C 
BRANCH   8   9
ATOM      9  N   UNL     1      51.846   7.811  10.516  0.00  0.00    +0.000 N 
ATOM     10  C   UNL     1      52.508   8.083   9.338  0.00  0.00    +0.000 C 
ATOM     11  O   UNL     1      52.652   9.215   8.891  0.00  0.00    +0.000 OA
ATOM     12  H   UNL     1      51.937   6.907  10.956  0.00  0.00    +0.000 HD
BRANCH  10  13
ATOM     13  C   UNL     1      53.088   6.926   8.619  0.00  0.00    +0.000 A 
ATOM     14  C   UNL     1      54.107   6.132   9.150  0.00  0.00    +0.000 A 
ATOM     15  C   UNL     1      54.589   5.053   8.409  0.00  0.00    +0.000 A 
ATOM     16  C   UNL     1      54.032   4.807   7.164  0.00  0.00    +0.000 A 
ATOM     17  N   UNL     1      53.037   5.546   6.628  0.00  0.00    +0.000 NA
ATOM     18  C   UNL     1      52.579   6.584   7.372  0.00  0.00    +0.000 A 
ENDBRANCH  10  13
ENDBRANCH   8   9
ENDBRANCH   5   8
ENDBRANCH   1   2
BRANCH   1  20
ATOM     19  N   UNL     1      44.048   9.196  10.609  0.00  0.00    +0.000 N 
ATOM     20  C   UNL     1      44.714   9.464  11.779  0.00  0.00    +0.000 C 
ATOM     21  O   UNL     1      44.658  10.594  12.260  0.00  0.00    +0.000 OA
ATOM     22  H   UNL     1      43.589   9.980  10.163  0.00  0.00    +0.000 HD
ATOM     23  H   UNL     1      44.359   8.435  10.010  0.00  0.00    +0.000 HD
ENDBRANCH   1  20
BRANCH   1  24
ATOM     24  N   UNL     1      45.072   7.025  11.820  0.00  0.00    +0.000 N 
ATOM     25  C   UNL     1      45.130   5.864  12.541  0.00  0.00    +0.000 C 
ATOM     26  O   UNL     1      45.544   5.848  13.698  0.00  0.00    +0.000 OA
ATOM     27  H   UNL     1      44.813   7.001  10.840  0.00  0.00    +0.000 HD
BRANCH  25  28
ATOM     28  C   UNL     1      44.626   4.651  11.878  0.00  0.00    +0.000 A 
ATOM     29  C   UNL     1      43.869   3.738  12.598  0.00  0.00    +0.000 A 
ATOM     30  S   UNL     1      43.342   2.403  11.677  0.00  0.00    +0.000 S 
ATOM     31  C   UNL     1      44.151   2.967  10.292  0.00  0.00    +0.000 A 
ATOM     32  N   UNL     1      44.133   2.254   9.133  0.00  0.00    +0.000 NA
ATOM     33  C   UNL     1      44.815   2.778   8.172  0.00  0.00    +0.000 A 
ATOM     34  N   UNL     1      45.511   3.955   8.262  0.00  0.00    +0.000 N 
ATOM     35  C   UNL     1      45.518   4.733   9.396  0.00  0.00    +0.000 A 
ATOM     36  O   UNL     1      46.084   5.820   9.414  0.00  0.00    +0.000 OA
ATOM     37  C   UNL     1      44.791   4.173  10.520  0.00  0.00    +0.000 A 
ATOM     38  H   UNL     1      46.008   4.324   7.465  0.00  0.00    +0.000 HD
ENDBRANCH  25  28
ENDBRANCH   1  24
TORSDOF 7
ENDMDL
MODEL 9
REMARK VINA RESULT:    -6.505      4.160      6.416
REMARK INTER + INTRA:         -10.593
REMARK INTER:                  -9.371
REMARK INTRA:                  -1.222
REMARK UNBOUND:                -1.426
REMARK  Name = 
REMARK  7 active torsions:
REMARK  status: ('A' for Active; 'I' for Inactive)
REMARK    1  A    between atoms: C_2  and  C_4
REMARK    2  A    between atoms: C_4  and  N_5
REMARK    3  A    between atoms: C_4  and  C_18
REMARK    4  A    between atoms: C_6  and  C_8
REMARK    5  A    between atoms: C_21  and  C_22
REMARK    6  A    between atoms: C_22  and  N_23
REMARK    7  A    between atoms: C_24  and  C_26
REMARK                            x       y       z     vdW  Elec       q    Type
REMARK                         _______ _______ _______ _____ _____    ______ ____
ROOT
ATOM      1  C   UNL     1      47.861   9.259  13.348  0.00  0.00    +0.000 C 
ENDROOT
BRANCH   1   2
ATOM      2  C   UNL     1      46.973   8.100  12.914  0.00  0.00    +0.000 A 
ATOM      3  C   UNL     1      45.728   8.367  12.327  0.00  0.00    +0.000 A 
ATOM      4  C   UNL     1      44.925   7.325  11.857  0.00  0.00    +0.000 A 
ATOM      5  C   UNL     1      45.345   5.992  11.968  0.00  0.00    +0.000 A 
ATOM      6  C   UNL     1      46.591   5.725  12.546  0.00  0.00    +0.000 A 
ATOM      7  C   UNL     1      47.395   6.767  13.016  0.00  0.00    +0.000 A 
BRANCH   5   8
ATOM      8  C   UNL     1      44.479   4.876  11.448  0.00  0.00    +0.000 C 
BRANCH   8   9
ATOM      9  N   UNL     1      45.219   3.995  10.570  0.00  0.00    +0.000 N 
ATOM     10  C   UNL     1      44.855   3.874   9.246  0.00  0.00    +0.000 C 
ATOM     11  O   UNL     1      43.899   4.462   8.753  0.00  0.00    +0.000 OA
ATOM     12  H   UNL     1      46.125   3.675  10.882  0.00  0.00    +0.000 HD
BRANCH  10  13
ATOM     13  C   UNL     1      45.703   3.004   8.400  0.00  0.00    +0.000 A 
ATOM     14  C   UNL     1      45.778   1.620   8.565  0.00  0.00    +0.000 A 
ATOM     15  C   UNL     1      46.596   0.873   7.716  0.00  0.00    +0.000 A 
ATOM     16  C   UNL     1      47.307   1.541   6.731  0.00  0.00    +0.000 A 
ATOM     17  N   UNL     1      47.247   2.875   6.535  0.00  0.00    +0.000 NA
ATOM     18  C   UNL     1      46.437   3.577   7.367  0.00  0.00    +0.000 A 
ENDBRANCH  10  13
ENDBRANCH   8   9
ENDBRANCH   5   8
ENDBRANCH   1   2
BRANCH   1  20
ATOM     19  N   UNL     1      47.471   9.123  15.786  0.00  0.00    +0.000 N 
ATOM     20  C   UNL     1      48.417   9.104  14.791  0.00  0.00    +0.000 C 
ATOM     21  O   UNL     1      49.608   9.049  15.091  0.00  0.00    +0.000 OA
ATOM     22  H   UNL     1      47.819   9.156  16.736  0.00  0.00    +0.000 HD
ATOM     23  H   UNL     1      46.557   9.531  15.609  0.00  0.00    +0.000 HD
ENDBRANCH   1  20
BRANCH   1  24
ATOM     24  N   UNL     1      48.963   9.411  12.406  0.00  0.00    +0.000 N 
ATOM     25  C   UNL     1      49.443  10.633  12.023  0.00  0.00    +0.000 C 
ATOM     26  O   UNL     1      49.015  11.674  12.518  0.00  0.00    +0.000 OA
ATOM     27  H   UNL     1      49.266   8.573  11.922  0.00  0.00    +0.000 HD
BRANCH  25  28
ATOM     28  C   UNL     1      50.529  10.633  11.031  0.00  0.00    +0.000 A 
ATOM     29  C   UNL     1      50.516  11.560   9.997  0.00  0.00    +0.000 A 
ATOM     30  S   UNL     1      51.858  11.443   8.951  0.00  0.00    +0.000 S 
ATOM     31  C   UNL     1      52.481  10.113   9.808  0.00  0.00    +0.000 A 
ATOM     32  N   UNL     1      53.625   9.495   9.403  0.00  0.00    +0.000 NA
ATOM     33  C   UNL     1      53.966   8.480  10.122  0.00  0.00    +0.000 A 
ATOM     34  N   UNL     1      53.272   8.029  11.214  0.00  0.00    +0.000 N 
ATOM     35  C   UNL     1      52.140   8.650  11.687  0.00  0.00    +0.000 A 
ATOM     36  O   UNL     1      51.592   8.268  12.715  0.00  0.00    +0.000 OA
ATOM     37  C   UNL     1      51.692   9.781  10.896  0.00  0.00    +0.000 A 
ATOM     38  H   UNL     1      53.605   7.240  11.748  0.00  0.00    +0.000 HD
ENDBRANCH  25  28
ENDBRANCH   1  24
TORSDOF 7
ENDMDL
