MODEL 1
REMARK VINA RESULT:    -7.227      0.000      0.000
REMARK INTER + INTRA:         -12.701
REMARK INTER:                 -10.818
REMARK INTRA:                  -1.882
REMARK UNBOUND:                -1.882
REMARK  Name = 
REMARK  10 active torsions:
REMARK  status: ('A' for Active; 'I' for Inactive)
REMARK    1  A    between atoms: C_1  and  C_2
REMARK    2  A    between atoms: C_2  and  C_3
REMARK    3  A    between atoms: C_3  and  N_4
REMARK    4  A    between atoms: N_4  and  C_5
REMARK    5  A    between atoms: C_5  and  C_6
REMARK    6  A    between atoms: C_9  and  C_10
REMARK    7  A    between atoms: C_10  and  N_11
REMARK    8  A    between atoms: N_11  and  C_12
REMARK    9  A    between atoms: C_17  and  N_18
REMARK   10  A    between atoms: C_21  and  C_23
REMARK                            x       y       z     vdW  Elec       q    Type
REMARK                         _______ _______ _______ _____ _____    ______ ____
ROOT
ATOM      1  C   UNL     1      47.330   6.274  12.475  0.00  0.00    +0.000 C 
ENDROOT
BRANCH   1   2
ATOM      2  C   UNL     1      47.544   5.780  13.896  0.00  0.00    +0.000 A 
ATOM      3  C   UNL     1      46.930   4.631  14.422  0.00  0.00    +0.000 A 
ATOM      4  C   UNL     1      47.181   4.207  15.732  0.00  0.00    +0.000 A 
ATOM      5  C   UNL     1      48.029   4.940  16.568  0.00  0.00    +0.000 A 
ATOM      6  C   UNL     1      48.655   6.079  16.045  0.00  0.00    +0.000 A 
ATOM      7  C   UNL     1      48.425   6.484  14.727  0.00  0.00    +0.000 A 
BRANCH   5   8
ATOM      8  C   UNL     1      48.234   4.555  18.015  0.00  0.00    +0.000 C 
BRANCH   8   9
ATOM      9  N   UNL     1      47.239   5.085  18.952  0.00  0.00    +0.000 NA
ATOM     10  H   UNL     1      46.955   4.331  19.572  0.00  0.00    +0.000 HD
BRANCH   9  11
ATOM     11  C   UNL     1      47.705   6.218  19.772  0.00  0.00    +0.000 C 
ATOM     12  C   UNL     1      47.304   7.589  19.201  0.00  0.00    +0.000 C 
ATOM     13  C   UNL     1      47.868   8.714  20.067  0.00  0.00    +0.000 C 
ATOM     14  C   UNL     1      47.400   8.601  21.514  0.00  0.00    +0.000 C 
ATOM     15  C   UNL     1      47.713   7.228  22.107  0.00  0.00    +0.000 C 
ATOM     16  C   UNL     1      47.164   6.093  21.234  0.00  0.00    +0.000 C 
BRANCH  16  17
ATOM     17  N   UNL     1      47.513   4.806  21.859  0.00  0.00    +0.000 NA
ATOM     18  H   UNL     1      48.098   4.268  21.222  0.00  0.00    +0.000 HD
ATOM     19  H   UNL     1      46.660   4.269  22.006  0.00  0.00    +0.000 HD
ENDBRANCH  16  17
ENDBRANCH   9  11
ENDBRANCH   8   9
ENDBRANCH   5   8
ENDBRANCH   1   2
BRANCH   1  20
ATOM     20  N   UNL     1      46.121   7.073  12.288  0.00  0.00    +0.000 N 
ATOM     21  C   UNL     1      44.842   6.616  11.899  0.00  0.00    +0.000 C 
ATOM     22  O   UNL     1      43.946   7.447  11.760  0.00  0.00    +0.000 OA
BRANCH  21  23
ATOM     23  C   UNL     1      44.512   5.176  11.697  0.00  0.00    +0.000 A 
ATOM     24  C   UNL     1      43.857   4.325  12.573  0.00  0.00    +0.000 A 
ATOM     25  S   UNL     1      43.501   2.774  11.972  0.00  0.00    +0.000 S 
ATOM     26  C   UNL     1      44.200   3.153  10.480  0.00  0.00    +0.000 A 
ATOM     27  N   UNL     1      44.172   2.238   9.479  0.00  0.00    +0.000 NA
ATOM     28  C   UNL     1      44.698   2.650   8.374  0.00  0.00    +0.000 A 
ATOM     29  N   UNL     1      45.261   3.882   8.195  0.00  0.00    +0.000 N 
ATOM     30  C   UNL     1      45.430   4.796   9.220  0.00  0.00    +0.000 A 
ATOM     31  O   UNL     1      46.164   5.758   9.049  0.00  0.00    +0.000 OA
ATOM     32  C   UNL     1      44.750   4.426  10.459  0.00  0.00    +0.000 A 
ATOM     33  H   UNL     1      45.729   4.112   7.333  0.00  0.00    +0.000 HD
ENDBRANCH  21  23
BRANCH  20  34
ATOM     34  C   UNL     1      46.291   8.524  12.501  0.00  0.00    +0.000 C 
BRANCH  34  36
ATOM     35  C   UNL     1      48.391   9.867  13.120  0.00  0.00    +0.000 C 
ATOM     36  C   UNL     1      47.654   9.077  12.051  0.00  0.00    +0.000 C 
ENDBRANCH  34  36
ENDBRANCH  20  34
ENDBRANCH   1  20
TORSDOF 9
ENDMDL
MODEL 2
REMARK VINA RESULT:    -7.065      3.498      8.550
REMARK INTER + INTRA:         -12.457
REMARK INTER:                 -10.641
REMARK INTRA:                  -1.817
REMARK UNBOUND:                -1.882
REMARK  Name = 
REMARK  10 active torsions:
REMARK  status: ('A' for Active; 'I' for Inactive)
REMARK    1  A    between atoms: C_1  and  C_2
REMARK    2  A    between atoms: C_2  and  C_3
REMARK    3  A    between atoms: C_3  and  N_4
REMARK    4  A    between atoms: N_4  and  C_5
REMARK    5  A    between atoms: C_5  and  C_6
REMARK    6  A    between atoms: C_9  and  C_10
REMARK    7  A    between atoms: C_10  and  N_11
REMARK    8  A    between atoms: N_11  and  C_12
REMARK    9  A    between atoms: C_17  and  N_18
REMARK   10  A    between atoms: C_21  and  C_23
REMARK                            x       y       z     vdW  Elec       q    Type
REMARK                         _______ _______ _______ _____ _____    ______ ____
ROOT
ATOM      1  C   UNL     1      49.321   6.958  14.967  0.00  0.00    +0.000 C 
ENDROOT
BRANCH   1   2
ATOM      2  C   UNL     1      48.181   6.791  13.975  0.00  0.00    +0.000 A 
ATOM      3  C   UNL     1      47.297   5.700  13.981  0.00  0.00    +0.000 A 
ATOM      4  C   UNL     1      46.248   5.607  13.058  0.00  0.00    +0.000 A 
ATOM      5  C   UNL     1      46.074   6.589  12.078  0.00  0.00    +0.000 A 
ATOM      6  C   UNL     1      46.943   7.687  12.075  0.00  0.00    +0.000 A 
ATOM      7  C   UNL     1      47.972   7.792  13.016  0.00  0.00    +0.000 A 
BRANCH   5   8
ATOM      8  C   UNL     1      45.011   6.457  11.012  0.00  0.00    +0.000 C 
BRANCH   8   9
ATOM      9  N   UNL     1      44.224   5.221  11.061  0.00  0.00    +0.000 NA
ATOM     10  H   UNL     1      43.242   5.474  11.129  0.00  0.00    +0.000 HD
BRANCH   9  11
ATOM     11  C   UNL     1      44.400   4.330   9.900  0.00  0.00    +0.000 C 
ATOM     12  C   UNL     1      45.597   4.715   9.013  0.00  0.00    +0.000 C 
ATOM     13  C   UNL     1      45.684   3.788   7.801  0.00  0.00    +0.000 C 
ATOM     14  C   UNL     1      45.798   2.326   8.217  0.00  0.00    +0.000 C 
ATOM     15  C   UNL     1      44.668   1.911   9.158  0.00  0.00    +0.000 C 
ATOM     16  C   UNL     1      44.564   2.848  10.369  0.00  0.00    +0.000 C 
BRANCH  16  17
ATOM     17  N   UNL     1      43.451   2.396  11.220  0.00  0.00    +0.000 NA
ATOM     18  H   UNL     1      43.298   3.074  11.964  0.00  0.00    +0.000 HD
ATOM     19  H   UNL     1      43.712   1.518  11.665  0.00  0.00    +0.000 HD
ENDBRANCH  16  17
ENDBRANCH   9  11
ENDBRANCH   8   9
ENDBRANCH   5   8
ENDBRANCH   1   2
BRANCH   1  20
ATOM     20  N   UNL     1      48.922   7.515  16.257  0.00  0.00    +0.000 N 
ATOM     21  C   UNL     1      48.486   6.807  17.400  0.00  0.00    +0.000 C 
ATOM     22  O   UNL     1      48.158   7.453  18.394  0.00  0.00    +0.000 OA
BRANCH  21  23
ATOM     23  C   UNL     1      48.450   5.318  17.477  0.00  0.00    +0.000 A 
ATOM     24  C   UNL     1      47.341   4.491  17.385  0.00  0.00    +0.000 A 
ATOM     25  S   UNL     1      47.664   2.821  17.360  0.00  0.00    +0.000 S 
ATOM     26  C   UNL     1      49.328   3.105  17.460  0.00  0.00    +0.000 A 
ATOM     27  N   UNL     1      50.186   2.055  17.428  0.00  0.00    +0.000 NA
ATOM     28  C   UNL     1      51.432   2.393  17.471  0.00  0.00    +0.000 A 
ATOM     29  N   UNL     1      51.885   3.678  17.561  0.00  0.00    +0.000 N 
ATOM     30  C   UNL     1      51.049   4.767  17.729  0.00  0.00    +0.000 A 
ATOM     31  O   UNL     1      51.526   5.843  18.058  0.00  0.00    +0.000 OA
ATOM     32  C   UNL     1      49.631   4.454  17.570  0.00  0.00    +0.000 A 
ATOM     33  H   UNL     1      52.868   3.869  17.675  0.00  0.00    +0.000 HD
ENDBRANCH  21  23
BRANCH  20  34
ATOM     34  C   UNL     1      48.954   8.989  16.340  0.00  0.00    +0.000 C 
BRANCH  34  36
ATOM     35  C   UNL     1      49.619  10.733  14.575  0.00  0.00    +0.000 C 
ATOM     36  C   UNL     1      50.085   9.646  15.531  0.00  0.00    +0.000 C 
ENDBRANCH  34  36
ENDBRANCH  20  34
ENDBRANCH   1  20
TORSDOF 9
ENDMDL
MODEL 3
REMARK VINA RESULT:    -7.063      3.141      8.976
REMARK INTER + INTRA:         -12.455
REMARK INTER:                 -11.053
REMARK INTRA:                  -1.402
REMARK UNBOUND:                -1.882
REMARK  Name = 
REMARK  10 active torsions:
REMARK  status: ('A' for Active; 'I' for Inactive)
REMARK    1  A    between atoms: C_1  and  C_2
REMARK    2  A    between atoms: C_2  and  C_3
REMARK    3  A    between atoms: C_3  and  N_4
REMARK    4  A    between atoms: N_4  and  C_5
REMARK    5  A    between atoms: C_5  and  C_6
REMARK    6  A    between atoms: C_9  and  C_10
REMARK    7  A    between atoms: C_10  and  N_11
REMARK    8  A    between atoms: N_11  and  C_12
REMARK    9  A    between atoms: C_17  and  N_18
REMARK   10  A    between atoms: C_21  and  C_23
REMARK                            x       y       z     vdW  Elec       q    Type
REMARK                         _______ _______ _______ _____ _____    ______ ____
ROOT
ATOM      1  C   UNL     1      47.348   7.811  13.840  0.00  0.00    +0.000 C 
ENDROOT
BRANCH   1   2
ATOM      2  C   UNL     1      46.513   6.690  13.244  0.00  0.00    +0.000 A 
ATOM      3  C   UNL     1      45.446   6.902  12.356  0.00  0.00    +0.000 A 
ATOM      4  C   UNL     1      44.724   5.830  11.817  0.00  0.00    +0.000 A 
ATOM      5  C   UNL     1      45.028   4.514  12.178  0.00  0.00    +0.000 A 
ATOM      6  C   UNL     1      46.100   4.295  13.053  0.00  0.00    +0.000 A 
ATOM      7  C   UNL     1      46.838   5.365  13.567  0.00  0.00    +0.000 A 
BRANCH   5   8
ATOM      8  C   UNL     1      44.197   3.351  11.686  0.00  0.00    +0.000 C 
BRANCH   8   9
ATOM      9  N   UNL     1      43.963   3.315  10.240  0.00  0.00    +0.000 NA
ATOM     10  H   UNL     1      43.651   4.237   9.946  0.00  0.00    +0.000 HD
BRANCH   9  11
ATOM     11  C   UNL     1      45.138   2.937   9.433  0.00  0.00    +0.000 C 
ATOM     12  C   UNL     1      45.040   1.521   8.840  0.00  0.00    +0.000 C 
ATOM     13  C   UNL     1      46.313   1.176   8.068  0.00  0.00    +0.000 C 
ATOM     14  C   UNL     1      46.588   2.183   6.957  0.00  0.00    +0.000 C 
ATOM     15  C   UNL     1      46.626   3.617   7.484  0.00  0.00    +0.000 C 
ATOM     16  C   UNL     1      45.357   3.964   8.275  0.00  0.00    +0.000 C 
BRANCH  16  17
ATOM     17  N   UNL     1      45.470   5.350   8.760  0.00  0.00    +0.000 NA
ATOM     18  H   UNL     1      45.427   5.990   7.968  0.00  0.00    +0.000 HD
ATOM     19  H   UNL     1      46.384   5.474   9.192  0.00  0.00    +0.000 HD
ENDBRANCH  16  17
ENDBRANCH   9  11
ENDBRANCH   8   9
ENDBRANCH   5   8
ENDBRANCH   1   2
BRANCH   1  20
ATOM     20  N   UNL     1      48.782   7.537  13.888  0.00  0.00    +0.000 N 
ATOM     21  C   UNL     1      49.631   7.602  15.016  0.00  0.00    +0.000 C 
ATOM     22  O   UNL     1      50.828   7.367  14.856  0.00  0.00    +0.000 OA
BRANCH  21  23
ATOM     23  C   UNL     1      49.142   7.891  16.395  0.00  0.00    +0.000 A 
ATOM     24  C   UNL     1      49.020   9.128  17.008  0.00  0.00    +0.000 A 
ATOM     25  S   UNL     1      48.282   9.124  18.542  0.00  0.00    +0.000 S 
ATOM     26  C   UNL     1      48.067   7.448  18.472  0.00  0.00    +0.000 A 
ATOM     27  N   UNL     1      47.426   6.816  19.487  0.00  0.00    +0.000 NA
ATOM     28  C   UNL     1      47.283   5.545  19.308  0.00  0.00    +0.000 A 
ATOM     29  N   UNL     1      47.741   4.857  18.220  0.00  0.00    +0.000 N 
ATOM     30  C   UNL     1      48.512   5.435  17.227  0.00  0.00    +0.000 A 
ATOM     31  O   UNL     1      49.097   4.717  16.429  0.00  0.00    +0.000 OA
ATOM     32  C   UNL     1      48.603   6.890  17.321  0.00  0.00    +0.000 A 
ATOM     33  H   UNL     1      47.671   3.853  18.180  0.00  0.00    +0.000 HD
ENDBRANCH  21  23
BRANCH  20  34
ATOM     34  C   UNL     1      49.397   7.190  12.592  0.00  0.00    +0.000 C 
BRANCH  34  36
ATOM     35  C   UNL     1      50.314   9.350  11.545  0.00  0.00    +0.000 C 
ATOM     36  C   UNL     1      49.244   8.270  11.507  0.00  0.00    +0.000 C 
ENDBRANCH  34  36
ENDBRANCH  20  34
ENDBRANCH   1  20
TORSDOF 9
ENDMDL
MODEL 4
REMARK VINA RESULT:    -6.917      1.296      2.133
REMARK INTER + INTRA:         -12.236
REMARK INTER:                 -10.443
REMARK INTRA:                  -1.794
REMARK UNBOUND:                -1.882
REMARK  Name = 
REMARK  10 active torsions:
REMARK  status: ('A' for Active; 'I' for Inactive)
REMARK    1  A    between atoms: C_1  and  C_2
REMARK    2  A    between atoms: C_2  and  C_3
REMARK    3  A    between atoms: C_3  and  N_4
REMARK    4  A    between atoms: N_4  and  C_5
REMARK    5  A    between atoms: C_5  and  C_6
REMARK    6  A    between atoms: C_9  and  C_10
REMARK    7  A    between atoms: C_10  and  N_11
REMARK    8  A    between atoms: N_11  and  C_12
REMARK    9  A    between atoms: C_17  and  N_18
REMARK   10  A    between atoms: C_21  and  C_23
REMARK                            x       y       z     vdW  Elec       q    Type
REMARK                         _______ _______ _______ _____ _____    ______ ____
ROOT
ATOM      1  C   UNL     1      47.723   6.576  12.530  0.00  0.00    +0.000 C 
ENDROOT
BRANCH   1   2
ATOM      2  C   UNL     1      47.880   6.058  13.951  0.00  0.00    +0.000 A 
ATOM      3  C   UNL     1      48.756   6.621  14.892  0.00  0.00    +0.000 A 
ATOM      4  C   UNL     1      48.844   6.120  16.197  0.00  0.00    +0.000 A 
ATOM      5  C   UNL     1      48.079   5.016  16.588  0.00  0.00    +0.000 A 
ATOM      6  C   UNL     1      47.193   4.459  15.658  0.00  0.00    +0.000 A 
ATOM      7  C   UNL     1      47.086   4.979  14.365  0.00  0.00    +0.000 A 
BRANCH   5   8
ATOM      8  C   UNL     1      48.233   4.398  17.959  0.00  0.00    +0.000 C 
BRANCH   8   9
ATOM      9  N   UNL     1      47.289   4.876  18.972  0.00  0.00    +0.000 NA
ATOM     10  H   UNL     1      47.069   4.100  19.591  0.00  0.00    +0.000 HD
BRANCH   9  11
ATOM     11  C   UNL     1      47.776   6.004  19.787  0.00  0.00    +0.000 C 
ATOM     12  C   UNL     1      47.330   7.377  19.255  0.00  0.00    +0.000 C 
ATOM     13  C   UNL     1      47.917   8.498  20.111  0.00  0.00    +0.000 C 
ATOM     14  C   UNL     1      47.518   8.357  21.575  0.00  0.00    +0.000 C 
ATOM     15  C   UNL     1      47.877   6.981  22.134  0.00  0.00    +0.000 C 
ATOM     16  C   UNL     1      47.304   5.850  21.269  0.00  0.00    +0.000 C 
BRANCH  16  17
ATOM     17  N   UNL     1      47.699   4.560  21.859  0.00  0.00    +0.000 NA
ATOM     18  H   UNL     1      48.159   4.725  22.754  0.00  0.00    +0.000 HD
ATOM     19  H   UNL     1      48.383   4.116  21.250  0.00  0.00    +0.000 HD
ENDBRANCH  16  17
ENDBRANCH   9  11
ENDBRANCH   8   9
ENDBRANCH   5   8
ENDBRANCH   1   2
BRANCH   1  20
ATOM     20  N   UNL     1      46.614   7.507  12.345  0.00  0.00    +0.000 N 
ATOM     21  C   UNL     1      45.466   7.326  11.541  0.00  0.00    +0.000 C 
ATOM     22  O   UNL     1      44.647   8.242  11.483  0.00  0.00    +0.000 OA
BRANCH  21  23
ATOM     23  C   UNL     1      45.174   6.064  10.802  0.00  0.00    +0.000 A 
ATOM     24  C   UNL     1      45.605   5.706   9.535  0.00  0.00    +0.000 A 
ATOM     25  S   UNL     1      45.219   4.124   9.041  0.00  0.00    +0.000 S 
ATOM     26  C   UNL     1      44.451   3.814  10.516  0.00  0.00    +0.000 A 
ATOM     27  N   UNL     1      43.937   2.581  10.753  0.00  0.00    +0.000 NA
ATOM     28  C   UNL     1      43.412   2.447  11.925  0.00  0.00    +0.000 A 
ATOM     29  N   UNL     1      43.341   3.439  12.862  0.00  0.00    +0.000 N 
ATOM     30  C   UNL     1      43.732   4.744  12.617  0.00  0.00    +0.000 A 
ATOM     31  O   UNL     1      43.405   5.623  13.401  0.00  0.00    +0.000 OA
ATOM     32  C   UNL     1      44.439   4.921  11.351  0.00  0.00    +0.000 A 
ATOM     33  H   UNL     1      42.843   3.295  13.727  0.00  0.00    +0.000 HD
ENDBRANCH  21  23
BRANCH  20  34
ATOM     34  C   UNL     1      46.748   8.792  13.061  0.00  0.00    +0.000 C 
BRANCH  34  36
ATOM     35  C   UNL     1      47.961  10.402  11.469  0.00  0.00    +0.000 C 
ATOM     36  C   UNL     1      48.036   9.567  12.737  0.00  0.00    +0.000 C 
ENDBRANCH  34  36
ENDBRANCH  20  34
ENDBRANCH   1  20
TORSDOF 9
ENDMDL
MODEL 5
REMARK VINA RESULT:    -6.683      3.512      8.263
REMARK INTER + INTRA:         -11.886
REMARK INTER:                 -10.168
REMARK INTRA:                  -1.718
REMARK UNBOUND:                -1.882
REMARK  Name = 
REMARK  10 active torsions:
REMARK  status: ('A' for Active; 'I' for Inactive)
REMARK    1  A    between atoms: C_1  and  C_2
REMARK    2  A    between atoms: C_2  and  C_3
REMARK    3  A    between atoms: C_3  and  N_4
REMARK    4  A    between atoms: N_4  and  C_5
REMARK    5  A    between atoms: C_5  and  C_6
REMARK    6  A    between atoms: C_9  and  C_10
REMARK    7  A    between atoms: C_10  and  N_11
REMARK    8  A    between atoms: N_11  and  C_12
REMARK    9  A    between atoms: C_17  and  N_18
REMARK   10  A    between atoms: C_21  and  C_23
REMARK                            x       y       z     vdW  Elec       q    Type
REMARK                         _______ _______ _______ _____ _____    ______ ____
ROOT
ATOM      1  C   UNL     1      49.718   7.453  16.608  0.00  0.00    +0.000 C 
ENDROOT
BRANCH   1   2
ATOM      2  C   UNL     1      48.765   7.588  15.431  0.00  0.00    +0.000 A 
ATOM      3  C   UNL     1      48.110   8.783  15.093  0.00  0.00    +0.000 A 
ATOM      4  C   UNL     1      47.260   8.858  13.983  0.00  0.00    +0.000 A 
ATOM      5  C   UNL     1      47.013   7.728  13.197  0.00  0.00    +0.000 A 
ATOM      6  C   UNL     1      47.675   6.537  13.521  0.00  0.00    +0.000 A 
ATOM      7  C   UNL     1      48.546   6.472  14.613  0.00  0.00    +0.000 A 
BRANCH   5   8
ATOM      8  C   UNL     1      46.022   7.764  12.057  0.00  0.00    +0.000 C 
BRANCH   8   9
ATOM      9  N   UNL     1      44.690   7.235  12.366  0.00  0.00    +0.000 NA
ATOM     10  H   UNL     1      44.018   7.990  12.257  0.00  0.00    +0.000 HD
BRANCH   9  11
ATOM     11  C   UNL     1      44.265   6.102  11.525  0.00  0.00    +0.000 C 
ATOM     12  C   UNL     1      45.370   5.595  10.582  0.00  0.00    +0.000 C 
ATOM     13  C   UNL     1      44.843   4.462   9.702  0.00  0.00    +0.000 C 
ATOM     14  C   UNL     1      44.305   3.305  10.536  0.00  0.00    +0.000 C 
ATOM     15  C   UNL     1      43.252   3.768  11.541  0.00  0.00    +0.000 C 
ATOM     16  C   UNL     1      43.769   4.917  12.417  0.00  0.00    +0.000 C 
BRANCH  16  17
ATOM     17  N   UNL     1      42.700   5.317  13.347  0.00  0.00    +0.000 NA
ATOM     18  H   UNL     1      41.869   4.754  13.170  0.00  0.00    +0.000 HD
ATOM     19  H   UNL     1      42.448   6.286  13.162  0.00  0.00    +0.000 HD
ENDBRANCH  16  17
ENDBRANCH   9  11
ENDBRANCH   8   9
ENDBRANCH   5   8
ENDBRANCH   1   2
BRANCH   1  20
ATOM     20  N   UNL     1      49.063   7.384  17.912  0.00  0.00    +0.000 N 
ATOM     21  C   UNL     1      48.459   6.257  18.510  0.00  0.00    +0.000 C 
ATOM     22  O   UNL     1      47.923   6.399  19.609  0.00  0.00    +0.000 OA
BRANCH  21  23
ATOM     23  C   UNL     1      48.480   4.895  17.902  0.00  0.00    +0.000 A 
ATOM     24  C   UNL     1      47.493   4.293  17.137  0.00  0.00    +0.000 A 
ATOM     25  S   UNL     1      47.896   2.784  16.463  0.00  0.00    +0.000 S 
ATOM     26  C   UNL     1      49.439   2.850  17.152  0.00  0.00    +0.000 A 
ATOM     27  N   UNL     1      50.323   1.851  16.902  0.00  0.00    +0.000 NA
ATOM     28  C   UNL     1      51.481   2.026  17.445  0.00  0.00    +0.000 A 
ATOM     29  N   UNL     1      51.820   3.095  18.225  0.00  0.00    +0.000 N 
ATOM     30  C   UNL     1      50.915   4.068  18.613  0.00  0.00    +0.000 A 
ATOM     31  O   UNL     1      51.217   4.842  19.509  0.00  0.00    +0.000 OA
ATOM     32  C   UNL     1      49.625   3.980  17.933  0.00  0.00    +0.000 A 
ATOM     33  H   UNL     1      52.714   3.131  18.688  0.00  0.00    +0.000 HD
ENDBRANCH  21  23
BRANCH  20  34
ATOM     34  C   UNL     1      49.009   8.660  18.653  0.00  0.00    +0.000 C 
BRANCH  34  36
ATOM     35  C   UNL     1      47.745  10.861  18.253  0.00  0.00    +0.000 C 
ATOM     36  C   UNL     1      47.651   9.379  18.580  0.00  0.00    +0.000 C 
ENDBRANCH  34  36
ENDBRANCH  20  34
ENDBRANCH   1  20
TORSDOF 9
ENDMDL
MODEL 6
REMARK VINA RESULT:    -6.506      3.813      8.967
REMARK INTER + INTRA:         -11.622
REMARK INTER:                 -10.549
REMARK INTRA:                  -1.072
REMARK UNBOUND:                -1.882
REMARK  Name = 
REMARK  10 active torsions:
REMARK  status: ('A' for Active; 'I' for Inactive)
REMARK    1  A    between atoms: C_1  and  C_2
REMARK    2  A    between atoms: C_2  and  C_3
REMARK    3  A    between atoms: C_3  and  N_4
REMARK    4  A    between atoms: N_4  and  C_5
REMARK    5  A    between atoms: C_5  and  C_6
REMARK    6  A    between atoms: C_9  and  C_10
REMARK    7  A    between atoms: C_10  and  N_11
REMARK    8  A    between atoms: N_11  and  C_12
REMARK    9  A    between atoms: C_17  and  N_18
REMARK   10  A    between atoms: C_21  and  C_23
REMARK                            x       y       z     vdW  Elec       q    Type
REMARK                         _______ _______ _______ _____ _____    ______ ____
ROOT
ATOM      1  C   UNL     1      49.564   7.551  13.258  0.00  0.00    +0.000 C 
ENDROOT
BRANCH   1   2
ATOM      2  C   UNL     1      48.284   6.826  12.877  0.00  0.00    +0.000 A 
ATOM      3  C   UNL     1      47.681   5.840  13.676  0.00  0.00    +0.000 A 
ATOM      4  C   UNL     1      46.486   5.220  13.289  0.00  0.00    +0.000 A 
ATOM      5  C   UNL     1      45.878   5.544  12.072  0.00  0.00    +0.000 A 
ATOM      6  C   UNL     1      46.467   6.536  11.278  0.00  0.00    +0.000 A 
ATOM      7  C   UNL     1      47.644   7.174  11.680  0.00  0.00    +0.000 A 
BRANCH   5   8
ATOM      8  C   UNL     1      44.645   4.815  11.590  0.00  0.00    +0.000 C 
BRANCH   8   9
ATOM      9  N   UNL     1      44.215   5.141  10.227  0.00  0.00    +0.000 NA
ATOM     10  H   UNL     1      44.626   6.035   9.972  0.00  0.00    +0.000 HD
BRANCH   9  11
ATOM     11  C   UNL     1      44.587   4.145   9.207  0.00  0.00    +0.000 C 
ATOM     12  C   UNL     1      45.826   4.545   8.387  0.00  0.00    +0.000 C 
ATOM     13  C   UNL     1      46.117   3.498   7.313  0.00  0.00    +0.000 C 
ATOM     14  C   UNL     1      46.324   2.114   7.918  0.00  0.00    +0.000 C 
ATOM     15  C   UNL     1      45.148   1.697   8.801  0.00  0.00    +0.000 C 
ATOM     16  C   UNL     1      44.840   2.752   9.871  0.00  0.00    +0.000 C 
BRANCH  16  17
ATOM     17  N   UNL     1      43.693   2.289  10.671  0.00  0.00    +0.000 NA
ATOM     18  H   UNL     1      42.835   2.417  10.137  0.00  0.00    +0.000 HD
ATOM     19  H   UNL     1      43.616   2.871  11.503  0.00  0.00    +0.000 HD
ENDBRANCH  16  17
ENDBRANCH   9  11
ENDBRANCH   8   9
ENDBRANCH   5   8
ENDBRANCH   1   2
BRANCH   1  20
ATOM     20  N   UNL     1      49.420   8.491  14.366  0.00  0.00    +0.000 N 
ATOM     21  C   UNL     1      50.081   8.454  15.614  0.00  0.00    +0.000 C 
ATOM     22  O   UNL     1      49.806   9.320  16.444  0.00  0.00    +0.000 OA
BRANCH  21  23
ATOM     23  C   UNL     1      51.130   7.451  15.957  0.00  0.00    +0.000 A 
ATOM     24  C   UNL     1      52.491   7.530  15.712  0.00  0.00    +0.000 A 
ATOM     25  S   UNL     1      53.437   6.278  16.371  0.00  0.00    +0.000 S 
ATOM     26  C   UNL     1      52.066   5.550  17.042  0.00  0.00    +0.000 A 
ATOM     27  N   UNL     1      52.208   4.432  17.798  0.00  0.00    +0.000 NA
ATOM     28  C   UNL     1      51.101   3.987  18.292  0.00  0.00    +0.000 A 
ATOM     29  N   UNL     1      49.875   4.549  18.080  0.00  0.00    +0.000 N 
ATOM     30  C   UNL     1      49.665   5.607  17.213  0.00  0.00    +0.000 A 
ATOM     31  O   UNL     1      48.524   5.888  16.876  0.00  0.00    +0.000 OA
ATOM     32  C   UNL     1      50.896   6.221  16.720  0.00  0.00    +0.000 A 
ATOM     33  H   UNL     1      49.039   4.105  18.425  0.00  0.00    +0.000 HD
ENDBRANCH  21  23
BRANCH  20  34
ATOM     34  C   UNL     1      48.440   9.573  14.146  0.00  0.00    +0.000 C 
BRANCH  34  36
ATOM     35  C   UNL     1      48.151  10.726  11.869  0.00  0.00    +0.000 C 
ATOM     36  C   UNL     1      48.915  10.673  13.182  0.00  0.00    +0.000 C 
ENDBRANCH  34  36
ENDBRANCH  20  34
ENDBRANCH   1  20
TORSDOF 9
ENDMDL
MODEL 7
REMARK VINA RESULT:    -6.223      4.039      8.744
REMARK INTER + INTRA:         -11.198
REMARK INTER:                  -9.589
REMARK INTRA:                  -1.609
REMARK UNBOUND:                -1.882
REMARK  Name = 
REMARK  10 active torsions:
REMARK  status: ('A' for Active; 'I' for Inactive)
REMARK    1  A    between atoms: C_1  and  C_2
REMARK    2  A    between atoms: C_2  and  C_3
REMARK    3  A    between atoms: C_3  and  N_4
REMARK    4  A    between atoms: N_4  and  C_5
REMARK    5  A    between atoms: C_5  and  C_6
REMARK    6  A    between atoms: C_9  and  C_10
REMARK    7  A    between atoms: C_10  and  N_11
REMARK    8  A    between atoms: N_11  and  C_12
REMARK    9  A    between atoms: C_17  and  N_18
REMARK   10  A    between atoms: C_21  and  C_23
REMARK                            x       y       z     vdW  Elec       q    Type
REMARK                         _______ _______ _______ _____ _____    ______ ____
ROOT
ATOM      1  C   UNL     1      49.592   7.068  16.931  0.00  0.00    +0.000 C 
ENDROOT
BRANCH   1   2
ATOM      2  C   UNL     1      48.780   7.040  15.647  0.00  0.00    +0.000 A 
ATOM      3  C   UNL     1      48.239   5.868  15.094  0.00  0.00    +0.000 A 
ATOM      4  C   UNL     1      47.477   5.901  13.920  0.00  0.00    +0.000 A 
ATOM      5  C   UNL     1      47.263   7.106  13.244  0.00  0.00    +0.000 A 
ATOM      6  C   UNL     1      47.788   8.280  13.798  0.00  0.00    +0.000 A 
ATOM      7  C   UNL     1      48.524   8.249  14.986  0.00  0.00    +0.000 A 
BRANCH   5   8
ATOM      8  C   UNL     1      46.529   7.149  11.923  0.00  0.00    +0.000 C 
BRANCH   8   9
ATOM      9  N   UNL     1      45.067   7.124  12.017  0.00  0.00    +0.000 NA
ATOM     10  H   UNL     1      44.711   7.998  11.637  0.00  0.00    +0.000 HD
BRANCH   9  11
ATOM     11  C   UNL     1      44.421   6.006  11.306  0.00  0.00    +0.000 C 
ATOM     12  C   UNL     1      45.349   5.309  10.296  0.00  0.00    +0.000 C 
ATOM     13  C   UNL     1      44.599   4.202   9.557  0.00  0.00    +0.000 C 
ATOM     14  C   UNL     1      44.020   3.173  10.522  0.00  0.00    +0.000 C 
ATOM     15  C   UNL     1      43.144   3.824  11.591  0.00  0.00    +0.000 C 
ATOM     16  C   UNL     1      43.885   4.948  12.326  0.00  0.00    +0.000 C 
BRANCH  16  17
ATOM     17  N   UNL     1      42.979   5.534  13.327  0.00  0.00    +0.000 NA
ATOM     18  H   UNL     1      42.201   4.897  13.493  0.00  0.00    +0.000 HD
ATOM     19  H   UNL     1      42.584   6.394  12.950  0.00  0.00    +0.000 HD
ENDBRANCH  16  17
ENDBRANCH   9  11
ENDBRANCH   8   9
ENDBRANCH   5   8
ENDBRANCH   1   2
BRANCH   1  20
ATOM     20  N   UNL     1      48.929   6.457  18.080  0.00  0.00    +0.000 N 
ATOM     21  C   UNL     1      49.414   5.408  18.893  0.00  0.00    +0.000 C 
ATOM     22  O   UNL     1      48.695   4.998  19.803  0.00  0.00    +0.000 OA
BRANCH  21  23
ATOM     23  C   UNL     1      50.770   4.808  18.735  0.00  0.00    +0.000 A 
ATOM     24  C   UNL     1      51.971   5.282  19.240  0.00  0.00    +0.000 A 
ATOM     25  S   UNL     1      53.322   4.275  19.006  0.00  0.00    +0.000 S 
ATOM     26  C   UNL     1      52.369   3.123  18.215  0.00  0.00    +0.000 A 
ATOM     27  N   UNL     1      52.936   1.963  17.798  0.00  0.00    +0.000 NA
ATOM     28  C   UNL     1      52.107   1.142  17.244  0.00  0.00    +0.000 A 
ATOM     29  N   UNL     1      50.777   1.390  17.057  0.00  0.00    +0.000 N 
ATOM     30  C   UNL     1      50.184   2.607  17.345  0.00  0.00    +0.000 A 
ATOM     31  O   UNL     1      49.064   2.843  16.918  0.00  0.00    +0.000 OA
ATOM     32  C   UNL     1      51.050   3.527  18.079  0.00  0.00    +0.000 A 
ATOM     33  H   UNL     1      50.201   0.743  16.543  0.00  0.00    +0.000 HD
ENDBRANCH  21  23
BRANCH  20  34
ATOM     34  C   UNL     1      47.586   6.989  18.384  0.00  0.00    +0.000 C 
BRANCH  34  36
ATOM     35  C   UNL     1      47.707   9.554  18.426  0.00  0.00    +0.000 C 
ATOM     36  C   UNL     1      47.588   8.271  19.233  0.00  0.00    +0.000 C 
ENDBRANCH  34  36
ENDBRANCH  20  34
ENDBRANCH   1  20
TORSDOF 9
ENDMDL
MODEL 8
REMARK VINA RESULT:    -5.992      3.866      8.602
REMARK INTER + INTRA:         -10.852
REMARK INTER:                  -9.748
REMARK INTRA:                  -1.105
REMARK UNBOUND:                -1.882
REMARK  Name = 
REMARK  10 active torsions:
REMARK  status: ('A' for Active; 'I' for Inactive)
REMARK    1  A    between atoms: C_1  and  C_2
REMARK    2  A    between atoms: C_2  and  C_3
REMARK    3  A    between atoms: C_3  and  N_4
REMARK    4  A    between atoms: N_4  and  C_5
REMARK    5  A    between atoms: C_5  and  C_6
REMARK    6  A    between atoms: C_9  and  C_10
REMARK    7  A    between atoms: C_10  and  N_11
REMARK    8  A    between atoms: N_11  and  C_12
REMARK    9  A    between atoms: C_17  and  N_18
REMARK   10  A    between atoms: C_21  and  C_23
REMARK                            x       y       z     vdW  Elec       q    Type
REMARK                         _______ _______ _______ _____ _____    ______ ____
ROOT
ATOM      1  C   UNL     1      49.619   7.615  13.096  0.00  0.00    +0.000 C 
ENDROOT
BRANCH   1   2
ATOM      2  C   UNL     1      48.324   6.882  12.788  0.00  0.00    +0.000 A 
ATOM      3  C   UNL     1      47.766   5.902  13.625  0.00  0.00    +0.000 A 
ATOM      4  C   UNL     1      46.556   5.273  13.305  0.00  0.00    +0.000 A 
ATOM      5  C   UNL     1      45.885   5.584  12.117  0.00  0.00    +0.000 A 
ATOM      6  C   UNL     1      46.430   6.570  11.285  0.00  0.00    +0.000 A 
ATOM      7  C   UNL     1      47.622   7.217  11.622  0.00  0.00    +0.000 A 
BRANCH   5   8
ATOM      8  C   UNL     1      44.632   4.846  11.705  0.00  0.00    +0.000 C 
BRANCH   8   9
ATOM      9  N   UNL     1      44.138   5.152  10.360  0.00  0.00    +0.000 NA
ATOM     10  H   UNL     1      44.524   6.048  10.077  0.00  0.00    +0.000 HD
BRANCH   9  11
ATOM     11  C   UNL     1      44.479   4.149   9.334  0.00  0.00    +0.000 C 
ATOM     12  C   UNL     1      45.704   4.535   8.488  0.00  0.00    +0.000 C 
ATOM     13  C   UNL     1      45.963   3.483   7.411  0.00  0.00    +0.000 C 
ATOM     14  C   UNL     1      46.168   2.098   8.014  0.00  0.00    +0.000 C 
ATOM     15  C   UNL     1      45.007   1.695   8.922  0.00  0.00    +0.000 C 
ATOM     16  C   UNL     1      44.731   2.755   9.996  0.00  0.00    +0.000 C 
BRANCH  16  17
ATOM     17  N   UNL     1      43.597   2.305  10.821  0.00  0.00    +0.000 NA
ATOM     18  H   UNL     1      43.856   2.350  11.805  0.00  0.00    +0.000 HD
ATOM     19  H   UNL     1      43.403   1.329  10.608  0.00  0.00    +0.000 HD
ENDBRANCH  16  17
ENDBRANCH   9  11
ENDBRANCH   8   9
ENDBRANCH   5   8
ENDBRANCH   1   2
BRANCH   1  20
ATOM     20  N   UNL     1      49.494   8.665  14.104  0.00  0.00    +0.000 N 
ATOM     21  C   UNL     1      49.069   9.998  13.906  0.00  0.00    +0.000 C 
ATOM     22  O   UNL     1      49.059  10.755  14.876  0.00  0.00    +0.000 OA
BRANCH  21  23
ATOM     23  C   UNL     1      48.586  10.518  12.595  0.00  0.00    +0.000 A 
ATOM     24  C   UNL     1      47.286  10.838  12.237  0.00  0.00    +0.000 A 
ATOM     25  S   UNL     1      47.094  11.555  10.706  0.00  0.00    +0.000 S 
ATOM     26  C   UNL     1      48.761  11.492  10.429  0.00  0.00    +0.000 A 
ATOM     27  N   UNL     1      49.266  12.013   9.283  0.00  0.00    +0.000 NA
ATOM     28  C   UNL     1      50.553  11.946   9.198  0.00  0.00    +0.000 A 
ATOM     29  N   UNL     1      51.366  11.389  10.144  0.00  0.00    +0.000 N 
ATOM     30  C   UNL     1      50.888  10.730  11.262  0.00  0.00    +0.000 A 
ATOM     31  O   UNL     1      51.651  10.041  11.923  0.00  0.00    +0.000 OA
ATOM     32  C   UNL     1      49.449  10.879  11.466  0.00  0.00    +0.000 A 
ATOM     33  H   UNL     1      52.356  11.292   9.978  0.00  0.00    +0.000 HD
ENDBRANCH  21  23
BRANCH  20  34
ATOM     34  C   UNL     1      49.898   8.274  15.469  0.00  0.00    +0.000 C 
BRANCH  34  36
ATOM     35  C   UNL     1      48.916   6.608  17.159  0.00  0.00    +0.000 C 
ATOM     36  C   UNL     1      48.728   7.910  16.398  0.00  0.00    +0.000 C 
ENDBRANCH  34  36
ENDBRANCH  20  34
ENDBRANCH   1  20
TORSDOF 9
ENDMDL
MODEL 9
REMARK VINA RESULT:    -5.856      4.264      8.554
REMARK INTER + INTRA:         -10.648
REMARK INTER:                  -8.528
REMARK INTRA:                  -2.120
REMARK UNBOUND:                -1.882
REMARK  Name = 
REMARK  10 active torsions:
REMARK  status: ('A' for Active; 'I' for Inactive)
REMARK    1  A    between atoms: C_1  and  C_2
REMARK    2  A    between atoms: C_2  and  C_3
REMARK    3  A    between atoms: C_3  and  N_4
REMARK    4  A    between atoms: N_4  and  C_5
REMARK    5  A    between atoms: C_5  and  C_6
REMARK    6  A    between atoms: C_9  and  C_10
REMARK    7  A    between atoms: C_10  and  N_11
REMARK    8  A    between atoms: N_11  and  C_12
REMARK    9  A    between atoms: C_17  and  N_18
REMARK   10  A    between atoms: C_21  and  C_23
REMARK                            x       y       z     vdW  Elec       q    Type
REMARK                         _______ _______ _______ _____ _____    ______ ____
ROOT
ATOM      1  C   UNL     1      50.620   9.388  11.422  0.00  0.00    +0.000 C 
ENDROOT
BRANCH   1   2
ATOM      2  C   UNL     1      49.286   8.766  11.802  0.00  0.00    +0.000 A 
ATOM      3  C   UNL     1      49.033   7.385  11.772  0.00  0.00    +0.000 A 
ATOM      4  C   UNL     1      47.792   6.863  12.156  0.00  0.00    +0.000 A 
ATOM      5  C   UNL     1      46.753   7.713  12.549  0.00  0.00    +0.000 A 
ATOM      6  C   UNL     1      47.003   9.090  12.594  0.00  0.00    +0.000 A 
ATOM      7  C   UNL     1      48.252   9.607  12.238  0.00  0.00    +0.000 A 
BRANCH   5   8
ATOM      8  C   UNL     1      45.377   7.177  12.870  0.00  0.00    +0.000 C 
BRANCH   8   9
ATOM      9  N   UNL     1      44.406   7.246  11.774  0.00  0.00    +0.000 NA
ATOM     10  H   UNL     1      44.800   7.826  11.038  0.00  0.00    +0.000 HD
BRANCH   9  11
ATOM     11  C   UNL     1      44.034   5.942  11.196  0.00  0.00    +0.000 C 
ATOM     12  C   UNL     1      45.123   5.345  10.288  0.00  0.00    +0.000 C 
ATOM     13  C   UNL     1      44.648   4.027   9.679  0.00  0.00    +0.000 C 
ATOM     14  C   UNL     1      44.261   3.017  10.754  0.00  0.00    +0.000 C 
ATOM     15  C   UNL     1      43.229   3.587  11.726  0.00  0.00    +0.000 C 
ATOM     16  C   UNL     1      43.693   4.920  12.329  0.00  0.00    +0.000 C 
BRANCH  16  17
ATOM     17  N   UNL     1      42.648   5.412  13.242  0.00  0.00    +0.000 NA
ATOM     18  H   UNL     1      42.002   4.655  13.456  0.00  0.00    +0.000 HD
ATOM     19  H   UNL     1      42.111   6.136  12.767  0.00  0.00    +0.000 HD
ENDBRANCH  16  17
ENDBRANCH   9  11
ENDBRANCH   8   9
ENDBRANCH   5   8
ENDBRANCH   1   2
BRANCH   1  20
ATOM     20  N   UNL     1      51.775   8.794  12.090  0.00  0.00    +0.000 N 
ATOM     21  C   UNL     1      52.190   8.992  13.426  0.00  0.00    +0.000 C 
ATOM     22  O   UNL     1      53.216   8.429  13.805  0.00  0.00    +0.000 OA
BRANCH  21  23
ATOM     23  C   UNL     1      51.423   9.809  14.410  0.00  0.00    +0.000 A 
ATOM     24  C   UNL     1      51.567  11.159  14.686  0.00  0.00    +0.000 A 
ATOM     25  S   UNL     1      50.425  11.821  15.760  0.00  0.00    +0.000 S 
ATOM     26  C   UNL     1      49.652  10.325  15.915  0.00  0.00    +0.000 A 
ATOM     27  N   UNL     1      48.535  10.228  16.679  0.00  0.00    +0.000 NA
ATOM     28  C   UNL     1      48.007   9.050  16.691  0.00  0.00    +0.000 A 
ATOM     29  N   UNL     1      48.509   7.967  16.026  0.00  0.00    +0.000 N 
ATOM     30  C   UNL     1      49.713   7.986  15.345  0.00  0.00    +0.000 A 
ATOM     31  O   UNL     1      50.221   6.930  14.998  0.00  0.00    +0.000 OA
ATOM     32  C   UNL     1      50.290   9.321  15.203  0.00  0.00    +0.000 A 
ATOM     33  H   UNL     1      48.096   7.055  16.145  0.00  0.00    +0.000 HD
ENDBRANCH  21  23
BRANCH  20  34
ATOM     34  C   UNL     1      52.607   7.919  11.241  0.00  0.00    +0.000 C 
BRANCH  34  36
ATOM     35  C   UNL     1      52.578   7.355   8.735  0.00  0.00    +0.000 C 
ATOM     36  C   UNL     1      52.789   8.421   9.798  0.00  0.00    +0.000 C 
ENDBRANCH  34  36
ENDBRANCH  20  34
ENDBRANCH   1  20
TORSDOF 9
ENDMDL
