MODEL 1
REMARK VINA RESULT:    -7.782      0.000      0.000
REMARK INTER + INTRA:          -9.895
REMARK INTER:                 -10.056
REMARK INTRA:                   0.161
REMARK UNBOUND:                 0.161
REMARK  Name = 
REMARK  5 active torsions:
REMARK  status: ('A' for Active; 'I' for Inactive)
REMARK    1  A    between atoms: C_2  and  C_18
REMARK    2  A    between atoms: N_3  and  C_4
REMARK    3  A    between atoms: C_4  and  C_5
REMARK    4  A    between atoms: C_8  and  C_9
REMARK    5  A    between atoms: C_9  and  N_10
REMARK                            x       y       z     vdW  Elec       q    Type
REMARK                         _______ _______ _______ _____ _____    ______ ____
ROOT
ATOM      1  O   UNL     1      46.854   3.153  13.886  0.00  0.00    +0.000 OA
ATOM      2  C   UNL     1      46.567   4.278  14.287  0.00  0.00    +0.000 C 
ATOM      3  N   UNL     1      45.348   4.864  14.038  0.00  0.00    +0.000 N 
ATOM      4  H   UNL     1      45.213   5.839  14.272  0.00  0.00    +0.000 HD
ENDROOT
BRANCH   2   5
ATOM      5  C   UNL     1      47.503   5.061  15.105  0.00  0.00    +0.000 A 
ATOM      6  C   UNL     1      48.219   6.105  14.531  0.00  0.00    +0.000 A 
ATOM      7  S   UNL     1      49.260   6.901  15.625  0.00  0.00    +0.000 S 
ATOM      8  C   UNL     1      48.760   5.907  16.911  0.00  0.00    +0.000 A 
ATOM      9  N   UNL     1      49.253   6.087  18.167  0.00  0.00    +0.000 NA
ATOM     10  C   UNL     1      48.745   5.304  19.059  0.00  0.00    +0.000 A 
ATOM     11  N   UNL     1      47.799   4.344  18.807  0.00  0.00    +0.000 N 
ATOM     12  C   UNL     1      47.347   4.062  17.541  0.00  0.00    +0.000 A 
ATOM     13  O   UNL     1      46.629   3.090  17.330  0.00  0.00    +0.000 OA
ATOM     14  C   UNL     1      47.835   4.960  16.509  0.00  0.00    +0.000 A 
ATOM     15  H   UNL     1      47.474   3.734  19.542  0.00  0.00    +0.000 HD
ENDBRANCH   2   5
BRANCH   3  16
ATOM     16  C   UNL     1      44.359   4.281  13.172  0.00  0.00    +0.000 C 
BRANCH  16  17
ATOM     17  C   UNL     1      44.794   4.309  11.727  0.00  0.00    +0.000 A 
ATOM     18  C   UNL     1      44.531   3.209  10.904  0.00  0.00    +0.000 A 
ATOM     19  C   UNL     1      44.901   3.219   9.556  0.00  0.00    +0.000 A 
ATOM     20  C   UNL     1      45.544   4.329   8.995  0.00  0.00    +0.000 A 
ATOM     21  C   UNL     1      45.848   5.414   9.833  0.00  0.00    +0.000 A 
ATOM     22  C   UNL     1      45.483   5.402  11.187  0.00  0.00    +0.000 A 
BRANCH  20  23
ATOM     23  C   UNL     1      45.982   4.306   7.545  0.00  0.00    +0.000 C 
BRANCH  23  24
ATOM     24  N   UNL     1      45.933   3.049   6.801  0.00  0.00    +0.000 NA
ATOM     25  C   UNL     1      46.285   1.830   7.534  0.00  0.00    +0.000 C 
ATOM     26  C   UNL     1      47.765   1.432   7.429  0.00  0.00    +0.000 C 
ATOM     27  O   UNL     1      48.186   1.337   6.063  0.00  0.00    +0.000 OA
ATOM     28  C   UNL     1      47.982   2.580   5.382  0.00  0.00    +0.000 C 
ATOM     29  C   UNL     1      46.517   3.041   5.456  0.00  0.00    +0.000 C 
ENDBRANCH  23  24
ENDBRANCH  20  23
ENDBRANCH  16  17
ENDBRANCH   3  16
TORSDOF 5
ENDMDL
MODEL 2
REMARK VINA RESULT:    -7.561      3.471      4.718
REMARK INTER + INTRA:          -9.609
REMARK INTER:                  -8.440
REMARK INTRA:                  -1.169
REMARK UNBOUND:                 0.161
REMARK  Name = 
REMARK  5 active torsions:
REMARK  status: ('A' for Active; 'I' for Inactive)
REMARK    1  A    between atoms: C_2  and  C_18
REMARK    2  A    between atoms: N_3  and  C_4
REMARK    3  A    between atoms: C_4  and  C_5
REMARK    4  A    between atoms: C_8  and  C_9
REMARK    5  A    between atoms: C_9  and  N_10
REMARK                            x       y       z     vdW  Elec       q    Type
REMARK                         _______ _______ _______ _____ _____    ______ ____
ROOT
ATOM      1  O   UNL     1      48.435   8.679  16.193  0.00  0.00    +0.000 OA
ATOM      2  C   UNL     1      48.868   7.569  15.895  0.00  0.00    +0.000 C 
ATOM      3  N   UNL     1      49.190   7.223  14.604  0.00  0.00    +0.000 N 
ATOM      4  H   UNL     1      49.412   6.258  14.393  0.00  0.00    +0.000 HD
ENDROOT
BRANCH   2   5
ATOM      5  C   UNL     1      49.113   6.543  16.918  0.00  0.00    +0.000 A 
ATOM      6  C   UNL     1      49.992   6.803  17.963  0.00  0.00    +0.000 A 
ATOM      7  S   UNL     1      50.160   5.501  19.053  0.00  0.00    +0.000 S 
ATOM      8  C   UNL     1      49.034   4.561  18.192  0.00  0.00    +0.000 A 
ATOM      9  N   UNL     1      48.685   3.318  18.621  0.00  0.00    +0.000 NA
ATOM     10  C   UNL     1      47.777   2.740  17.908  0.00  0.00    +0.000 A 
ATOM     11  N   UNL     1      47.196   3.286  16.792  0.00  0.00    +0.000 N 
ATOM     12  C   UNL     1      47.587   4.492  16.267  0.00  0.00    +0.000 A 
ATOM     13  O   UNL     1      47.166   4.873  15.180  0.00  0.00    +0.000 OA
ATOM     14  C   UNL     1      48.557   5.217  17.071  0.00  0.00    +0.000 A 
ATOM     15  H   UNL     1      46.522   2.762  16.253  0.00  0.00    +0.000 HD
ENDBRANCH   2   5
BRANCH   3  16
ATOM     16  C   UNL     1      48.917   8.068  13.472  0.00  0.00    +0.000 C 
BRANCH  16  17
ATOM     17  C   UNL     1      47.582   7.750  12.845  0.00  0.00    +0.000 A 
ATOM     18  C   UNL     1      47.501   6.779  11.842  0.00  0.00    +0.000 A 
ATOM     19  C   UNL     1      46.274   6.447  11.263  0.00  0.00    +0.000 A 
ATOM     20  C   UNL     1      45.092   7.079  11.670  0.00  0.00    +0.000 A 
ATOM     21  C   UNL     1      45.180   8.085  12.647  0.00  0.00    +0.000 A 
ATOM     22  C   UNL     1      46.412   8.423  13.223  0.00  0.00    +0.000 A 
BRANCH  20  23
ATOM     23  C   UNL     1      43.776   6.744  11.001  0.00  0.00    +0.000 C 
BRANCH  23  24
ATOM     24  N   UNL     1      43.095   5.496  11.342  0.00  0.00    +0.000 NA
ATOM     25  C   UNL     1      42.939   5.194  12.768  0.00  0.00    +0.000 C 
ATOM     26  C   UNL     1      44.066   4.337  13.363  0.00  0.00    +0.000 C 
ATOM     27  O   UNL     1      44.259   3.132  12.612  0.00  0.00    +0.000 OA
ATOM     28  C   UNL     1      44.564   3.430  11.244  0.00  0.00    +0.000 C 
ATOM     29  C   UNL     1      43.475   4.295  10.589  0.00  0.00    +0.000 C 
ENDBRANCH  23  24
ENDBRANCH  20  23
ENDBRANCH  16  17
ENDBRANCH   3  16
TORSDOF 5
ENDMDL
MODEL 3
REMARK VINA RESULT:    -7.552      4.184      9.703
REMARK INTER + INTRA:          -9.598
REMARK INTER:                  -8.950
REMARK INTRA:                  -0.649
REMARK UNBOUND:                 0.161
REMARK  Name = 
REMARK  5 active torsions:
REMARK  status: ('A' for Active; 'I' for Inactive)
REMARK    1  A    between atoms: C_2  and  C_18
REMARK    2  A    between atoms: N_3  and  C_4
REMARK    3  A    between atoms: C_4  and  C_5
REMARK    4  A    between atoms: C_8  and  C_9
REMARK    5  A    between atoms: C_9  and  N_10
REMARK                            x       y       z     vdW  Elec       q    Type
REMARK                         _______ _______ _______ _____ _____    ______ ____
ROOT
ATOM      1  O   UNL     1      47.315   3.161  13.960  0.00  0.00    +0.000 OA
ATOM      2  C   UNL     1      46.874   4.211  14.420  0.00  0.00    +0.000 C 
ATOM      3  N   UNL     1      46.863   4.482  15.768  0.00  0.00    +0.000 N 
ATOM      4  H   UNL     1      46.367   5.298  16.102  0.00  0.00    +0.000 HD
ENDROOT
BRANCH   2   5
ATOM      5  C   UNL     1      46.364   5.276  13.544  0.00  0.00    +0.000 A 
ATOM      6  C   UNL     1      47.169   6.368  13.241  0.00  0.00    +0.000 A 
ATOM      7  S   UNL     1      46.416   7.507  12.217  0.00  0.00    +0.000 S 
ATOM      8  C   UNL     1      45.006   6.561  12.109  0.00  0.00    +0.000 A 
ATOM      9  N   UNL     1      43.956   6.956  11.339  0.00  0.00    +0.000 NA
ATOM     10  C   UNL     1      42.975   6.117  11.299  0.00  0.00    +0.000 A 
ATOM     11  N   UNL     1      42.942   4.923  11.974  0.00  0.00    +0.000 N 
ATOM     12  C   UNL     1      43.934   4.531  12.838  0.00  0.00    +0.000 A 
ATOM     13  O   UNL     1      43.797   3.541  13.549  0.00  0.00    +0.000 OA
ATOM     14  C   UNL     1      45.094   5.407  12.866  0.00  0.00    +0.000 A 
ATOM     15  H   UNL     1      42.125   4.331  11.935  0.00  0.00    +0.000 HD
ENDBRANCH   2   5
BRANCH   3  16
ATOM     16  C   UNL     1      47.228   3.514  16.767  0.00  0.00    +0.000 C 
BRANCH  16  17
ATOM     17  C   UNL     1      48.700   3.576  17.092  0.00  0.00    +0.000 A 
ATOM     18  C   UNL     1      49.300   4.812  17.356  0.00  0.00    +0.000 A 
ATOM     19  C   UNL     1      50.656   4.894  17.685  0.00  0.00    +0.000 A 
ATOM     20  C   UNL     1      51.450   3.743  17.759  0.00  0.00    +0.000 A 
ATOM     21  C   UNL     1      50.857   2.507  17.451  0.00  0.00    +0.000 A 
ATOM     22  C   UNL     1      49.499   2.424  17.114  0.00  0.00    +0.000 A 
BRANCH  20  23
ATOM     23  C   UNL     1      52.928   3.852  18.070  0.00  0.00    +0.000 C 
BRANCH  23  24
ATOM     24  N   UNL     1      53.384   3.683  19.448  0.00  0.00    +0.000 NA
ATOM     25  C   UNL     1      52.574   4.308  20.497  0.00  0.00    +0.000 C 
ATOM     26  C   UNL     1      53.025   5.724  20.889  0.00  0.00    +0.000 C 
ATOM     27  O   UNL     1      54.413   5.753  21.241  0.00  0.00    +0.000 OA
ATOM     28  C   UNL     1      55.222   5.282  20.156  0.00  0.00    +0.000 C 
ATOM     29  C   UNL     1      54.816   3.868  19.709  0.00  0.00    +0.000 C 
ENDBRANCH  23  24
ENDBRANCH  20  23
ENDBRANCH  16  17
ENDBRANCH   3  16
TORSDOF 5
ENDMDL
MODEL 4
REMARK VINA RESULT:    -7.268      3.953      9.735
REMARK INTER + INTRA:          -9.231
REMARK INTER:                  -8.403
REMARK INTRA:                  -0.828
REMARK UNBOUND:                 0.161
REMARK  Name = 
REMARK  5 active torsions:
REMARK  status: ('A' for Active; 'I' for Inactive)
REMARK    1  A    between atoms: C_2  and  C_18
REMARK    2  A    between atoms: N_3  and  C_4
REMARK    3  A    between atoms: C_4  and  C_5
REMARK    4  A    between atoms: C_8  and  C_9
REMARK    5  A    between atoms: C_9  and  N_10
REMARK                            x       y       z     vdW  Elec       q    Type
REMARK                         _______ _______ _______ _____ _____    ______ ____
ROOT
ATOM      1  O   UNL     1      47.822   7.039  11.892  0.00  0.00    +0.000 OA
ATOM      2  C   UNL     1      46.991   6.540  12.647  0.00  0.00    +0.000 C 
ATOM      3  N   UNL     1      47.229   6.351  13.988  0.00  0.00    +0.000 N 
ATOM      4  H   UNL     1      46.568   5.814  14.535  0.00  0.00    +0.000 HD
ENDROOT
BRANCH   2   5
ATOM      5  C   UNL     1      45.658   6.149  12.167  0.00  0.00    +0.000 A 
ATOM      6  C   UNL     1      44.831   7.094  11.573  0.00  0.00    +0.000 A 
ATOM      7  S   UNL     1      43.321   6.468  11.081  0.00  0.00    +0.000 S 
ATOM      8  C   UNL     1      43.737   4.904  11.606  0.00  0.00    +0.000 A 
ATOM      9  N   UNL     1      42.879   3.860  11.443  0.00  0.00    +0.000 NA
ATOM     10  C   UNL     1      43.344   2.720  11.831  0.00  0.00    +0.000 A 
ATOM     11  N   UNL     1      44.584   2.530  12.384  0.00  0.00    +0.000 N 
ATOM     12  C   UNL     1      45.441   3.566  12.657  0.00  0.00    +0.000 A 
ATOM     13  O   UNL     1      46.469   3.382  13.302  0.00  0.00    +0.000 OA
ATOM     14  C   UNL     1      44.996   4.863  12.177  0.00  0.00    +0.000 A 
ATOM     15  H   UNL     1      44.871   1.617  12.707  0.00  0.00    +0.000 HD
ENDBRANCH   2   5
BRANCH   3  16
ATOM     16  C   UNL     1      48.510   6.583  14.599  0.00  0.00    +0.000 C 
BRANCH  16  17
ATOM     17  C   UNL     1      48.591   5.973  15.976  0.00  0.00    +0.000 A 
ATOM     18  C   UNL     1      49.622   6.352  16.843  0.00  0.00    +0.000 A 
ATOM     19  C   UNL     1      49.705   5.821  18.132  0.00  0.00    +0.000 A 
ATOM     20  C   UNL     1      48.761   4.895  18.592  0.00  0.00    +0.000 A 
ATOM     21  C   UNL     1      47.752   4.481  17.706  0.00  0.00    +0.000 A 
ATOM     22  C   UNL     1      47.672   5.008  16.410  0.00  0.00    +0.000 A 
BRANCH  20  23
ATOM     23  C   UNL     1      48.892   4.292  19.975  0.00  0.00    +0.000 C 
BRANCH  23  24
ATOM     24  N   UNL     1      48.468   5.069  21.138  0.00  0.00    +0.000 NA
ATOM     25  C   UNL     1      47.306   5.944  20.963  0.00  0.00    +0.000 C 
ATOM     26  C   UNL     1      47.651   7.386  20.562  0.00  0.00    +0.000 C 
ATOM     27  O   UNL     1      48.591   7.972  21.472  0.00  0.00    +0.000 OA
ATOM     28  C   UNL     1      49.794   7.195  21.529  0.00  0.00    +0.000 C 
ATOM     29  C   UNL     1      49.515   5.735  21.919  0.00  0.00    +0.000 C 
ENDBRANCH  23  24
ENDBRANCH  20  23
ENDBRANCH  16  17
ENDBRANCH   3  16
TORSDOF 5
ENDMDL
MODEL 5
REMARK VINA RESULT:    -7.203      2.100      3.068
REMARK INTER + INTRA:          -9.147
REMARK INTER:                  -8.442
REMARK INTRA:                  -0.705
REMARK UNBOUND:                 0.161
REMARK  Name = 
REMARK  5 active torsions:
REMARK  status: ('A' for Active; 'I' for Inactive)
REMARK    1  A    between atoms: C_2  and  C_18
REMARK    2  A    between atoms: N_3  and  C_4
REMARK    3  A    between atoms: C_4  and  C_5
REMARK    4  A    between atoms: C_8  and  C_9
REMARK    5  A    between atoms: C_9  and  N_10
REMARK                            x       y       z     vdW  Elec       q    Type
REMARK                         _______ _______ _______ _____ _____    ______ ____
ROOT
ATOM      1  O   UNL     1      49.809   6.974  13.842  0.00  0.00    +0.000 OA
ATOM      2  C   UNL     1      49.051   6.959  14.808  0.00  0.00    +0.000 C 
ATOM      3  N   UNL     1      47.702   7.202  14.694  0.00  0.00    +0.000 N 
ATOM      4  H   UNL     1      47.149   7.311  15.534  0.00  0.00    +0.000 HD
ENDROOT
BRANCH   2   5
ATOM      5  C   UNL     1      49.535   6.632  16.156  0.00  0.00    +0.000 A 
ATOM      6  C   UNL     1      50.572   7.368  16.718  0.00  0.00    +0.000 A 
ATOM      7  S   UNL     1      51.007   6.848  18.284  0.00  0.00    +0.000 S 
ATOM      8  C   UNL     1      49.799   5.651  18.284  0.00  0.00    +0.000 A 
ATOM      9  N   UNL     1      49.604   4.853  19.368  0.00  0.00    +0.000 NA
ATOM     10  C   UNL     1      48.617   4.029  19.257  0.00  0.00    +0.000 A 
ATOM     11  N   UNL     1      47.814   3.918  18.150  0.00  0.00    +0.000 N 
ATOM     12  C   UNL     1      48.035   4.633  16.999  0.00  0.00    +0.000 A 
ATOM     13  O   UNL     1      47.404   4.390  15.976  0.00  0.00    +0.000 OA
ATOM     14  C   UNL     1      49.091   5.625  17.095  0.00  0.00    +0.000 A 
ATOM     15  H   UNL     1      47.084   3.222  18.110  0.00  0.00    +0.000 HD
ENDBRANCH   2   5
BRANCH   3  16
ATOM     16  C   UNL     1      47.083   7.636  13.471  0.00  0.00    +0.000 C 
BRANCH  16  17
ATOM     17  C   UNL     1      46.222   6.554  12.866  0.00  0.00    +0.000 A 
ATOM     18  C   UNL     1      46.705   5.243  12.794  0.00  0.00    +0.000 A 
ATOM     19  C   UNL     1      45.918   4.219  12.262  0.00  0.00    +0.000 A 
ATOM     20  C   UNL     1      44.627   4.476  11.785  0.00  0.00    +0.000 A 
ATOM     21  C   UNL     1      44.160   5.800  11.817  0.00  0.00    +0.000 A 
ATOM     22  C   UNL     1      44.951   6.830  12.344  0.00  0.00    +0.000 A 
BRANCH  20  23
ATOM     23  C   UNL     1      43.805   3.364  11.168  0.00  0.00    +0.000 C 
BRANCH  23  24
ATOM     24  N   UNL     1      43.793   3.205   9.715  0.00  0.00    +0.000 NA
ATOM     25  C   UNL     1      44.305   1.939   9.182  0.00  0.00    +0.000 C 
ATOM     26  C   UNL     1      45.798   1.961   8.819  0.00  0.00    +0.000 C 
ATOM     27  O   UNL     1      46.105   3.042   7.930  0.00  0.00    +0.000 OA
ATOM     28  C   UNL     1      45.742   4.299   8.515  0.00  0.00    +0.000 C 
ATOM     29  C   UNL     1      44.257   4.340   8.910  0.00  0.00    +0.000 C 
ENDBRANCH  23  24
ENDBRANCH  20  23
ENDBRANCH  16  17
ENDBRANCH   3  16
TORSDOF 5
ENDMDL
MODEL 6
REMARK VINA RESULT:    -7.170      4.206      9.982
REMARK INTER + INTRA:          -9.105
REMARK INTER:                  -8.508
REMARK INTRA:                  -0.597
REMARK UNBOUND:                 0.161
REMARK  Name = 
REMARK  5 active torsions:
REMARK  status: ('A' for Active; 'I' for Inactive)
REMARK    1  A    between atoms: C_2  and  C_18
REMARK    2  A    between atoms: N_3  and  C_4
REMARK    3  A    between atoms: C_4  and  C_5
REMARK    4  A    between atoms: C_8  and  C_9
REMARK    5  A    between atoms: C_9  and  N_10
REMARK                            x       y       z     vdW  Elec       q    Type
REMARK                         _______ _______ _______ _____ _____    ______ ____
ROOT
ATOM      1  O   UNL     1      47.211   3.157  13.999  0.00  0.00    +0.000 OA
ATOM      2  C   UNL     1      46.846   4.245  14.436  0.00  0.00    +0.000 C 
ATOM      3  N   UNL     1      46.958   4.585  15.763  0.00  0.00    +0.000 N 
ATOM      4  H   UNL     1      46.520   5.436  16.092  0.00  0.00    +0.000 HD
ENDROOT
BRANCH   2   5
ATOM      5  C   UNL     1      46.300   5.282  13.548  0.00  0.00    +0.000 A 
ATOM      6  C   UNL     1      47.077   6.384  13.212  0.00  0.00    +0.000 A 
ATOM      7  S   UNL     1      46.285   7.488  12.179  0.00  0.00    +0.000 S 
ATOM      8  C   UNL     1      44.893   6.511  12.111  0.00  0.00    +0.000 A 
ATOM      9  N   UNL     1      43.823   6.870  11.351  0.00  0.00    +0.000 NA
ATOM     10  C   UNL     1      42.860   6.010  11.343  0.00  0.00    +0.000 A 
ATOM     11  N   UNL     1      42.862   4.829  12.041  0.00  0.00    +0.000 N 
ATOM     12  C   UNL     1      43.876   4.475  12.896  0.00  0.00    +0.000 A 
ATOM     13  O   UNL     1      43.770   3.496  13.628  0.00  0.00    +0.000 OA
ATOM     14  C   UNL     1      45.017   5.374  12.889  0.00  0.00    +0.000 A 
ATOM     15  H   UNL     1      42.057   4.220  12.027  0.00  0.00    +0.000 HD
ENDBRANCH   2   5
BRANCH   3  16
ATOM     16  C   UNL     1      47.374   3.657  16.780  0.00  0.00    +0.000 C 
BRANCH  16  17
ATOM     17  C   UNL     1      47.732   4.360  18.066  0.00  0.00    +0.000 A 
ATOM     18  C   UNL     1      46.988   5.470  18.480  0.00  0.00    +0.000 A 
ATOM     19  C   UNL     1      47.282   6.123  19.679  0.00  0.00    +0.000 A 
ATOM     20  C   UNL     1      48.331   5.686  20.498  0.00  0.00    +0.000 A 
ATOM     21  C   UNL     1      49.106   4.599  20.060  0.00  0.00    +0.000 A 
ATOM     22  C   UNL     1      48.815   3.948  18.854  0.00  0.00    +0.000 A 
BRANCH  20  23
ATOM     23  C   UNL     1      48.669   6.433  21.771  0.00  0.00    +0.000 C 
BRANCH  23  24
ATOM     24  N   UNL     1      49.483   7.645  21.696  0.00  0.00    +0.000 NA
ATOM     25  C   UNL     1      48.771   8.925  21.726  0.00  0.00    +0.000 C 
ATOM     26  C   UNL     1      48.422   9.491  20.341  0.00  0.00    +0.000 C 
ATOM     27  O   UNL     1      49.582   9.580  19.505  0.00  0.00    +0.000 OA
ATOM     28  C   UNL     1      50.196   8.295  19.350  0.00  0.00    +0.000 C 
ATOM     29  C   UNL     1      50.564   7.668  20.704  0.00  0.00    +0.000 C 
ENDBRANCH  23  24
ENDBRANCH  20  23
ENDBRANCH  16  17
ENDBRANCH   3  16
TORSDOF 5
ENDMDL
MODEL 7
REMARK VINA RESULT:    -7.114      2.582      3.722
REMARK INTER + INTRA:          -9.032
REMARK INTER:                  -8.782
REMARK INTRA:                  -0.251
REMARK UNBOUND:                 0.161
REMARK  Name = 
REMARK  5 active torsions:
REMARK  status: ('A' for Active; 'I' for Inactive)
REMARK    1  A    between atoms: C_2  and  C_18
REMARK    2  A    between atoms: N_3  and  C_4
REMARK    3  A    between atoms: C_4  and  C_5
REMARK    4  A    between atoms: C_8  and  C_9
REMARK    5  A    between atoms: C_9  and  N_10
REMARK                            x       y       z     vdW  Elec       q    Type
REMARK                         _______ _______ _______ _____ _____    ______ ____
ROOT
ATOM      1  O   UNL     1      49.982   5.634  16.195  0.00  0.00    +0.000 OA
ATOM      2  C   UNL     1      48.965   6.257  16.489  0.00  0.00    +0.000 C 
ATOM      3  N   UNL     1      48.014   6.602  15.558  0.00  0.00    +0.000 N 
ATOM      4  H   UNL     1      47.266   7.229  15.827  0.00  0.00    +0.000 HD
ENDROOT
BRANCH   2   5
ATOM      5  C   UNL     1      48.677   6.641  17.878  0.00  0.00    +0.000 A 
ATOM      6  C   UNL     1      48.388   7.965  18.185  0.00  0.00    +0.000 A 
ATOM      7  S   UNL     1      48.084   8.231  19.843  0.00  0.00    +0.000 S 
ATOM      8  C   UNL     1      48.284   6.580  20.202  0.00  0.00    +0.000 A 
ATOM      9  N   UNL     1      48.121   6.114  21.470  0.00  0.00    +0.000 NA
ATOM     10  C   UNL     1      48.243   4.834  21.590  0.00  0.00    +0.000 A 
ATOM     11  N   UNL     1      48.532   3.978  20.559  0.00  0.00    +0.000 N 
ATOM     12  C   UNL     1      48.802   4.414  19.286  0.00  0.00    +0.000 A 
ATOM     13  O   UNL     1      49.218   3.640  18.429  0.00  0.00    +0.000 OA
ATOM     14  C   UNL     1      48.609   5.839  19.080  0.00  0.00    +0.000 A 
ATOM     15  H   UNL     1      48.658   2.991  20.728  0.00  0.00    +0.000 HD
ENDBRANCH   2   5
BRANCH   3  16
ATOM     16  C   UNL     1      48.185   6.394  14.146  0.00  0.00    +0.000 C 
BRANCH  16  17
ATOM     17  C   UNL     1      47.059   5.578  13.560  0.00  0.00    +0.000 A 
ATOM     18  C   UNL     1      45.936   6.225  13.032  0.00  0.00    +0.000 A 
ATOM     19  C   UNL     1      44.892   5.495  12.461  0.00  0.00    +0.000 A 
ATOM     20  C   UNL     1      44.939   4.097  12.402  0.00  0.00    +0.000 A 
ATOM     21  C   UNL     1      46.046   3.445  12.971  0.00  0.00    +0.000 A 
ATOM     22  C   UNL     1      47.091   4.178  13.551  0.00  0.00    +0.000 A 
BRANCH  20  23
ATOM     23  C   UNL     1      43.778   3.316  11.823  0.00  0.00    +0.000 C 
BRANCH  23  24
ATOM     24  N   UNL     1      43.623   3.232  10.372  0.00  0.00    +0.000 NA
ATOM     25  C   UNL     1      44.190   2.055   9.711  0.00  0.00    +0.000 C 
ATOM     26  C   UNL     1      45.626   2.244   9.197  0.00  0.00    +0.000 C 
ATOM     27  O   UNL     1      45.732   3.396   8.352  0.00  0.00    +0.000 OA
ATOM     28  C   UNL     1      45.318   4.578   9.049  0.00  0.00    +0.000 C 
ATOM     29  C   UNL     1      43.888   4.450   9.597  0.00  0.00    +0.000 C 
ENDBRANCH  23  24
ENDBRANCH  20  23
ENDBRANCH  16  17
ENDBRANCH   3  16
TORSDOF 5
ENDMDL
MODEL 8
REMARK VINA RESULT:    -7.092      3.551      9.280
REMARK INTER + INTRA:          -9.003
REMARK INTER:                  -8.199
REMARK INTRA:                  -0.804
REMARK UNBOUND:                 0.161
REMARK  Name = 
REMARK  5 active torsions:
REMARK  status: ('A' for Active; 'I' for Inactive)
REMARK    1  A    between atoms: C_2  and  C_18
REMARK    2  A    between atoms: N_3  and  C_4
REMARK    3  A    between atoms: C_4  and  C_5
REMARK    4  A    between atoms: C_8  and  C_9
REMARK    5  A    between atoms: C_9  and  N_10
REMARK                            x       y       z     vdW  Elec       q    Type
REMARK                         _______ _______ _______ _____ _____    ______ ____
ROOT
ATOM      1  O   UNL     1      45.544   7.959  11.728  0.00  0.00    +0.000 OA
ATOM      2  C   UNL     1      46.177   6.918  11.579  0.00  0.00    +0.000 C 
ATOM      3  N   UNL     1      47.439   6.739  12.094  0.00  0.00    +0.000 N 
ATOM      4  H   UNL     1      47.968   5.918  11.828  0.00  0.00    +0.000 HD
ENDROOT
BRANCH   2   5
ATOM      5  C   UNL     1      45.602   5.767  10.869  0.00  0.00    +0.000 A 
ATOM      6  C   UNL     1      45.858   5.590   9.514  0.00  0.00    +0.000 A 
ATOM      7  S   UNL     1      45.108   4.207   8.852  0.00  0.00    +0.000 S 
ATOM      8  C   UNL     1      44.451   3.773  10.360  0.00  0.00    +0.000 A 
ATOM      9  N   UNL     1      43.710   2.641  10.501  0.00  0.00    +0.000 NA
ATOM     10  C   UNL     1      43.324   2.400  11.710  0.00  0.00    +0.000 A 
ATOM     11  N   UNL     1      43.596   3.200  12.790  0.00  0.00    +0.000 N 
ATOM     12  C   UNL     1      44.253   4.400  12.677  0.00  0.00    +0.000 A 
ATOM     13  O   UNL     1      44.334   5.167  13.632  0.00  0.00    +0.000 OA
ATOM     14  C   UNL     1      44.772   4.685  11.350  0.00  0.00    +0.000 A 
ATOM     15  H   UNL     1      43.227   2.978  13.703  0.00  0.00    +0.000 HD
ENDBRANCH   2   5
BRANCH   3  16
ATOM     16  C   UNL     1      48.187   7.792  12.725  0.00  0.00    +0.000 C 
BRANCH  16  17
ATOM     17  C   UNL     1      48.389   7.530  14.197  0.00  0.00    +0.000 A 
ATOM     18  C   UNL     1      48.232   6.234  14.698  0.00  0.00    +0.000 A 
ATOM     19  C   UNL     1      48.438   5.960  16.053  0.00  0.00    +0.000 A 
ATOM     20  C   UNL     1      48.807   6.974  16.945  0.00  0.00    +0.000 A 
ATOM     21  C   UNL     1      48.921   8.284  16.449  0.00  0.00    +0.000 A 
ATOM     22  C   UNL     1      48.708   8.561  15.092  0.00  0.00    +0.000 A 
BRANCH  20  23
ATOM     23  C   UNL     1      48.980   6.671  18.418  0.00  0.00    +0.000 C 
BRANCH  23  24
ATOM     24  N   UNL     1      48.162   5.629  19.036  0.00  0.00    +0.000 NA
ATOM     25  C   UNL     1      47.102   6.071  19.946  0.00  0.00    +0.000 C 
ATOM     26  C   UNL     1      47.518   6.134  21.424  0.00  0.00    +0.000 C 
ATOM     27  O   UNL     1      48.074   4.889  21.865  0.00  0.00    +0.000 OA
ATOM     28  C   UNL     1      49.210   4.530  21.068  0.00  0.00    +0.000 C 
ATOM     29  C   UNL     1      48.861   4.456  19.573  0.00  0.00    +0.000 C 
ENDBRANCH  23  24
ENDBRANCH  20  23
ENDBRANCH  16  17
ENDBRANCH   3  16
TORSDOF 5
ENDMDL
MODEL 9
REMARK VINA RESULT:    -7.008      4.973      7.687
REMARK INTER + INTRA:          -8.895
REMARK INTER:                  -8.104
REMARK INTRA:                  -0.791
REMARK UNBOUND:                 0.161
REMARK  Name = 
REMARK  5 active torsions:
REMARK  status: ('A' for Active; 'I' for Inactive)
REMARK    1  A    between atoms: C_2  and  C_18
REMARK    2  A    between atoms: N_3  and  C_4
REMARK    3  A    between atoms: C_4  and  C_5
REMARK    4  A    between atoms: C_8  and  C_9
REMARK    5  A    between atoms: C_9  and  N_10
REMARK                            x       y       z     vdW  Elec       q    Type
REMARK                         _______ _______ _______ _____ _____    ______ ____
ROOT
ATOM      1  O   UNL     1      44.311   7.706  11.044  0.00  0.00    +0.000 OA
ATOM      2  C   UNL     1      44.870   6.835  11.703  0.00  0.00    +0.000 C 
ATOM      3  N   UNL     1      45.813   7.123  12.662  0.00  0.00    +0.000 N 
ATOM      4  H   UNL     1      46.339   6.366  13.078  0.00  0.00    +0.000 HD
ENDROOT
BRANCH   2   5
ATOM      5  C   UNL     1      44.533   5.414  11.537  0.00  0.00    +0.000 A 
ATOM      6  C   UNL     1      43.798   4.758  12.517  0.00  0.00    +0.000 A 
ATOM      7  S   UNL     1      43.502   3.114  12.163  0.00  0.00    +0.000 S 
ATOM      8  C   UNL     1      44.309   3.233  10.670  0.00  0.00    +0.000 A 
ATOM      9  N   UNL     1      44.391   2.165   9.832  0.00  0.00    +0.000 NA
ATOM     10  C   UNL     1      44.977   2.409   8.708  0.00  0.00    +0.000 A 
ATOM     11  N   UNL     1      45.505   3.623   8.351  0.00  0.00    +0.000 N 
ATOM     12  C   UNL     1      45.533   4.700   9.203  0.00  0.00    +0.000 A 
ATOM     13  O   UNL     1      46.158   5.715   8.916  0.00  0.00    +0.000 OA
ATOM     14  C   UNL     1      44.824   4.499  10.456  0.00  0.00    +0.000 A 
ATOM     15  H   UNL     1      45.991   3.737   7.473  0.00  0.00    +0.000 HD
ENDBRANCH   2   5
BRANCH   3  16
ATOM     16  C   UNL     1      46.332   8.446  12.881  0.00  0.00    +0.000 C 
BRANCH  16  17
ATOM     17  C   UNL     1      47.778   8.555  12.465  0.00  0.00    +0.000 A 
ATOM     18  C   UNL     1      48.661   7.508  12.746  0.00  0.00    +0.000 A 
ATOM     19  C   UNL     1      49.999   7.573  12.349  0.00  0.00    +0.000 A 
ATOM     20  C   UNL     1      50.492   8.688  11.660  0.00  0.00    +0.000 A 
ATOM     21  C   UNL     1      49.615   9.759  11.417  0.00  0.00    +0.000 A 
ATOM     22  C   UNL     1      48.274   9.697  11.821  0.00  0.00    +0.000 A 
BRANCH  20  23
ATOM     23  C   UNL     1      51.955   8.766  11.278  0.00  0.00    +0.000 C 
BRANCH  23  24
ATOM     24  N   UNL     1      52.611   7.589  10.711  0.00  0.00    +0.000 NA
ATOM     25  C   UNL     1      54.067   7.506  10.857  0.00  0.00    +0.000 C 
ATOM     26  C   UNL     1      54.858   8.086   9.674  0.00  0.00    +0.000 C 
ATOM     27  O   UNL     1      54.442   7.505   8.432  0.00  0.00    +0.000 OA
ATOM     28  C   UNL     1      53.042   7.719   8.215  0.00  0.00    +0.000 C 
ATOM     29  C   UNL     1      52.192   7.166   9.371  0.00  0.00    +0.000 C 
ENDBRANCH  23  24
ENDBRANCH  20  23
ENDBRANCH  16  17
ENDBRANCH   3  16
TORSDOF 5
ENDMDL
