MODEL 1
REMARK VINA RESULT:    -8.997      0.000      0.000
REMARK INTER + INTRA:         -14.943
REMARK INTER:                 -13.205
REMARK INTRA:                  -1.738
REMARK UNBOUND:                -1.738
REMARK  Name = 
REMARK  10 active torsions:
REMARK  status: ('A' for Active; 'I' for Inactive)
REMARK    1  A    between atoms: C_1  and  C_2
REMARK    2  A    between atoms: N_4  and  C_5
REMARK    3  A    between atoms: C_11  and  C_12
REMARK    4  A    between atoms: N_14  and  C_15
REMARK    5  A    between atoms: C_15  and  C_16
REMARK    6  A    between atoms: C_19  and  C_20
REMARK    7  A    between atoms: C_20  and  N_21
REMARK    8  A    between atoms: N_21  and  C_22
REMARK    9  A    between atoms: C_22  and  C_23
REMARK   10  A    between atoms: N_32  and  C_33
REMARK                            x       y       z     vdW  Elec       q    Type
REMARK                         _______ _______ _______ _____ _____    ______ ____
ROOT
ATOM      1  C   UNL     1      48.883   6.742  16.077  0.00  0.00    +0.000 C 
ATOM      2  O   UNL     1      49.942   6.147  15.882  0.00  0.00    +0.000 OA
ATOM      3  N   UNL     1      48.009   6.993  15.052  0.00  0.00    +0.000 N 
ATOM      4  H   UNL     1      47.144   7.489  15.207  0.00  0.00    +0.000 HD
ENDROOT
BRANCH   1  11
ATOM      5  C   UNL     1      48.535   5.053  18.944  0.00  0.00    +0.000 A 
ATOM      6  N   UNL     1      48.354   4.691  20.232  0.00  0.00    +0.000 NA
ATOM      7  C   UNL     1      48.011   5.625  21.128  0.00  0.00    +0.000 A 
ATOM      8  N   UNL     1      47.818   6.935  20.914  0.00  0.00    +0.000 NA
ATOM      9  C   UNL     1      48.026   7.266  19.629  0.00  0.00    +0.000 A 
ATOM     10  C   UNL     1      48.401   6.413  18.596  0.00  0.00    +0.000 A 
ATOM     11  C   UNL     1      48.505   7.218  17.401  0.00  0.00    +0.000 A 
ATOM     12  C   UNL     1      48.160   8.514  17.768  0.00  0.00    +0.000 A 
ATOM     13  N   UNL     1      47.875   8.523  19.111  0.00  0.00    +0.000 N 
ATOM     14  C   UNL     1      47.445   9.672  19.875  0.00  0.00    +0.000 C 
BRANCH   5  18
ATOM     15  C   UNL     1      48.532   2.379  16.321  0.00  0.00    +0.000 C 
ATOM     16  C   UNL     1      47.898   3.342  17.291  0.00  0.00    +0.000 C 
ATOM     17  O   UNL     1      46.676   3.409  17.388  0.00  0.00    +0.000 OA
ATOM     18  N   UNL     1      48.829   4.087  17.975  0.00  0.00    +0.000 N 
ATOM     19  H   UNL     1      49.796   4.039  17.663  0.00  0.00    +0.000 HD
ENDBRANCH   5  18
ENDBRANCH   1  11
BRANCH   3  20
ATOM     20  C   UNL     1      48.344   6.554  13.722  0.00  0.00    +0.000 C 
BRANCH  20  21
ATOM     21  C   UNL     1      47.124   6.136  12.959  0.00  0.00    +0.000 A 
ATOM     22  C   UNL     1      46.937   6.549  11.635  0.00  0.00    +0.000 A 
ATOM     23  C   UNL     1      45.795   6.168  10.933  0.00  0.00    +0.000 A 
ATOM     24  C   UNL     1      44.816   5.364  11.542  0.00  0.00    +0.000 A 
ATOM     25  C   UNL     1      45.002   4.966  12.872  0.00  0.00    +0.000 A 
ATOM     26  C   UNL     1      46.142   5.352  13.575  0.00  0.00    +0.000 A 
BRANCH  24  27
ATOM     27  C   UNL     1      43.584   4.939  10.780  0.00  0.00    +0.000 C 
BRANCH  27  28
ATOM     28  N   UNL     1      43.939   4.437   9.456  0.00  0.00    +0.000 NA
ATOM     29  H   UNL     1      44.712   4.989   9.088  0.00  0.00    +0.000 HD
BRANCH  28  30
ATOM     30  C   UNL     1      44.341   3.033   9.498  0.00  0.00    +0.000 C 
BRANCH  30  31
ATOM     31  C   UNL     1      45.426   2.758   8.482  0.00  0.00    +0.000 A 
ATOM     32  C   UNL     1      45.893   3.780   7.645  0.00  0.00    +0.000 A 
ATOM     33  C   UNL     1      46.888   3.523   6.697  0.00  0.00    +0.000 A 
ATOM     34  C   UNL     1      47.425   2.243   6.577  0.00  0.00    +0.000 A 
ATOM     35  C   UNL     1      46.974   1.219   7.408  0.00  0.00    +0.000 A 
ATOM     36  C   UNL     1      45.984   1.476   8.359  0.00  0.00    +0.000 A 
ENDBRANCH  30  31
ENDBRANCH  28  30
ENDBRANCH  27  28
ENDBRANCH  24  27
ENDBRANCH  20  21
ENDBRANCH   3  20
TORSDOF 8
ENDMDL
MODEL 2
REMARK VINA RESULT:    -8.145      1.359      3.091
REMARK INTER + INTRA:         -13.693
REMARK INTER:                 -12.142
REMARK INTRA:                  -1.550
REMARK UNBOUND:                -1.738
REMARK  Name = 
REMARK  10 active torsions:
REMARK  status: ('A' for Active; 'I' for Inactive)
REMARK    1  A    between atoms: C_1  and  C_2
REMARK    2  A    between atoms: N_4  and  C_5
REMARK    3  A    between atoms: C_11  and  C_12
REMARK    4  A    between atoms: N_14  and  C_15
REMARK    5  A    between atoms: C_15  and  C_16
REMARK    6  A    between atoms: C_19  and  C_20
REMARK    7  A    between atoms: C_20  and  N_21
REMARK    8  A    between atoms: N_21  and  C_22
REMARK    9  A    between atoms: C_22  and  C_23
REMARK   10  A    between atoms: N_32  and  C_33
REMARK                            x       y       z     vdW  Elec       q    Type
REMARK                         _______ _______ _______ _____ _____    ______ ____
ROOT
ATOM      1  C   UNL     1      49.027   6.535  15.802  0.00  0.00    +0.000 C 
ATOM      2  O   UNL     1      50.155   6.735  15.356  0.00  0.00    +0.000 OA
ATOM      3  N   UNL     1      47.945   6.416  14.970  0.00  0.00    +0.000 N 
ATOM      4  H   UNL     1      47.015   6.262  15.334  0.00  0.00    +0.000 HD
ENDROOT
BRANCH   1  11
ATOM      5  C   UNL     1      47.918   8.830  17.970  0.00  0.00    +0.000 A 
ATOM      6  N   UNL     1      47.465   9.483  19.061  0.00  0.00    +0.000 NA
ATOM      7  C   UNL     1      47.408   8.834  20.230  0.00  0.00    +0.000 A 
ATOM      8  N   UNL     1      47.751   7.561  20.480  0.00  0.00    +0.000 NA
ATOM      9  C   UNL     1      48.177   6.934  19.372  0.00  0.00    +0.000 A 
ATOM     10  C   UNL     1      48.274   7.470  18.092  0.00  0.00    +0.000 A 
ATOM     11  C   UNL     1      48.778   6.424  17.233  0.00  0.00    +0.000 A 
ATOM     12  C   UNL     1      48.987   5.314  18.045  0.00  0.00    +0.000 A 
ATOM     13  N   UNL     1      48.621   5.641  19.327  0.00  0.00    +0.000 N 
ATOM     14  C   UNL     1      48.714   4.771  20.478  0.00  0.00    +0.000 C 
BRANCH   5  18
ATOM     15  C   UNL     1      49.015  10.763  14.955  0.00  0.00    +0.000 C 
ATOM     16  C   UNL     1      49.196  10.119  16.305  0.00  0.00    +0.000 C 
ATOM     17  O   UNL     1      50.284  10.164  16.872  0.00  0.00    +0.000 OA
ATOM     18  N   UNL     1      48.051   9.501  16.749  0.00  0.00    +0.000 N 
ATOM     19  H   UNL     1      47.280   9.403  16.093  0.00  0.00    +0.000 HD
ENDBRANCH   5  18
ENDBRANCH   1  11
BRANCH   3  20
ATOM     20  C   UNL     1      48.137   6.533  13.547  0.00  0.00    +0.000 C 
BRANCH  20  21
ATOM     21  C   UNL     1      46.953   6.013  12.790  0.00  0.00    +0.000 A 
ATOM     22  C   UNL     1      46.700   6.444  11.483  0.00  0.00    +0.000 A 
ATOM     23  C   UNL     1      45.590   5.968  10.786  0.00  0.00    +0.000 A 
ATOM     24  C   UNL     1      44.712   5.047  11.384  0.00  0.00    +0.000 A 
ATOM     25  C   UNL     1      44.962   4.630  12.697  0.00  0.00    +0.000 A 
ATOM     26  C   UNL     1      46.069   5.112  13.396  0.00  0.00    +0.000 A 
BRANCH  24  27
ATOM     27  C   UNL     1      43.517   4.519  10.628  0.00  0.00    +0.000 C 
BRANCH  27  28
ATOM     28  N   UNL     1      43.910   4.035   9.307  0.00  0.00    +0.000 NA
ATOM     29  H   UNL     1      44.599   4.672   8.912  0.00  0.00    +0.000 HD
BRANCH  28  30
ATOM     30  C   UNL     1      44.489   2.696   9.372  0.00  0.00    +0.000 C 
BRANCH  30  31
ATOM     31  C   UNL     1      45.556   2.524   8.315  0.00  0.00    +0.000 A 
ATOM     32  C   UNL     1      45.869   3.574   7.441  0.00  0.00    +0.000 A 
ATOM     33  C   UNL     1      46.847   3.412   6.457  0.00  0.00    +0.000 A 
ATOM     34  C   UNL     1      47.522   2.200   6.335  0.00  0.00    +0.000 A 
ATOM     35  C   UNL     1      47.227   1.150   7.202  0.00  0.00    +0.000 A 
ATOM     36  C   UNL     1      46.252   1.312   8.189  0.00  0.00    +0.000 A 
ENDBRANCH  30  31
ENDBRANCH  28  30
ENDBRANCH  27  28
ENDBRANCH  24  27
ENDBRANCH  20  21
ENDBRANCH   3  20
TORSDOF 8
ENDMDL
MODEL 3
REMARK VINA RESULT:    -7.966      2.397      3.191
REMARK INTER + INTRA:         -13.429
REMARK INTER:                 -11.656
REMARK INTRA:                  -1.773
REMARK UNBOUND:                -1.738
REMARK  Name = 
REMARK  10 active torsions:
REMARK  status: ('A' for Active; 'I' for Inactive)
REMARK    1  A    between atoms: C_1  and  C_2
REMARK    2  A    between atoms: N_4  and  C_5
REMARK    3  A    between atoms: C_11  and  C_12
REMARK    4  A    between atoms: N_14  and  C_15
REMARK    5  A    between atoms: C_15  and  C_16
REMARK    6  A    between atoms: C_19  and  C_20
REMARK    7  A    between atoms: C_20  and  N_21
REMARK    8  A    between atoms: N_21  and  C_22
REMARK    9  A    between atoms: C_22  and  C_23
REMARK   10  A    between atoms: N_32  and  C_33
REMARK                            x       y       z     vdW  Elec       q    Type
REMARK                         _______ _______ _______ _____ _____    ______ ____
ROOT
ATOM      1  C   UNL     1      49.650   7.320  15.641  0.00  0.00    +0.000 C 
ATOM      2  O   UNL     1      48.868   7.674  16.522  0.00  0.00    +0.000 OA
ATOM      3  N   UNL     1      49.274   7.293  14.324  0.00  0.00    +0.000 N 
ATOM      4  H   UNL     1      49.911   6.993  13.600  0.00  0.00    +0.000 HD
ENDROOT
BRANCH   1  11
ATOM      5  C   UNL     1      50.738   4.810  17.568  0.00  0.00    +0.000 A 
ATOM      6  N   UNL     1      51.486   3.893  18.216  0.00  0.00    +0.000 NA
ATOM      7  C   UNL     1      52.821   3.960  18.128  0.00  0.00    +0.000 A 
ATOM      8  N   UNL     1      53.553   4.854  17.446  0.00  0.00    +0.000 NA
ATOM      9  C   UNL     1      52.780   5.739  16.797  0.00  0.00    +0.000 A 
ATOM     10  C   UNL     1      51.390   5.783  16.782  0.00  0.00    +0.000 A 
ATOM     11  C   UNL     1      51.012   6.902  15.950  0.00  0.00    +0.000 A 
ATOM     12  C   UNL     1      52.196   7.496  15.527  0.00  0.00    +0.000 A 
ATOM     13  N   UNL     1      53.248   6.783  16.046  0.00  0.00    +0.000 N 
ATOM     14  C   UNL     1      54.648   7.093  15.866  0.00  0.00    +0.000 C 
BRANCH   5  18
ATOM     15  C   UNL     1      47.050   4.174  17.412  0.00  0.00    +0.000 C 
ATOM     16  C   UNL     1      48.497   3.912  17.083  0.00  0.00    +0.000 C 
ATOM     17  O   UNL     1      48.806   2.972  16.356  0.00  0.00    +0.000 OA
ATOM     18  N   UNL     1      49.345   4.803  17.696  0.00  0.00    +0.000 N 
ATOM     19  H   UNL     1      48.953   5.420  18.404  0.00  0.00    +0.000 HD
ENDBRANCH   5  18
ENDBRANCH   1  11
BRANCH   3  20
ATOM     20  C   UNL     1      47.933   7.683  13.970  0.00  0.00    +0.000 C 
BRANCH  20  21
ATOM     21  C   UNL     1      47.175   6.544  13.357  0.00  0.00    +0.000 A 
ATOM     22  C   UNL     1      46.538   6.698  12.122  0.00  0.00    +0.000 A 
ATOM     23  C   UNL     1      45.824   5.640  11.560  0.00  0.00    +0.000 A 
ATOM     24  C   UNL     1      45.735   4.405  12.225  0.00  0.00    +0.000 A 
ATOM     25  C   UNL     1      46.363   4.261  13.469  0.00  0.00    +0.000 A 
ATOM     26  C   UNL     1      47.072   5.321  14.032  0.00  0.00    +0.000 A 
BRANCH  24  27
ATOM     27  C   UNL     1      44.973   3.253  11.615  0.00  0.00    +0.000 C 
BRANCH  27  28
ATOM     28  N   UNL     1      44.468   3.607  10.292  0.00  0.00    +0.000 NA
ATOM     29  H   UNL     1      45.097   4.288   9.868  0.00  0.00    +0.000 HD
BRANCH  28  30
ATOM     30  C   UNL     1      44.376   2.441   9.417  0.00  0.00    +0.000 C 
BRANCH  30  31
ATOM     31  C   UNL     1      45.486   2.454   8.391  0.00  0.00    +0.000 A 
ATOM     32  C   UNL     1      45.758   3.614   7.651  0.00  0.00    +0.000 A 
ATOM     33  C   UNL     1      46.776   3.623   6.694  0.00  0.00    +0.000 A 
ATOM     34  C   UNL     1      47.532   2.475   6.466  0.00  0.00    +0.000 A 
ATOM     35  C   UNL     1      47.276   1.318   7.200  0.00  0.00    +0.000 A 
ATOM     36  C   UNL     1      46.263   1.309   8.160  0.00  0.00    +0.000 A 
ENDBRANCH  30  31
ENDBRANCH  28  30
ENDBRANCH  27  28
ENDBRANCH  24  27
ENDBRANCH  20  21
ENDBRANCH   3  20
TORSDOF 8
ENDMDL
MODEL 4
REMARK VINA RESULT:    -7.722      2.497      4.256
REMARK INTER + INTRA:         -13.071
REMARK INTER:                 -11.359
REMARK INTRA:                  -1.712
REMARK UNBOUND:                -1.738
REMARK  Name = 
REMARK  10 active torsions:
REMARK  status: ('A' for Active; 'I' for Inactive)
REMARK    1  A    between atoms: C_1  and  C_2
REMARK    2  A    between atoms: N_4  and  C_5
REMARK    3  A    between atoms: C_11  and  C_12
REMARK    4  A    between atoms: N_14  and  C_15
REMARK    5  A    between atoms: C_15  and  C_16
REMARK    6  A    between atoms: C_19  and  C_20
REMARK    7  A    between atoms: C_20  and  N_21
REMARK    8  A    between atoms: N_21  and  C_22
REMARK    9  A    between atoms: C_22  and  C_23
REMARK   10  A    between atoms: N_32  and  C_33
REMARK                            x       y       z     vdW  Elec       q    Type
REMARK                         _______ _______ _______ _____ _____    ______ ____
ROOT
ATOM      1  C   UNL     1      48.828   7.272  15.581  0.00  0.00    +0.000 C 
ATOM      2  O   UNL     1      49.791   6.541  15.806  0.00  0.00    +0.000 OA
ATOM      3  N   UNL     1      47.795   6.860  14.780  0.00  0.00    +0.000 N 
ATOM      4  H   UNL     1      47.008   7.463  14.585  0.00  0.00    +0.000 HD
ENDROOT
BRANCH   1  11
ATOM      5  C   UNL     1      49.698  10.216  14.250  0.00  0.00    +0.000 A 
ATOM      6  N   UNL     1      49.896  11.527  14.001  0.00  0.00    +0.000 NA
ATOM      7  C   UNL     1      49.580  12.424  14.943  0.00  0.00    +0.000 A 
ATOM      8  N   UNL     1      49.063  12.189  16.158  0.00  0.00    +0.000 NA
ATOM      9  C   UNL     1      48.858  10.879  16.368  0.00  0.00    +0.000 A 
ATOM     10  C   UNL     1      49.120   9.839  15.481  0.00  0.00    +0.000 A 
ATOM     11  C   UNL     1      48.738   8.613  16.142  0.00  0.00    +0.000 A 
ATOM     12  C   UNL     1      48.289   8.973  17.409  0.00  0.00    +0.000 A 
ATOM     13  N   UNL     1      48.370  10.338  17.525  0.00  0.00    +0.000 N 
ATOM     14  C   UNL     1      48.026  11.107  18.701  0.00  0.00    +0.000 C 
BRANCH   5  18
ATOM     15  C   UNL     1      50.011   7.792  11.411  0.00  0.00    +0.000 C 
ATOM     16  C   UNL     1      49.327   8.855  12.231  0.00  0.00    +0.000 C 
ATOM     17  O   UNL     1      48.227   9.285  11.894  0.00  0.00    +0.000 OA
ATOM     18  N   UNL     1      50.080   9.253  13.310  0.00  0.00    +0.000 N 
ATOM     19  H   UNL     1      51.043   8.928  13.361  0.00  0.00    +0.000 HD
ENDBRANCH   5  18
ENDBRANCH   1  11
BRANCH   3  20
ATOM     20  C   UNL     1      47.845   5.548  14.190  0.00  0.00    +0.000 C 
BRANCH  20  21
ATOM     21  C   UNL     1      46.740   5.351  13.197  0.00  0.00    +0.000 A 
ATOM     22  C   UNL     1      46.731   6.064  11.994  0.00  0.00    +0.000 A 
ATOM     23  C   UNL     1      45.695   5.888  11.077  0.00  0.00    +0.000 A 
ATOM     24  C   UNL     1      44.646   4.991  11.348  0.00  0.00    +0.000 A 
ATOM     25  C   UNL     1      44.653   4.291  12.561  0.00  0.00    +0.000 A 
ATOM     26  C   UNL     1      45.687   4.473  13.479  0.00  0.00    +0.000 A 
BRANCH  24  27
ATOM     27  C   UNL     1      43.529   4.787  10.353  0.00  0.00    +0.000 C 
BRANCH  27  28
ATOM     28  N   UNL     1      44.050   4.297   9.080  0.00  0.00    +0.000 NA
ATOM     29  H   UNL     1      44.860   4.857   8.816  0.00  0.00    +0.000 HD
BRANCH  28  30
ATOM     30  C   UNL     1      44.453   2.896   9.163  0.00  0.00    +0.000 C 
BRANCH  30  31
ATOM     31  C   UNL     1      45.549   2.595   8.166  0.00  0.00    +0.000 A 
ATOM     32  C   UNL     1      46.212   1.360   8.188  0.00  0.00    +0.000 A 
ATOM     33  C   UNL     1      47.233   1.086   7.275  0.00  0.00    +0.000 A 
ATOM     34  C   UNL     1      47.602   2.042   6.331  0.00  0.00    +0.000 A 
ATOM     35  C   UNL     1      46.946   3.271   6.293  0.00  0.00    +0.000 A 
ATOM     36  C   UNL     1      45.922   3.544   7.203  0.00  0.00    +0.000 A 
ENDBRANCH  30  31
ENDBRANCH  28  30
ENDBRANCH  27  28
ENDBRANCH  24  27
ENDBRANCH  20  21
ENDBRANCH   3  20
TORSDOF 8
ENDMDL
MODEL 5
REMARK VINA RESULT:    -7.528      3.661      6.097
REMARK INTER + INTRA:         -12.787
REMARK INTER:                 -11.127
REMARK INTRA:                  -1.660
REMARK UNBOUND:                -1.738
REMARK  Name = 
REMARK  10 active torsions:
REMARK  status: ('A' for Active; 'I' for Inactive)
REMARK    1  A    between atoms: C_1  and  C_2
REMARK    2  A    between atoms: N_4  and  C_5
REMARK    3  A    between atoms: C_11  and  C_12
REMARK    4  A    between atoms: N_14  and  C_15
REMARK    5  A    between atoms: C_15  and  C_16
REMARK    6  A    between atoms: C_19  and  C_20
REMARK    7  A    between atoms: C_20  and  N_21
REMARK    8  A    between atoms: N_21  and  C_22
REMARK    9  A    between atoms: C_22  and  C_23
REMARK   10  A    between atoms: N_32  and  C_33
REMARK                            x       y       z     vdW  Elec       q    Type
REMARK                         _______ _______ _______ _____ _____    ______ ____
ROOT
ATOM      1  C   UNL     1      48.895   7.983  13.896  0.00  0.00    +0.000 C 
ATOM      2  O   UNL     1      48.071   8.562  14.603  0.00  0.00    +0.000 OA
ATOM      3  N   UNL     1      48.807   6.636  13.660  0.00  0.00    +0.000 N 
ATOM      4  H   UNL     1      49.488   6.156  13.089  0.00  0.00    +0.000 HD
ENDROOT
BRANCH   1  11
ATOM      5  C   UNL     1      48.898  10.267  11.452  0.00  0.00    +0.000 A 
ATOM      6  N   UNL     1      49.236  11.210  10.548  0.00  0.00    +0.000 NA
ATOM      7  C   UNL     1      50.527  11.533  10.396  0.00  0.00    +0.000 A 
ATOM      8  N   UNL     1      51.581  11.028  11.054  0.00  0.00    +0.000 NA
ATOM      9  C   UNL     1      51.209  10.109  11.959  0.00  0.00    +0.000 A 
ATOM     10  C   UNL     1      49.914   9.686  12.238  0.00  0.00    +0.000 A 
ATOM     11  C   UNL     1      50.010   8.692  13.282  0.00  0.00    +0.000 A 
ATOM     12  C   UNL     1      51.365   8.544  13.561  0.00  0.00    +0.000 A 
ATOM     13  N   UNL     1      52.069   9.404  12.756  0.00  0.00    +0.000 N 
ATOM     14  C   UNL     1      53.508   9.535  12.717  0.00  0.00    +0.000 C 
BRANCH   5  18
ATOM     15  C   UNL     1      45.204   9.949  11.989  0.00  0.00    +0.000 C 
ATOM     16  C   UNL     1      46.515  10.687  11.915  0.00  0.00    +0.000 C 
ATOM     17  O   UNL     1      46.557  11.897  12.118  0.00  0.00    +0.000 OA
ATOM     18  N   UNL     1      47.564   9.863  11.585  0.00  0.00    +0.000 N 
ATOM     19  H   UNL     1      47.346   8.917  11.280  0.00  0.00    +0.000 HD
ENDBRANCH   5  18
ENDBRANCH   1  11
BRANCH   3  20
ATOM     20  C   UNL     1      47.730   5.888  14.256  0.00  0.00    +0.000 C 
BRANCH  20  21
ATOM     21  C   UNL     1      46.641   5.610  13.265  0.00  0.00    +0.000 A 
ATOM     22  C   UNL     1      46.604   6.286  12.042  0.00  0.00    +0.000 A 
ATOM     23  C   UNL     1      45.583   6.034  11.127  0.00  0.00    +0.000 A 
ATOM     24  C   UNL     1      44.578   5.096  11.419  0.00  0.00    +0.000 A 
ATOM     25  C   UNL     1      44.612   4.432  12.652  0.00  0.00    +0.000 A 
ATOM     26  C   UNL     1      45.631   4.690  13.568  0.00  0.00    +0.000 A 
BRANCH  24  27
ATOM     27  C   UNL     1      43.477   4.810  10.426  0.00  0.00    +0.000 C 
BRANCH  27  28
ATOM     28  N   UNL     1      44.029   4.324   9.165  0.00  0.00    +0.000 NA
ATOM     29  H   UNL     1      44.838   4.891   8.917  0.00  0.00    +0.000 HD
BRANCH  28  30
ATOM     30  C   UNL     1      44.443   2.926   9.258  0.00  0.00    +0.000 C 
BRANCH  30  31
ATOM     31  C   UNL     1      45.542   2.628   8.263  0.00  0.00    +0.000 A 
ATOM     32  C   UNL     1      46.159   1.369   8.240  0.00  0.00    +0.000 A 
ATOM     33  C   UNL     1      47.183   1.097   7.330  0.00  0.00    +0.000 A 
ATOM     34  C   UNL     1      47.601   2.078   6.433  0.00  0.00    +0.000 A 
ATOM     35  C   UNL     1      46.991   3.331   6.440  0.00  0.00    +0.000 A 
ATOM     36  C   UNL     1      45.964   3.603   7.347  0.00  0.00    +0.000 A 
ENDBRANCH  30  31
ENDBRANCH  28  30
ENDBRANCH  27  28
ENDBRANCH  24  27
ENDBRANCH  20  21
ENDBRANCH   3  20
TORSDOF 8
ENDMDL
MODEL 6
REMARK VINA RESULT:    -7.037      3.022      8.901
REMARK INTER + INTRA:         -12.066
REMARK INTER:                  -9.107
REMARK INTRA:                  -2.960
REMARK UNBOUND:                -1.738
REMARK  Name = 
REMARK  10 active torsions:
REMARK  status: ('A' for Active; 'I' for Inactive)
REMARK    1  A    between atoms: C_1  and  C_2
REMARK    2  A    between atoms: N_4  and  C_5
REMARK    3  A    between atoms: C_11  and  C_12
REMARK    4  A    between atoms: N_14  and  C_15
REMARK    5  A    between atoms: C_15  and  C_16
REMARK    6  A    between atoms: C_19  and  C_20
REMARK    7  A    between atoms: C_20  and  N_21
REMARK    8  A    between atoms: N_21  and  C_22
REMARK    9  A    between atoms: C_22  and  C_23
REMARK   10  A    between atoms: N_32  and  C_33
REMARK                            x       y       z     vdW  Elec       q    Type
REMARK                         _______ _______ _______ _____ _____    ______ ____
ROOT
ATOM      1  C   UNL     1      46.826   4.220  14.199  0.00  0.00    +0.000 C 
ATOM      2  O   UNL     1      47.714   3.507  13.735  0.00  0.00    +0.000 OA
ATOM      3  N   UNL     1      46.620   4.310  15.550  0.00  0.00    +0.000 N 
ATOM      4  H   UNL     1      45.885   4.887  15.934  0.00  0.00    +0.000 HD
ENDROOT
BRANCH   1  11
ATOM      5  C   UNL     1      46.773   7.510  13.592  0.00  0.00    +0.000 A 
ATOM      6  N   UNL     1      46.513   8.744  13.112  0.00  0.00    +0.000 NA
ATOM      7  C   UNL     1      45.510   8.905  12.240  0.00  0.00    +0.000 A 
ATOM      8  N   UNL     1      44.692   7.963  11.748  0.00  0.00    +0.000 NA
ATOM      9  C   UNL     1      44.990   6.745  12.228  0.00  0.00    +0.000 A 
ATOM     10  C   UNL     1      46.007   6.424  13.121  0.00  0.00    +0.000 A 
ATOM     11  C   UNL     1      45.941   4.997  13.341  0.00  0.00    +0.000 A 
ATOM     12  C   UNL     1      44.867   4.533  12.589  0.00  0.00    +0.000 A 
ATOM     13  N   UNL     1      44.308   5.597  11.927  0.00  0.00    +0.000 N 
ATOM     14  C   UNL     1      43.150   5.541  11.064  0.00  0.00    +0.000 C 
BRANCH   5  18
ATOM     15  C   UNL     1      49.908   6.867  15.539  0.00  0.00    +0.000 C 
ATOM     16  C   UNL     1      49.084   7.013  14.286  0.00  0.00    +0.000 C 
ATOM     17  O   UNL     1      49.604   6.878  13.183  0.00  0.00    +0.000 OA
ATOM     18  N   UNL     1      47.772   7.323  14.555  0.00  0.00    +0.000 N 
ATOM     19  H   UNL     1      47.529   7.570  15.511  0.00  0.00    +0.000 HD
ENDBRANCH   5  18
ENDBRANCH   1  11
BRANCH   3  20
ATOM     20  C   UNL     1      47.459   3.550  16.440  0.00  0.00    +0.000 C 
BRANCH  20  21
ATOM     21  C   UNL     1      47.884   4.366  17.624  0.00  0.00    +0.000 A 
ATOM     22  C   UNL     1      47.000   5.274  18.215  0.00  0.00    +0.000 A 
ATOM     23  C   UNL     1      47.402   6.040  19.308  0.00  0.00    +0.000 A 
ATOM     24  C   UNL     1      48.699   5.910  19.833  0.00  0.00    +0.000 A 
ATOM     25  C   UNL     1      49.585   5.009  19.228  0.00  0.00    +0.000 A 
ATOM     26  C   UNL     1      49.183   4.248  18.132  0.00  0.00    +0.000 A 
BRANCH  24  27
ATOM     27  C   UNL     1      49.135   6.728  21.025  0.00  0.00    +0.000 C 
BRANCH  27  28
ATOM     28  N   UNL     1      49.044   8.156  20.737  0.00  0.00    +0.000 NA
ATOM     29  H   UNL     1      49.000   8.669  21.616  0.00  0.00    +0.000 HD
BRANCH  28  30
ATOM     30  C   UNL     1      50.194   8.629  19.972  0.00  0.00    +0.000 C 
BRANCH  30  31
ATOM     31  C   UNL     1      49.750   9.248  18.666  0.00  0.00    +0.000 A 
ATOM     32  C   UNL     1      50.685   9.829  17.798  0.00  0.00    +0.000 A 
ATOM     33  C   UNL     1      50.274  10.413  16.598  0.00  0.00    +0.000 A 
ATOM     34  C   UNL     1      48.924  10.423  16.252  0.00  0.00    +0.000 A 
ATOM     35  C   UNL     1      47.984   9.843  17.102  0.00  0.00    +0.000 A 
ATOM     36  C   UNL     1      48.395   9.255  18.300  0.00  0.00    +0.000 A 
ENDBRANCH  30  31
ENDBRANCH  28  30
ENDBRANCH  27  28
ENDBRANCH  24  27
ENDBRANCH  20  21
ENDBRANCH   3  20
TORSDOF 8
ENDMDL
MODEL 7
REMARK VINA RESULT:    -6.856      2.276      4.118
REMARK INTER + INTRA:         -11.800
REMARK INTER:                 -10.234
REMARK INTRA:                  -1.566
REMARK UNBOUND:                -1.738
REMARK  Name = 
REMARK  10 active torsions:
REMARK  status: ('A' for Active; 'I' for Inactive)
REMARK    1  A    between atoms: C_1  and  C_2
REMARK    2  A    between atoms: N_4  and  C_5
REMARK    3  A    between atoms: C_11  and  C_12
REMARK    4  A    between atoms: N_14  and  C_15
REMARK    5  A    between atoms: C_15  and  C_16
REMARK    6  A    between atoms: C_19  and  C_20
REMARK    7  A    between atoms: C_20  and  N_21
REMARK    8  A    between atoms: N_21  and  C_22
REMARK    9  A    between atoms: C_22  and  C_23
REMARK   10  A    between atoms: N_32  and  C_33
REMARK                            x       y       z     vdW  Elec       q    Type
REMARK                         _______ _______ _______ _____ _____    ______ ____
ROOT
ATOM      1  C   UNL     1      48.425   3.973  17.160  0.00  0.00    +0.000 C 
ATOM      2  O   UNL     1      47.797   4.482  18.087  0.00  0.00    +0.000 OA
ATOM      3  N   UNL     1      47.877   3.862  15.909  0.00  0.00    +0.000 N 
ATOM      4  H   UNL     1      48.386   3.436  15.147  0.00  0.00    +0.000 HD
ENDROOT
BRANCH   1  11
ATOM      5  C   UNL     1      51.289   5.607  17.727  0.00  0.00    +0.000 A 
ATOM      6  N   UNL     1      52.568   5.943  17.996  0.00  0.00    +0.000 NA
ATOM      7  C   UNL     1      53.488   4.976  18.097  0.00  0.00    +0.000 A 
ATOM      8  N   UNL     1      53.305   3.653  17.966  0.00  0.00    +0.000 NA
ATOM      9  C   UNL     1      52.020   3.350  17.720  0.00  0.00    +0.000 A 
ATOM     10  C   UNL     1      50.958   4.241  17.605  0.00  0.00    +0.000 A 
ATOM     11  C   UNL     1      49.775   3.456  17.341  0.00  0.00    +0.000 A 
ATOM     12  C   UNL     1      50.188   2.129  17.281  0.00  0.00    +0.000 A 
ATOM     13  N   UNL     1      51.540   2.086  17.511  0.00  0.00    +0.000 N 
ATOM     14  C   UNL     1      52.360   0.896  17.503  0.00  0.00    +0.000 C 
BRANCH   5  18
ATOM     15  C   UNL     1      48.795   8.110  16.482  0.00  0.00    +0.000 C 
ATOM     16  C   UNL     1      49.819   7.013  16.339  0.00  0.00    +0.000 C 
ATOM     17  O   UNL     1      50.104   6.574  15.228  0.00  0.00    +0.000 OA
ATOM     18  N   UNL     1      50.320   6.601  17.550  0.00  0.00    +0.000 N 
ATOM     19  H   UNL     1      49.862   6.940  18.393  0.00  0.00    +0.000 HD
ENDBRANCH   5  18
ENDBRANCH   1  11
BRANCH   3  20
ATOM     20  C   UNL     1      46.540   4.346  15.682  0.00  0.00    +0.000 C 
BRANCH  20  21
ATOM     21  C   UNL     1      46.300   4.634  14.231  0.00  0.00    +0.000 A 
ATOM     22  C   UNL     1      46.941   5.707  13.604  0.00  0.00    +0.000 A 
ATOM     23  C   UNL     1      46.705   5.979  12.257  0.00  0.00    +0.000 A 
ATOM     24  C   UNL     1      45.824   5.179  11.510  0.00  0.00    +0.000 A 
ATOM     25  C   UNL     1      45.174   4.114  12.147  0.00  0.00    +0.000 A 
ATOM     26  C   UNL     1      45.406   3.847  13.495  0.00  0.00    +0.000 A 
BRANCH  24  27
ATOM     27  C   UNL     1      45.576   5.462  10.048  0.00  0.00    +0.000 C 
BRANCH  27  28
ATOM     28  N   UNL     1      44.736   4.427   9.453  0.00  0.00    +0.000 NA
ATOM     29  H   UNL     1      43.760   4.630   9.664  0.00  0.00    +0.000 HD
BRANCH  28  30
ATOM     30  C   UNL     1      44.900   4.363   8.003  0.00  0.00    +0.000 C 
BRANCH  30  31
ATOM     31  C   UNL     1      45.790   3.203   7.617  0.00  0.00    +0.000 A 
ATOM     32  C   UNL     1      46.656   3.304   6.520  0.00  0.00    +0.000 A 
ATOM     33  C   UNL     1      47.469   2.228   6.155  0.00  0.00    +0.000 A 
ATOM     34  C   UNL     1      47.425   1.040   6.882  0.00  0.00    +0.000 A 
ATOM     35  C   UNL     1      46.573   0.928   7.979  0.00  0.00    +0.000 A 
ATOM     36  C   UNL     1      45.763   2.005   8.348  0.00  0.00    +0.000 A 
ENDBRANCH  30  31
ENDBRANCH  28  30
ENDBRANCH  27  28
ENDBRANCH  24  27
ENDBRANCH  20  21
ENDBRANCH   3  20
TORSDOF 8
ENDMDL
MODEL 8
REMARK VINA RESULT:    -6.846      1.714      2.371
REMARK INTER + INTRA:         -11.786
REMARK INTER:                  -9.944
REMARK INTRA:                  -1.842
REMARK UNBOUND:                -1.738
REMARK  Name = 
REMARK  10 active torsions:
REMARK  status: ('A' for Active; 'I' for Inactive)
REMARK    1  A    between atoms: C_1  and  C_2
REMARK    2  A    between atoms: N_4  and  C_5
REMARK    3  A    between atoms: C_11  and  C_12
REMARK    4  A    between atoms: N_14  and  C_15
REMARK    5  A    between atoms: C_15  and  C_16
REMARK    6  A    between atoms: C_19  and  C_20
REMARK    7  A    between atoms: C_20  and  N_21
REMARK    8  A    between atoms: N_21  and  C_22
REMARK    9  A    between atoms: C_22  and  C_23
REMARK   10  A    between atoms: N_32  and  C_33
REMARK                            x       y       z     vdW  Elec       q    Type
REMARK                         _______ _______ _______ _____ _____    ______ ____
ROOT
ATOM      1  C   UNL     1      50.279   7.039  16.681  0.00  0.00    +0.000 C 
ATOM      2  O   UNL     1      50.581   5.918  16.276  0.00  0.00    +0.000 OA
ATOM      3  N   UNL     1      50.048   8.071  15.809  0.00  0.00    +0.000 N 
ATOM      4  H   UNL     1      49.809   8.995  16.139  0.00  0.00    +0.000 HD
ENDROOT
BRANCH   1  11
ATOM      5  C   UNL     1      47.903   6.150  18.862  0.00  0.00    +0.000 A 
ATOM      6  N   UNL     1      47.164   5.935  19.970  0.00  0.00    +0.000 NA
ATOM      7  C   UNL     1      47.567   6.460  21.134  0.00  0.00    +0.000 A 
ATOM      8  N   UNL     1      48.661   7.203  21.363  0.00  0.00    +0.000 NA
ATOM      9  C   UNL     1      49.384   7.382  20.246  0.00  0.00    +0.000 A 
ATOM     10  C   UNL     1      49.101   6.886  18.978  0.00  0.00    +0.000 A 
ATOM     11  C   UNL     1      50.160   7.333  18.103  0.00  0.00    +0.000 A 
ATOM     12  C   UNL     1      51.016   8.103  18.883  0.00  0.00    +0.000 A 
ATOM     13  N   UNL     1      50.533   8.120  20.168  0.00  0.00    +0.000 N 
ATOM     14  C   UNL     1      51.118   8.835  21.280  0.00  0.00    +0.000 C 
BRANCH   5  18
ATOM     15  C   UNL     1      47.098   4.188  15.774  0.00  0.00    +0.000 C 
ATOM     16  C   UNL     1      47.675   4.393  17.150  0.00  0.00    +0.000 C 
ATOM     17  O   UNL     1      48.233   3.468  17.732  0.00  0.00    +0.000 OA
ATOM     18  N   UNL     1      47.471   5.669  17.621  0.00  0.00    +0.000 N 
ATOM     19  H   UNL     1      46.843   6.273  17.095  0.00  0.00    +0.000 HD
ENDBRANCH   5  18
ENDBRANCH   1  11
BRANCH   3  20
ATOM     20  C   UNL     1      50.167   7.834  14.394  0.00  0.00    +0.000 C 
BRANCH  20  21
ATOM     21  C   UNL     1      48.831   7.573  13.767  0.00  0.00    +0.000 A 
ATOM     22  C   UNL     1      47.769   8.462  13.961  0.00  0.00    +0.000 A 
ATOM     23  C   UNL     1      46.524   8.210  13.387  0.00  0.00    +0.000 A 
ATOM     24  C   UNL     1      46.318   7.060  12.604  0.00  0.00    +0.000 A 
ATOM     25  C   UNL     1      47.381   6.166  12.425  0.00  0.00    +0.000 A 
ATOM     26  C   UNL     1      48.624   6.417  13.005  0.00  0.00    +0.000 A 
BRANCH  24  27
ATOM     27  C   UNL     1      44.975   6.790  11.969  0.00  0.00    +0.000 C 
BRANCH  27  28
ATOM     28  N   UNL     1      44.758   5.356  11.803  0.00  0.00    +0.000 NA
ATOM     29  H   UNL     1      44.285   4.994  12.630  0.00  0.00    +0.000 HD
BRANCH  28  30
ATOM     30  C   UNL     1      43.941   5.064  10.628  0.00  0.00    +0.000 C 
BRANCH  30  31
ATOM     31  C   UNL     1      44.667   4.126   9.692  0.00  0.00    +0.000 A 
ATOM     32  C   UNL     1      44.532   2.737   9.829  0.00  0.00    +0.000 A 
ATOM     33  C   UNL     1      45.212   1.869   8.972  0.00  0.00    +0.000 A 
ATOM     34  C   UNL     1      46.034   2.379   7.969  0.00  0.00    +0.000 A 
ATOM     35  C   UNL     1      46.172   3.757   7.817  0.00  0.00    +0.000 A 
ATOM     36  C   UNL     1      45.489   4.626   8.670  0.00  0.00    +0.000 A 
ENDBRANCH  30  31
ENDBRANCH  28  30
ENDBRANCH  27  28
ENDBRANCH  24  27
ENDBRANCH  20  21
ENDBRANCH   3  20
TORSDOF 8
ENDMDL
MODEL 9
REMARK VINA RESULT:    -6.818      3.231      9.048
REMARK INTER + INTRA:         -11.744
REMARK INTER:                  -9.123
REMARK INTRA:                  -2.621
REMARK UNBOUND:                -1.738
REMARK  Name = 
REMARK  10 active torsions:
REMARK  status: ('A' for Active; 'I' for Inactive)
REMARK    1  A    between atoms: C_1  and  C_2
REMARK    2  A    between atoms: N_4  and  C_5
REMARK    3  A    between atoms: C_11  and  C_12
REMARK    4  A    between atoms: N_14  and  C_15
REMARK    5  A    between atoms: C_15  and  C_16
REMARK    6  A    between atoms: C_19  and  C_20
REMARK    7  A    between atoms: C_20  and  N_21
REMARK    8  A    between atoms: N_21  and  C_22
REMARK    9  A    between atoms: C_22  and  C_23
REMARK   10  A    between atoms: N_32  and  C_33
REMARK                            x       y       z     vdW  Elec       q    Type
REMARK                         _______ _______ _______ _____ _____    ______ ____
ROOT
ATOM      1  C   UNL     1      46.821   4.200  14.218  0.00  0.00    +0.000 C 
ATOM      2  O   UNL     1      47.718   3.525  13.715  0.00  0.00    +0.000 OA
ATOM      3  N   UNL     1      46.681   4.294  15.577  0.00  0.00    +0.000 N 
ATOM      4  H   UNL     1      45.939   4.839  15.993  0.00  0.00    +0.000 HD
ENDROOT
BRANCH   1  11
ATOM      5  C   UNL     1      46.712   7.442  13.400  0.00  0.00    +0.000 A 
ATOM      6  N   UNL     1      46.407   8.644  12.866  0.00  0.00    +0.000 NA
ATOM      7  C   UNL     1      45.324   8.753  12.087  0.00  0.00    +0.000 A 
ATOM      8  N   UNL     1      44.461   7.786  11.741  0.00  0.00    +0.000 NA
ATOM      9  C   UNL     1      44.804   6.600  12.270  0.00  0.00    +0.000 A 
ATOM     10  C   UNL     1      45.903   6.332  13.080  0.00  0.00    +0.000 A 
ATOM     11  C   UNL     1      45.858   4.924  13.400  0.00  0.00    +0.000 A 
ATOM     12  C   UNL     1      44.715   4.418  12.789  0.00  0.00    +0.000 A 
ATOM     13  N   UNL     1      44.095   5.441  12.115  0.00  0.00    +0.000 N 
ATOM     14  C   UNL     1      42.858   5.335  11.374  0.00  0.00    +0.000 C 
BRANCH   5  18
ATOM     15  C   UNL     1      50.047   7.053  15.061  0.00  0.00    +0.000 C 
ATOM     16  C   UNL     1      49.113   7.183  13.886  0.00  0.00    +0.000 C 
ATOM     17  O   UNL     1      49.555   7.187  12.741  0.00  0.00    +0.000 OA
ATOM     18  N   UNL     1      47.800   7.312  14.271  0.00  0.00    +0.000 N 
ATOM     19  H   UNL     1      47.608   7.462  15.259  0.00  0.00    +0.000 HD
ENDBRANCH   5  18
ENDBRANCH   1  11
BRANCH   3  20
ATOM     20  C   UNL     1      47.600   3.585  16.429  0.00  0.00    +0.000 C 
BRANCH  20  21
ATOM     21  C   UNL     1      47.972   4.398  17.632  0.00  0.00    +0.000 A 
ATOM     22  C   UNL     1      47.930   5.795  17.585  0.00  0.00    +0.000 A 
ATOM     23  C   UNL     1      48.289   6.549  18.702  0.00  0.00    +0.000 A 
ATOM     24  C   UNL     1      48.695   5.917  19.890  0.00  0.00    +0.000 A 
ATOM     25  C   UNL     1      48.748   4.518  19.927  0.00  0.00    +0.000 A 
ATOM     26  C   UNL     1      48.395   3.766  18.807  0.00  0.00    +0.000 A 
BRANCH  24  27
ATOM     27  C   UNL     1      49.071   6.729  21.106  0.00  0.00    +0.000 C 
BRANCH  27  28
ATOM     28  N   UNL     1      50.413   6.385  21.566  0.00  0.00    +0.000 NA
ATOM     29  H   UNL     1      50.512   5.371  21.572  0.00  0.00    +0.000 HD
BRANCH  28  30
ATOM     30  C   UNL     1      51.444   6.953  20.702  0.00  0.00    +0.000 C 
BRANCH  30  31
ATOM     31  C   UNL     1      51.923   5.929  19.697  0.00  0.00    +0.000 A 
ATOM     32  C   UNL     1      51.927   6.224  18.327  0.00  0.00    +0.000 A 
ATOM     33  C   UNL     1      52.358   5.274  17.398  0.00  0.00    +0.000 A 
ATOM     34  C   UNL     1      52.788   4.020  17.827  0.00  0.00    +0.000 A 
ATOM     35  C   UNL     1      52.796   3.717  19.187  0.00  0.00    +0.000 A 
ATOM     36  C   UNL     1      52.370   4.667  20.118  0.00  0.00    +0.000 A 
ENDBRANCH  30  31
ENDBRANCH  28  30
ENDBRANCH  27  28
ENDBRANCH  24  27
ENDBRANCH  20  21
ENDBRANCH   3  20
TORSDOF 8
ENDMDL
