MODEL 1
REMARK VINA RESULT:    -8.386      0.000      0.000
REMARK INTER + INTRA:         -11.960
REMARK INTER:                 -11.327
REMARK INTRA:                  -0.632
REMARK UNBOUND:                -0.632
REMARK  Name = 
REMARK  8 active torsions:
REMARK  status: ('A' for Active; 'I' for Inactive)
REMARK    1  A    between atoms: C_1  and  C_2
REMARK    2  A    between atoms: C_6  and  O_7
REMARK    3  A    between atoms: O_7  and  C_8
REMARK    4  A    between atoms: C_8  and  C_9
REMARK    5  A    between atoms: C_8  and  C_10
REMARK    6  A    between atoms: C_13  and  C_14
REMARK    7  A    between atoms: C_14  and  N_15
REMARK    8  A    between atoms: C_16  and  C_18
REMARK                            x       y       z     vdW  Elec       q    Type
REMARK                         _______ _______ _______ _____ _____    ______ ____
ROOT
ATOM      1  C   UNL     1      45.255   5.183  11.569  0.00  0.00    +0.000 A 
ATOM      2  C   UNL     1      45.936   6.343  11.229  0.00  0.00    +0.000 A 
ATOM      3  N   UNL     1      46.987   6.829  11.942  0.00  0.00    +0.000 NA
ATOM      4  C   UNL     1      47.346   6.108  13.037  0.00  0.00    +0.000 A 
ATOM      5  C   UNL     1      46.661   4.953  13.390  0.00  0.00    +0.000 A 
ATOM      6  N   UNL     1      45.606   4.482  12.685  0.00  0.00    +0.000 NA
ENDROOT
BRANCH   1   7
ATOM      7  C   UNL     1      44.115   4.624  10.723  0.00  0.00    +0.000 C 
ATOM      8  C   UNL     1      42.819   4.753  11.532  0.00  0.00    +0.000 C 
BRANCH   7   9
ATOM      9  O   UNL     1      44.332   3.231  10.389  0.00  0.00    +0.000 OA
BRANCH   9  15
ATOM     10  C   UNL     1      46.793   0.177   7.704  0.00  0.00    +0.000 C 
ATOM     11  C   UNL     1      46.302   1.573   7.908  0.00  0.00    +0.000 A 
ATOM     12  C   UNL     1      46.601   2.592   7.013  0.00  0.00    +0.000 A 
ATOM     13  C   UNL     1      46.156   3.879   7.301  0.00  0.00    +0.000 A 
ATOM     14  C   UNL     1      45.415   4.108   8.457  0.00  0.00    +0.000 A 
ATOM     15  C   UNL     1      45.122   3.022   9.274  0.00  0.00    +0.000 A 
ATOM     16  N   UNL     1      45.565   1.779   9.022  0.00  0.00    +0.000 NA
ENDBRANCH   9  15
ENDBRANCH   7   9
ENDBRANCH   1   7
BRANCH   4  17
ATOM     17  C   UNL     1      48.518   6.581  13.860  0.00  0.00    +0.000 C 
BRANCH  17  18
ATOM     18  N   UNL     1      48.189   6.759  15.256  0.00  0.00    +0.000 N 
ATOM     19  C   UNL     1      49.102   6.545  16.254  0.00  0.00    +0.000 C 
ATOM     20  O   UNL     1      50.256   6.196  16.017  0.00  0.00    +0.000 OA
ATOM     21  H   UNL     1      47.212   6.915  15.481  0.00  0.00    +0.000 HD
BRANCH  19  22
ATOM     22  C   UNL     1      48.647   6.811  17.621  0.00  0.00    +0.000 A 
ATOM     23  C   UNL     1      48.244   8.088  17.983  0.00  0.00    +0.000 A 
ATOM     24  S   UNL     1      47.723   8.202  19.603  0.00  0.00    +0.000 S 
ATOM     25  C   UNL     1      48.060   6.557  19.884  0.00  0.00    +0.000 A 
ATOM     26  N   UNL     1      47.855   6.000  21.108  0.00  0.00    +0.000 NA
ATOM     27  C   UNL     1      48.185   4.755  21.186  0.00  0.00    +0.000 A 
ATOM     28  N   UNL     1      48.693   4.012  20.152  0.00  0.00    +0.000 N 
ATOM     29  C   UNL     1      48.883   4.518  18.889  0.00  0.00    +0.000 A 
ATOM     30  O   UNL     1      49.277   3.813  17.970  0.00  0.00    +0.000 OA
ATOM     31  C   UNL     1      48.545   5.925  18.754  0.00  0.00    +0.000 A 
ATOM     32  H   UNL     1      48.909   3.032  20.278  0.00  0.00    +0.000 HD
ENDBRANCH  19  22
ENDBRANCH  17  18
ENDBRANCH   4  17
TORSDOF 6
ENDMDL
MODEL 2
REMARK VINA RESULT:    -8.366      1.534      2.074
REMARK INTER + INTRA:         -11.933
REMARK INTER:                 -10.945
REMARK INTRA:                  -0.987
REMARK UNBOUND:                -0.632
REMARK  Name = 
REMARK  8 active torsions:
REMARK  status: ('A' for Active; 'I' for Inactive)
REMARK    1  A    between atoms: C_1  and  C_2
REMARK    2  A    between atoms: C_6  and  O_7
REMARK    3  A    between atoms: O_7  and  C_8
REMARK    4  A    between atoms: C_8  and  C_9
REMARK    5  A    between atoms: C_8  and  C_10
REMARK    6  A    between atoms: C_13  and  C_14
REMARK    7  A    between atoms: C_14  and  N_15
REMARK    8  A    between atoms: C_16  and  C_18
REMARK                            x       y       z     vdW  Elec       q    Type
REMARK                         _______ _______ _______ _____ _____    ______ ____
ROOT
ATOM      1  C   UNL     1      45.354   4.547  12.041  0.00  0.00    +0.000 A 
ATOM      2  C   UNL     1      45.771   3.318  12.532  0.00  0.00    +0.000 A 
ATOM      3  N   UNL     1      46.493   3.177  13.676  0.00  0.00    +0.000 NA
ATOM      4  C   UNL     1      46.802   4.327  14.330  0.00  0.00    +0.000 A 
ATOM      5  C   UNL     1      46.398   5.561  13.837  0.00  0.00    +0.000 A 
ATOM      6  N   UNL     1      45.691   5.698  12.690  0.00  0.00    +0.000 NA
ENDROOT
BRANCH   1   7
ATOM      7  C   UNL     1      44.495   4.679  10.787  0.00  0.00    +0.000 C 
ATOM      8  C   UNL     1      43.134   5.248  11.205  0.00  0.00    +0.000 C 
BRANCH   7   9
ATOM      9  O   UNL     1      44.298   3.399  10.138  0.00  0.00    +0.000 OA
BRANCH   9  15
ATOM     10  C   UNL     1      46.767   0.180   7.661  0.00  0.00    +0.000 C 
ATOM     11  C   UNL     1      46.368   1.609   7.837  0.00  0.00    +0.000 A 
ATOM     12  C   UNL     1      46.833   2.608   6.992  0.00  0.00    +0.000 A 
ATOM     13  C   UNL     1      46.463   3.924   7.254  0.00  0.00    +0.000 A 
ATOM     14  C   UNL     1      45.632   4.202   8.335  0.00  0.00    +0.000 A 
ATOM     15  C   UNL     1      45.175   3.137   9.103  0.00  0.00    +0.000 A 
ATOM     16  N   UNL     1      45.543   1.864   8.877  0.00  0.00    +0.000 NA
ENDBRANCH   9  15
ENDBRANCH   7   9
ENDBRANCH   1   7
BRANCH   4  17
ATOM     17  C   UNL     1      47.583   4.239  15.616  0.00  0.00    +0.000 C 
BRANCH  17  18
ATOM     18  N   UNL     1      47.577   5.476  16.365  0.00  0.00    +0.000 N 
ATOM     19  C   UNL     1      48.719   6.195  16.596  0.00  0.00    +0.000 C 
ATOM     20  O   UNL     1      49.814   5.832  16.171  0.00  0.00    +0.000 OA
ATOM     21  H   UNL     1      46.713   5.723  16.836  0.00  0.00    +0.000 HD
BRANCH  19  22
ATOM     22  C   UNL     1      48.559   7.454  17.327  0.00  0.00    +0.000 A 
ATOM     23  C   UNL     1      48.861   8.659  16.709  0.00  0.00    +0.000 A 
ATOM     24  S   UNL     1      48.588  10.018  17.704  0.00  0.00    +0.000 S 
ATOM     25  C   UNL     1      48.100   9.036  19.005  0.00  0.00    +0.000 A 
ATOM     26  N   UNL     1      47.745   9.581  20.199  0.00  0.00    +0.000 NA
ATOM     27  C   UNL     1      47.431   8.718  21.105  0.00  0.00    +0.000 A 
ATOM     28  N   UNL     1      47.430   7.359  20.926  0.00  0.00    +0.000 N 
ATOM     29  C   UNL     1      47.744   6.761  19.730  0.00  0.00    +0.000 A 
ATOM     30  O   UNL     1      47.671   5.549  19.583  0.00  0.00    +0.000 OA
ATOM     31  C   UNL     1      48.126   7.691  18.681  0.00  0.00    +0.000 A 
ATOM     32  H   UNL     1      47.148   6.740  21.676  0.00  0.00    +0.000 HD
ENDBRANCH  19  22
ENDBRANCH  17  18
ENDBRANCH   4  17
TORSDOF 6
ENDMDL
MODEL 3
REMARK VINA RESULT:    -8.267      1.335      2.069
REMARK INTER + INTRA:         -11.799
REMARK INTER:                 -10.931
REMARK INTRA:                  -0.868
REMARK UNBOUND:                -0.632
REMARK  Name = 
REMARK  8 active torsions:
REMARK  status: ('A' for Active; 'I' for Inactive)
REMARK    1  A    between atoms: C_1  and  C_2
REMARK    2  A    between atoms: C_6  and  O_7
REMARK    3  A    between atoms: O_7  and  C_8
REMARK    4  A    between atoms: C_8  and  C_9
REMARK    5  A    between atoms: C_8  and  C_10
REMARK    6  A    between atoms: C_13  and  C_14
REMARK    7  A    between atoms: C_14  and  N_15
REMARK    8  A    between atoms: C_16  and  C_18
REMARK                            x       y       z     vdW  Elec       q    Type
REMARK                         _______ _______ _______ _____ _____    ______ ____
ROOT
ATOM      1  C   UNL     1      45.281   5.201  11.574  0.00  0.00    +0.000 A 
ATOM      2  C   UNL     1      45.647   4.607  12.773  0.00  0.00    +0.000 A 
ATOM      3  N   UNL     1      46.601   5.115  13.599  0.00  0.00    +0.000 NA
ATOM      4  C   UNL     1      47.200   6.261  13.180  0.00  0.00    +0.000 A 
ATOM      5  C   UNL     1      46.846   6.854  11.976  0.00  0.00    +0.000 A 
ATOM      6  N   UNL     1      45.907   6.336  11.150  0.00  0.00    +0.000 NA
ENDROOT
BRANCH   1   7
ATOM      7  C   UNL     1      44.168   4.646  10.691  0.00  0.00    +0.000 C 
ATOM      8  C   UNL     1      42.844   4.796  11.450  0.00  0.00    +0.000 C 
BRANCH   7   9
ATOM      9  O   UNL     1      44.382   3.247  10.379  0.00  0.00    +0.000 OA
BRANCH   9  15
ATOM     10  C   UNL     1      46.772   0.139   7.693  0.00  0.00    +0.000 C 
ATOM     11  C   UNL     1      46.304   1.544   7.892  0.00  0.00    +0.000 A 
ATOM     12  C   UNL     1      46.612   2.553   6.989  0.00  0.00    +0.000 A 
ATOM     13  C   UNL     1      46.189   3.848   7.272  0.00  0.00    +0.000 A 
ATOM     14  C   UNL     1      45.462   4.095   8.432  0.00  0.00    +0.000 A 
ATOM     15  C   UNL     1      45.159   3.019   9.259  0.00  0.00    +0.000 A 
ATOM     16  N   UNL     1      45.581   1.768   9.011  0.00  0.00    +0.000 NA
ENDBRANCH   9  15
ENDBRANCH   7   9
ENDBRANCH   1   7
BRANCH   4  17
ATOM     17  C   UNL     1      48.252   6.889  14.059  0.00  0.00    +0.000 C 
BRANCH  17  18
ATOM     18  N   UNL     1      48.110   6.529  15.451  0.00  0.00    +0.000 N 
ATOM     19  C   UNL     1      49.189   6.260  16.250  0.00  0.00    +0.000 C 
ATOM     20  O   UNL     1      50.342   6.318  15.828  0.00  0.00    +0.000 OA
ATOM     21  H   UNL     1      47.169   6.345  15.784  0.00  0.00    +0.000 HD
BRANCH  19  22
ATOM     22  C   UNL     1      48.901   5.956  17.653  0.00  0.00    +0.000 A 
ATOM     23  C   UNL     1      49.141   4.684  18.152  0.00  0.00    +0.000 A 
ATOM     24  S   UNL     1      48.771   4.524  19.810  0.00  0.00    +0.000 S 
ATOM     25  C   UNL     1      48.238   6.138  19.903  0.00  0.00    +0.000 A 
ATOM     26  N   UNL     1      47.757   6.651  21.067  0.00  0.00    +0.000 NA
ATOM     27  C   UNL     1      47.358   7.874  20.983  0.00  0.00    +0.000 A 
ATOM     28  N   UNL     1      47.402   8.637  19.845  0.00  0.00    +0.000 N 
ATOM     29  C   UNL     1      47.912   8.179  18.655  0.00  0.00    +0.000 A 
ATOM     30  O   UNL     1      47.998   8.905  17.674  0.00  0.00    +0.000 OA
ATOM     31  C   UNL     1      48.358   6.796  18.692  0.00  0.00    +0.000 A 
ATOM     32  H   UNL     1      47.092   9.600  19.858  0.00  0.00    +0.000 HD
ENDBRANCH  19  22
ENDBRANCH  17  18
ENDBRANCH   4  17
TORSDOF 6
ENDMDL
MODEL 4
REMARK VINA RESULT:    -7.989      1.225      1.537
REMARK INTER + INTRA:         -11.424
REMARK INTER:                 -10.568
REMARK INTRA:                  -0.856
REMARK UNBOUND:                -0.632
REMARK  Name = 
REMARK  8 active torsions:
REMARK  status: ('A' for Active; 'I' for Inactive)
REMARK    1  A    between atoms: C_1  and  C_2
REMARK    2  A    between atoms: C_6  and  O_7
REMARK    3  A    between atoms: O_7  and  C_8
REMARK    4  A    between atoms: C_8  and  C_9
REMARK    5  A    between atoms: C_8  and  C_10
REMARK    6  A    between atoms: C_13  and  C_14
REMARK    7  A    between atoms: C_14  and  N_15
REMARK    8  A    between atoms: C_16  and  C_18
REMARK                            x       y       z     vdW  Elec       q    Type
REMARK                         _______ _______ _______ _____ _____    ______ ____
ROOT
ATOM      1  C   UNL     1      45.172   5.179  11.388  0.00  0.00    +0.000 A 
ATOM      2  C   UNL     1      45.623   4.775  12.637  0.00  0.00    +0.000 A 
ATOM      3  N   UNL     1      46.509   5.492  13.379  0.00  0.00    +0.000 NA
ATOM      4  C   UNL     1      46.949   6.652  12.822  0.00  0.00    +0.000 A 
ATOM      5  C   UNL     1      46.510   7.055  11.569  0.00  0.00    +0.000 A 
ATOM      6  N   UNL     1      45.639   6.330  10.827  0.00  0.00    +0.000 NA
ENDROOT
BRANCH   1   7
ATOM      7  C   UNL     1      44.133   4.388  10.598  0.00  0.00    +0.000 C 
ATOM      8  C   UNL     1      42.831   4.377  11.409  0.00  0.00    +0.000 C 
BRANCH   7   9
ATOM      9  O   UNL     1      44.563   3.024  10.369  0.00  0.00    +0.000 OA
BRANCH   9  15
ATOM     10  C   UNL     1      46.918   0.035   7.521  0.00  0.00    +0.000 C 
ATOM     11  C   UNL     1      46.397   1.415   7.755  0.00  0.00    +0.000 A 
ATOM     12  C   UNL     1      46.596   2.438   6.837  0.00  0.00    +0.000 A 
ATOM     13  C   UNL     1      46.132   3.711   7.151  0.00  0.00    +0.000 A 
ATOM     14  C   UNL     1      45.471   3.923   8.358  0.00  0.00    +0.000 A 
ATOM     15  C   UNL     1      45.274   2.834   9.199  0.00  0.00    +0.000 A 
ATOM     16  N   UNL     1      45.739   1.604   8.920  0.00  0.00    +0.000 NA
ENDBRANCH   9  15
ENDBRANCH   7   9
ENDBRANCH   1   7
BRANCH   4  17
ATOM     17  C   UNL     1      47.918   7.505  13.602  0.00  0.00    +0.000 C 
BRANCH  17  18
ATOM     18  N   UNL     1      48.061   7.081  14.976  0.00  0.00    +0.000 N 
ATOM     19  C   UNL     1      49.285   6.853  15.546  0.00  0.00    +0.000 C 
ATOM     20  O   UNL     1      50.332   7.004  14.921  0.00  0.00    +0.000 OA
ATOM     21  H   UNL     1      47.212   6.821  15.467  0.00  0.00    +0.000 HD
BRANCH  19  22
ATOM     22  C   UNL     1      49.284   6.474  16.961  0.00  0.00    +0.000 A 
ATOM     23  C   UNL     1      49.763   7.359  17.917  0.00  0.00    +0.000 A 
ATOM     24  S   UNL     1      49.659   6.758  19.510  0.00  0.00    +0.000 S 
ATOM     25  C   UNL     1      49.011   5.280  18.968  0.00  0.00    +0.000 A 
ATOM     26  N   UNL     1      48.709   4.285  19.845  0.00  0.00    +0.000 NA
ATOM     27  C   UNL     1      48.258   3.210  19.292  0.00  0.00    +0.000 A 
ATOM     28  N   UNL     1      48.073   3.039  17.945  0.00  0.00    +0.000 N 
ATOM     29  C   UNL     1      48.328   4.025  17.023  0.00  0.00    +0.000 A 
ATOM     30  O   UNL     1      48.091   3.864  15.833  0.00  0.00    +0.000 OA
ATOM     31  C   UNL     1      48.859   5.251  17.594  0.00  0.00    +0.000 A 
ATOM     32  H   UNL     1      47.693   2.174  17.582  0.00  0.00    +0.000 HD
ENDBRANCH  19  22
ENDBRANCH  17  18
ENDBRANCH   4  17
TORSDOF 6
ENDMDL
MODEL 5
REMARK VINA RESULT:    -7.481      3.394      4.900
REMARK INTER + INTRA:         -10.738
REMARK INTER:                  -9.945
REMARK INTRA:                  -0.793
REMARK UNBOUND:                -0.632
REMARK  Name = 
REMARK  8 active torsions:
REMARK  status: ('A' for Active; 'I' for Inactive)
REMARK    1  A    between atoms: C_1  and  C_2
REMARK    2  A    between atoms: C_6  and  O_7
REMARK    3  A    between atoms: O_7  and  C_8
REMARK    4  A    between atoms: C_8  and  C_9
REMARK    5  A    between atoms: C_8  and  C_10
REMARK    6  A    between atoms: C_13  and  C_14
REMARK    7  A    between atoms: C_14  and  N_15
REMARK    8  A    between atoms: C_16  and  C_18
REMARK                            x       y       z     vdW  Elec       q    Type
REMARK                         _______ _______ _______ _____ _____    ______ ____
ROOT
ATOM      1  C   UNL     1      47.506   5.773  13.452  0.00  0.00    +0.000 A 
ATOM      2  C   UNL     1      48.093   6.272  14.606  0.00  0.00    +0.000 A 
ATOM      3  N   UNL     1      48.160   5.574  15.771  0.00  0.00    +0.000 NA
ATOM      4  C   UNL     1      47.605   4.333  15.754  0.00  0.00    +0.000 A 
ATOM      5  C   UNL     1      47.006   3.834  14.606  0.00  0.00    +0.000 A 
ATOM      6  N   UNL     1      46.928   4.538  13.452  0.00  0.00    +0.000 NA
ENDROOT
BRANCH   1   7
ATOM      7  C   UNL     1      47.493   6.550  12.139  0.00  0.00    +0.000 C 
ATOM      8  C   UNL     1      48.463   7.730  12.278  0.00  0.00    +0.000 C 
BRANCH   7   9
ATOM      9  O   UNL     1      46.171   7.055  11.831  0.00  0.00    +0.000 OA
BRANCH   9  15
ATOM     10  C   UNL     1      45.436   3.952   8.306  0.00  0.00    +0.000 C 
ATOM     11  C   UNL     1      44.933   4.583   9.563  0.00  0.00    +0.000 A 
ATOM     12  C   UNL     1      43.703   4.244  10.110  0.00  0.00    +0.000 A 
ATOM     13  C   UNL     1      43.276   4.917  11.251  0.00  0.00    +0.000 A 
ATOM     14  C   UNL     1      44.092   5.891  11.820  0.00  0.00    +0.000 A 
ATOM     15  C   UNL     1      45.328   6.135  11.234  0.00  0.00    +0.000 A 
ATOM     16  N   UNL     1      45.743   5.511  10.118  0.00  0.00    +0.000 NA
ENDBRANCH   9  15
ENDBRANCH   7   9
ENDBRANCH   1   7
BRANCH   4  17
ATOM     17  C   UNL     1      47.664   3.498  17.008  0.00  0.00    +0.000 C 
BRANCH  17  18
ATOM     18  N   UNL     1      49.015   3.243  17.452  0.00  0.00    +0.000 N 
ATOM     19  C   UNL     1      49.808   2.293  16.868  0.00  0.00    +0.000 C 
ATOM     20  O   UNL     1      49.417   1.607  15.926  0.00  0.00    +0.000 OA
ATOM     21  H   UNL     1      49.310   3.700  18.309  0.00  0.00    +0.000 HD
BRANCH  19  22
ATOM     22  C   UNL     1      51.173   2.175  17.387  0.00  0.00    +0.000 A 
ATOM     23  C   UNL     1      51.730   0.922  17.597  0.00  0.00    +0.000 A 
ATOM     24  S   UNL     1      53.333   0.981  18.178  0.00  0.00    +0.000 S 
ATOM     25  C   UNL     1      53.317   2.682  18.209  0.00  0.00    +0.000 A 
ATOM     26  N   UNL     1      54.399   3.385  18.639  0.00  0.00    +0.000 NA
ATOM     27  C   UNL     1      54.235   4.665  18.641  0.00  0.00    +0.000 A 
ATOM     28  N   UNL     1      53.092   5.309  18.244  0.00  0.00    +0.000 N 
ATOM     29  C   UNL     1      51.986   4.647  17.767  0.00  0.00    +0.000 A 
ATOM     30  O   UNL     1      51.005   5.253  17.359  0.00  0.00    +0.000 OA
ATOM     31  C   UNL     1      52.114   3.200  17.765  0.00  0.00    +0.000 A 
ATOM     32  H   UNL     1      53.041   6.319  18.250  0.00  0.00    +0.000 HD
ENDBRANCH  19  22
ENDBRANCH  17  18
ENDBRANCH   4  17
TORSDOF 6
ENDMDL
MODEL 6
REMARK VINA RESULT:    -7.242      2.794      8.950
REMARK INTER + INTRA:         -10.414
REMARK INTER:                  -9.191
REMARK INTRA:                  -1.224
REMARK UNBOUND:                -0.632
REMARK  Name = 
REMARK  8 active torsions:
REMARK  status: ('A' for Active; 'I' for Inactive)
REMARK    1  A    between atoms: C_1  and  C_2
REMARK    2  A    between atoms: C_6  and  O_7
REMARK    3  A    between atoms: O_7  and  C_8
REMARK    4  A    between atoms: C_8  and  C_9
REMARK    5  A    between atoms: C_8  and  C_10
REMARK    6  A    between atoms: C_13  and  C_14
REMARK    7  A    between atoms: C_14  and  N_15
REMARK    8  A    between atoms: C_16  and  C_18
REMARK                            x       y       z     vdW  Elec       q    Type
REMARK                         _______ _______ _______ _____ _____    ______ ____
ROOT
ATOM      1  C   UNL     1      49.581   8.151  15.533  0.00  0.00    +0.000 A 
ATOM      2  C   UNL     1      48.353   8.751  15.297  0.00  0.00    +0.000 A 
ATOM      3  N   UNL     1      47.703   8.680  14.104  0.00  0.00    +0.000 NA
ATOM      4  C   UNL     1      48.334   7.980  13.125  0.00  0.00    +0.000 A 
ATOM      5  C   UNL     1      49.568   7.386  13.351  0.00  0.00    +0.000 A 
ATOM      6  N   UNL     1      50.218   7.472  14.536  0.00  0.00    +0.000 NA
ENDROOT
BRANCH   1   7
ATOM      7  C   UNL     1      50.265   8.193  16.896  0.00  0.00    +0.000 C 
ATOM      8  C   UNL     1      51.558   9.006  16.751  0.00  0.00    +0.000 C 
BRANCH   7   9
ATOM      9  O   UNL     1      50.589   6.864  17.372  0.00  0.00    +0.000 OA
BRANCH   9  15
ATOM     10  C   UNL     1      48.428   2.714  16.540  0.00  0.00    +0.000 C 
ATOM     11  C   UNL     1      48.415   4.028  17.249  0.00  0.00    +0.000 A 
ATOM     12  C   UNL     1      47.376   4.393  18.094  0.00  0.00    +0.000 A 
ATOM     13  C   UNL     1      47.405   5.658  18.675  0.00  0.00    +0.000 A 
ATOM     14  C   UNL     1      48.473   6.510  18.410  0.00  0.00    +0.000 A 
ATOM     15  C   UNL     1      49.494   6.047  17.588  0.00  0.00    +0.000 A 
ATOM     16  N   UNL     1      49.467   4.838  17.001  0.00  0.00    +0.000 NA
ENDBRANCH   9  15
ENDBRANCH   7   9
ENDBRANCH   1   7
BRANCH   4  17
ATOM     17  C   UNL     1      47.658   7.845  11.784  0.00  0.00    +0.000 C 
BRANCH  17  18
ATOM     18  N   UNL     1      46.924   6.608  11.645  0.00  0.00    +0.000 N 
ATOM     19  C   UNL     1      45.557   6.561  11.686  0.00  0.00    +0.000 C 
ATOM     20  O   UNL     1      44.875   7.572  11.836  0.00  0.00    +0.000 OA
ATOM     21  H   UNL     1      47.466   5.750  11.655  0.00  0.00    +0.000 HD
BRANCH  19  22
ATOM     22  C   UNL     1      44.944   5.246  11.483  0.00  0.00    +0.000 A 
ATOM     23  C   UNL     1      44.232   4.645  12.512  0.00  0.00    +0.000 A 
ATOM     24  S   UNL     1      43.569   3.133  12.084  0.00  0.00    +0.000 S 
ATOM     25  C   UNL     1      44.249   3.213  10.526  0.00  0.00    +0.000 A 
ATOM     26  N   UNL     1      44.078   2.201   9.634  0.00  0.00    +0.000 NA
ATOM     27  C   UNL     1      44.676   2.381   8.505  0.00  0.00    +0.000 A 
ATOM     28  N   UNL     1      45.422   3.484   8.181  0.00  0.00    +0.000 N 
ATOM     29  C   UNL     1      45.594   4.549   9.032  0.00  0.00    +0.000 A 
ATOM     30  O   UNL     1      46.211   5.548   8.689  0.00  0.00    +0.000 OA
ATOM     31  C   UNL     1      44.956   4.385  10.327  0.00  0.00    +0.000 A 
ATOM     32  H   UNL     1      45.845   3.569   7.266  0.00  0.00    +0.000 HD
ENDBRANCH  19  22
ENDBRANCH  17  18
ENDBRANCH   4  17
TORSDOF 6
ENDMDL
MODEL 7
REMARK VINA RESULT:    -7.102      3.245      4.771
REMARK INTER + INTRA:         -10.225
REMARK INTER:                  -9.190
REMARK INTRA:                  -1.035
REMARK UNBOUND:                -0.632
REMARK  Name = 
REMARK  8 active torsions:
REMARK  status: ('A' for Active; 'I' for Inactive)
REMARK    1  A    between atoms: C_1  and  C_2
REMARK    2  A    between atoms: C_6  and  O_7
REMARK    3  A    between atoms: O_7  and  C_8
REMARK    4  A    between atoms: C_8  and  C_9
REMARK    5  A    between atoms: C_8  and  C_10
REMARK    6  A    between atoms: C_13  and  C_14
REMARK    7  A    between atoms: C_14  and  N_15
REMARK    8  A    between atoms: C_16  and  C_18
REMARK                            x       y       z     vdW  Elec       q    Type
REMARK                         _______ _______ _______ _____ _____    ______ ____
ROOT
ATOM      1  C   UNL     1      47.920   6.433  13.952  0.00  0.00    +0.000 A 
ATOM      2  C   UNL     1      48.466   7.548  14.572  0.00  0.00    +0.000 A 
ATOM      3  N   UNL     1      48.849   7.566  15.877  0.00  0.00    +0.000 NA
ATOM      4  C   UNL     1      48.660   6.411  16.567  0.00  0.00    +0.000 A 
ATOM      5  C   UNL     1      48.104   5.295  15.956  0.00  0.00    +0.000 A 
ATOM      6  N   UNL     1      47.711   5.287  14.661  0.00  0.00    +0.000 NA
ENDROOT
BRANCH   1   7
ATOM      7  C   UNL     1      47.552   6.417  12.472  0.00  0.00    +0.000 C 
ATOM      8  C   UNL     1      48.299   7.568  11.787  0.00  0.00    +0.000 C 
BRANCH   7   9
ATOM      9  O   UNL     1      46.127   6.589  12.275  0.00  0.00    +0.000 OA
BRANCH   9  15
ATOM     10  C   UNL     1      44.809   4.058   8.474  0.00  0.00    +0.000 C 
ATOM     11  C   UNL     1      44.842   4.184   9.963  0.00  0.00    +0.000 A 
ATOM     12  C   UNL     1      44.275   3.225  10.791  0.00  0.00    +0.000 A 
ATOM     13  C   UNL     1      44.295   3.440  12.166  0.00  0.00    +0.000 A 
ATOM     14  C   UNL     1      44.892   4.591  12.672  0.00  0.00    +0.000 A 
ATOM     15  C   UNL     1      45.476   5.477  11.775  0.00  0.00    +0.000 A 
ATOM     16  N   UNL     1      45.443   5.295  10.444  0.00  0.00    +0.000 NA
ENDBRANCH   9  15
ENDBRANCH   7   9
ENDBRANCH   1   7
BRANCH   4  17
ATOM     17  C   UNL     1      49.082   6.357  18.014  0.00  0.00    +0.000 C 
BRANCH  17  18
ATOM     18  N   UNL     1      50.078   5.342  18.272  0.00  0.00    +0.000 N 
ATOM     19  C   UNL     1      51.390   5.499  17.914  0.00  0.00    +0.000 C 
ATOM     20  O   UNL     1      51.796   6.517  17.359  0.00  0.00    +0.000 OA
ATOM     21  H   UNL     1      49.743   4.444  18.605  0.00  0.00    +0.000 HD
BRANCH  19  22
ATOM     22  C   UNL     1      52.300   4.411  18.281  0.00  0.00    +0.000 A 
ATOM     23  C   UNL     1      53.485   4.691  18.946  0.00  0.00    +0.000 A 
ATOM     24  S   UNL     1      54.401   3.300  19.314  0.00  0.00    +0.000 S 
ATOM     25  C   UNL     1      53.265   2.284  18.557  0.00  0.00    +0.000 A 
ATOM     26  N   UNL     1      53.460   0.940  18.493  0.00  0.00    +0.000 NA
ATOM     27  C   UNL     1      52.536   0.298  17.861  0.00  0.00    +0.000 A 
ATOM     28  N   UNL     1      51.430   0.875  17.293  0.00  0.00    +0.000 N 
ATOM     29  C   UNL     1      51.169   2.222  17.361  0.00  0.00    +0.000 A 
ATOM     30  O   UNL     1      50.140   2.697  16.901  0.00  0.00    +0.000 OA
ATOM     31  C   UNL     1      52.192   2.993  18.047  0.00  0.00    +0.000 A 
ATOM     32  H   UNL     1      50.732   0.306  16.831  0.00  0.00    +0.000 HD
ENDBRANCH  19  22
ENDBRANCH  17  18
ENDBRANCH   4  17
TORSDOF 6
ENDMDL
MODEL 8
REMARK VINA RESULT:    -6.816      3.750     10.037
REMARK INTER + INTRA:          -9.839
REMARK INTER:                  -8.903
REMARK INTRA:                  -0.936
REMARK UNBOUND:                -0.632
REMARK  Name = 
REMARK  8 active torsions:
REMARK  status: ('A' for Active; 'I' for Inactive)
REMARK    1  A    between atoms: C_1  and  C_2
REMARK    2  A    between atoms: C_6  and  O_7
REMARK    3  A    between atoms: O_7  and  C_8
REMARK    4  A    between atoms: C_8  and  C_9
REMARK    5  A    between atoms: C_8  and  C_10
REMARK    6  A    between atoms: C_13  and  C_14
REMARK    7  A    between atoms: C_14  and  N_15
REMARK    8  A    between atoms: C_16  and  C_18
REMARK                            x       y       z     vdW  Elec       q    Type
REMARK                         _______ _______ _______ _____ _____    ______ ____
ROOT
ATOM      1  C   UNL     1      50.242   5.230  19.017  0.00  0.00    +0.000 A 
ATOM      2  C   UNL     1      50.419   5.227  17.641  0.00  0.00    +0.000 A 
ATOM      3  N   UNL     1      49.526   4.678  16.774  0.00  0.00    +0.000 NA
ATOM      4  C   UNL     1      48.425   4.110  17.335  0.00  0.00    +0.000 A 
ATOM      5  C   UNL     1      48.249   4.100  18.711  0.00  0.00    +0.000 A 
ATOM      6  N   UNL     1      49.148   4.635  19.571  0.00  0.00    +0.000 NA
ENDROOT
BRANCH   1   7
ATOM      7  C   UNL     1      51.228   5.903  19.967  0.00  0.00    +0.000 C 
ATOM      8  C   UNL     1      52.102   4.810  20.593  0.00  0.00    +0.000 C 
BRANCH   7   9
ATOM      9  O   UNL     1      50.544   6.627  21.020  0.00  0.00    +0.000 OA
BRANCH   9  15
ATOM     10  C   UNL     1      47.036   9.644  19.932  0.00  0.00    +0.000 C 
ATOM     11  C   UNL     1      48.494   9.435  20.186  0.00  0.00    +0.000 A 
ATOM     12  C   UNL     1      49.407  10.478  20.112  0.00  0.00    +0.000 A 
ATOM     13  C   UNL     1      50.755  10.195  20.304  0.00  0.00    +0.000 A 
ATOM     14  C   UNL     1      51.150   8.889  20.580  0.00  0.00    +0.000 A 
ATOM     15  C   UNL     1      50.165   7.913  20.682  0.00  0.00    +0.000 A 
ATOM     16  N   UNL     1      48.862   8.167  20.475  0.00  0.00    +0.000 NA
ENDBRANCH   9  15
ENDBRANCH   7   9
ENDBRANCH   1   7
BRANCH   4  17
ATOM     17  C   UNL     1      47.386   3.501  16.428  0.00  0.00    +0.000 C 
BRANCH  17  18
ATOM     18  N   UNL     1      46.802   4.459  15.517  0.00  0.00    +0.000 N 
ATOM     19  C   UNL     1      46.743   4.241  14.167  0.00  0.00    +0.000 C 
ATOM     20  O   UNL     1      47.176   3.212  13.654  0.00  0.00    +0.000 OA
ATOM     21  H   UNL     1      46.562   5.368  15.900  0.00  0.00    +0.000 HD
BRANCH  19  22
ATOM     22  C   UNL     1      46.081   5.275  13.369  0.00  0.00    +0.000 A 
ATOM     23  C   UNL     1      46.716   6.487  13.137  0.00  0.00    +0.000 A 
ATOM     24  S   UNL     1      45.806   7.555  12.167  0.00  0.00    +0.000 S 
ATOM     25  C   UNL     1      44.517   6.449  12.062  0.00  0.00    +0.000 A 
ATOM     26  N   UNL     1      43.384   6.757  11.376  0.00  0.00    +0.000 NA
ATOM     27  C   UNL     1      42.477   5.840  11.408  0.00  0.00    +0.000 A 
ATOM     28  N   UNL     1      42.601   4.638  12.056  0.00  0.00    +0.000 N 
ATOM     29  C   UNL     1      43.738   4.264  12.730  0.00  0.00    +0.000 A 
ATOM     30  O   UNL     1      43.842   3.158  13.243  0.00  0.00    +0.000 OA
ATOM     31  C   UNL     1      44.783   5.274  12.741  0.00  0.00    +0.000 A 
ATOM     32  H   UNL     1      41.856   3.954  12.020  0.00  0.00    +0.000 HD
ENDBRANCH  19  22
ENDBRANCH  17  18
ENDBRANCH   4  17
TORSDOF 6
ENDMDL
MODEL 9
REMARK VINA RESULT:    -6.755      3.349      9.665
REMARK INTER + INTRA:          -9.757
REMARK INTER:                  -8.855
REMARK INTRA:                  -0.902
REMARK UNBOUND:                -0.632
REMARK  Name = 
REMARK  8 active torsions:
REMARK  status: ('A' for Active; 'I' for Inactive)
REMARK    1  A    between atoms: C_1  and  C_2
REMARK    2  A    between atoms: C_6  and  O_7
REMARK    3  A    between atoms: O_7  and  C_8
REMARK    4  A    between atoms: C_8  and  C_9
REMARK    5  A    between atoms: C_8  and  C_10
REMARK    6  A    between atoms: C_13  and  C_14
REMARK    7  A    between atoms: C_14  and  N_15
REMARK    8  A    between atoms: C_16  and  C_18
REMARK                            x       y       z     vdW  Elec       q    Type
REMARK                         _______ _______ _______ _____ _____    ______ ____
ROOT
ATOM      1  C   UNL     1      49.514   5.697  18.715  0.00  0.00    +0.000 A 
ATOM      2  C   UNL     1      49.889   5.174  17.486  0.00  0.00    +0.000 A 
ATOM      3  N   UNL     1      49.737   5.844  16.311  0.00  0.00    +0.000 NA
ATOM      4  C   UNL     1      49.180   7.081  16.400  0.00  0.00    +0.000 A 
ATOM      5  C   UNL     1      48.792   7.604  17.626  0.00  0.00    +0.000 A 
ATOM      6  N   UNL     1      48.932   6.927  18.791  0.00  0.00    +0.000 NA
ENDROOT
BRANCH   1   7
ATOM      7  C   UNL     1      49.747   4.952  20.026  0.00  0.00    +0.000 C 
ATOM      8  C   UNL     1      48.449   5.012  20.840  0.00  0.00    +0.000 C 
BRANCH   7   9
ATOM      9  O   UNL     1      50.819   5.550  20.795  0.00  0.00    +0.000 OA
BRANCH   9  15
ATOM     10  C   UNL     1      54.072   2.809  18.675  0.00  0.00    +0.000 C 
ATOM     11  C   UNL     1      53.582   3.451  19.931  0.00  0.00    +0.000 A 
ATOM     12  C   UNL     1      54.239   3.284  21.143  0.00  0.00    +0.000 A 
ATOM     13  C   UNL     1      53.690   3.866  22.282  0.00  0.00    +0.000 A 
ATOM     14  C   UNL     1      52.517   4.607  22.176  0.00  0.00    +0.000 A 
ATOM     15  C   UNL     1      51.949   4.762  20.917  0.00  0.00    +0.000 A 
ATOM     16  N   UNL     1      52.454   4.186  19.813  0.00  0.00    +0.000 NA
ENDBRANCH   9  15
ENDBRANCH   7   9
ENDBRANCH   1   7
BRANCH   4  17
ATOM     17  C   UNL     1      49.002   7.885  15.137  0.00  0.00    +0.000 C 
BRANCH  17  18
ATOM     18  N   UNL     1      47.814   7.521  14.400  0.00  0.00    +0.000 N 
ATOM     19  C   UNL     1      47.854   6.690  13.313  0.00  0.00    +0.000 C 
ATOM     20  O   UNL     1      48.906   6.201  12.907  0.00  0.00    +0.000 OA
ATOM     21  H   UNL     1      46.959   8.017  14.634  0.00  0.00    +0.000 HD
BRANCH  19  22
ATOM     22  C   UNL     1      46.568   6.368  12.691  0.00  0.00    +0.000 A 
ATOM     23  C   UNL     1      45.805   7.371  12.112  0.00  0.00    +0.000 A 
ATOM     24  S   UNL     1      44.355   6.804  11.415  0.00  0.00    +0.000 S 
ATOM     25  C   UNL     1      44.679   5.207  11.905  0.00  0.00    +0.000 A 
ATOM     26  N   UNL     1      43.804   4.201  11.640  0.00  0.00    +0.000 NA
ATOM     27  C   UNL     1      44.162   3.050  12.098  0.00  0.00    +0.000 A 
ATOM     28  N   UNL     1      45.319   2.808  12.791  0.00  0.00    +0.000 N 
ATOM     29  C   UNL     1      46.253   3.781  13.053  0.00  0.00    +0.000 A 
ATOM     30  O   UNL     1      47.307   3.521  13.617  0.00  0.00    +0.000 OA
ATOM     31  C   UNL     1      45.886   5.103  12.574  0.00  0.00    +0.000 A 
ATOM     32  H   UNL     1      45.548   1.873  13.103  0.00  0.00    +0.000 HD
ENDBRANCH  19  22
ENDBRANCH  17  18
ENDBRANCH   4  17
TORSDOF 6
ENDMDL
