MODEL 1
REMARK VINA RESULT:    -9.066      0.000      0.000
REMARK INTER + INTRA:         -13.335
REMARK INTER:                 -12.246
REMARK INTRA:                  -1.089
REMARK UNBOUND:                -1.089
REMARK  Name = 
REMARK  7 active torsions:
REMARK  status: ('A' for Active; 'I' for Inactive)
REMARK    1  A    between atoms: C_1  and  C_2
REMARK    2  A    between atoms: C_4  and  C_5
REMARK    3  A    between atoms: C_5  and  N_6
REMARK    4  A    between atoms: C_7  and  C_9
REMARK    5  A    between atoms: C_21  and  C_22
REMARK    6  A    between atoms: C_22  and  N_23
REMARK    7  A    between atoms: N_23  and  C_24
REMARK                            x       y       z     vdW  Elec       q    Type
REMARK                         _______ _______ _______ _____ _____    ______ ____
ROOT
ATOM      1  C   UNL     1      43.134   4.780  12.743  0.00  0.00    +0.000 C 
ATOM      2  C   UNL     1      44.329   5.404  12.083  0.00  0.00    +0.000 A 
ATOM      3  N   UNL     1      45.026   6.264  12.869  0.00  0.00    +0.000 NA
ATOM      4  C   UNL     1      46.126   6.870  12.357  0.00  0.00    +0.000 A 
ATOM      5  C   UNL     1      46.569   6.630  11.064  0.00  0.00    +0.000 A 
ATOM      6  C   UNL     1      45.836   5.759  10.260  0.00  0.00    +0.000 A 
ATOM      7  C   UNL     1      44.695   5.115  10.763  0.00  0.00    +0.000 A 
ENDROOT
BRANCH   4   8
ATOM      8  C   UNL     1      46.873   7.817  13.264  0.00  0.00    +0.000 C 
BRANCH   8   9
ATOM      9  N   UNL     1      47.357   7.166  14.458  0.00  0.00    +0.000 N 
ATOM     10  C   UNL     1      48.648   6.727  14.587  0.00  0.00    +0.000 C 
ATOM     11  O   UNL     1      49.471   6.857  13.686  0.00  0.00    +0.000 OA
ATOM     12  H   UNL     1      46.645   6.857  15.115  0.00  0.00    +0.000 HD
BRANCH  10  13
ATOM     13  C   UNL     1      49.025   6.157  15.889  0.00  0.00    +0.000 A 
ATOM     14  C   UNL     1      50.066   6.732  16.608  0.00  0.00    +0.000 A 
ATOM     15  S   UNL     1      50.352   5.986  18.114  0.00  0.00    +0.000 S 
ATOM     16  C   UNL     1      49.123   4.842  17.843  0.00  0.00    +0.000 A 
ATOM     17  N   UNL     1      48.855   3.874  18.761  0.00  0.00    +0.000 NA
ATOM     18  C   UNL     1      47.919   3.056  18.416  0.00  0.00    +0.000 A 
ATOM     19  N   UNL     1      47.219   3.123  17.238  0.00  0.00    +0.000 N 
ATOM     20  C   UNL     1      47.423   4.113  16.302  0.00  0.00    +0.000 A 
ATOM     21  O   UNL     1      46.721   4.189  15.302  0.00  0.00    +0.000 OA
ATOM     22  C   UNL     1      48.486   5.042  16.629  0.00  0.00    +0.000 A 
ATOM     23  H   UNL     1      46.483   2.462  17.034  0.00  0.00    +0.000 HD
ENDBRANCH  10  13
ENDBRANCH   8   9
ENDBRANCH   4   8
BRANCH   7  24
ATOM     24  C   UNL     1      43.924   4.165   9.877  0.00  0.00    +0.000 C 
BRANCH  24  25
ATOM     25  N   UNL     1      44.662   2.917   9.716  0.00  0.00    +0.000 N 
ATOM     26  H   UNL     1      45.199   2.686  10.551  0.00  0.00    +0.000 HD
BRANCH  25  27
ATOM     27  C   UNL     1      45.453   2.711   8.579  0.00  0.00    +0.000 A 
ATOM     28  C   UNL     1      45.730   3.692   7.618  0.00  0.00    +0.000 A 
ATOM     29  C   UNL     1      46.591   3.424   6.546  0.00  0.00    +0.000 A 
ATOM     30  C   UNL     1      47.179   2.173   6.428  0.00  0.00    +0.000 A 
ATOM     31  F   UNL     1      48.004   1.922   5.404  0.00  0.00    +0.000 F 
ATOM     32  C   UNL     1      46.926   1.183   7.365  0.00  0.00    +0.000 A 
ATOM     33  C   UNL     1      46.076   1.458   8.440  0.00  0.00    +0.000 A 
ENDBRANCH  25  27
ENDBRANCH  24  25
ENDBRANCH   7  24
TORSDOF 6
ENDMDL
MODEL 2
REMARK VINA RESULT:    -8.317      1.986      2.558
REMARK INTER + INTRA:         -12.323
REMARK INTER:                 -11.367
REMARK INTRA:                  -0.956
REMARK UNBOUND:                -1.089
REMARK  Name = 
REMARK  7 active torsions:
REMARK  status: ('A' for Active; 'I' for Inactive)
REMARK    1  A    between atoms: C_1  and  C_2
REMARK    2  A    between atoms: C_4  and  C_5
REMARK    3  A    between atoms: C_5  and  N_6
REMARK    4  A    between atoms: C_7  and  C_9
REMARK    5  A    between atoms: C_21  and  C_22
REMARK    6  A    between atoms: C_22  and  N_23
REMARK    7  A    between atoms: N_23  and  C_24
REMARK                            x       y       z     vdW  Elec       q    Type
REMARK                         _______ _______ _______ _____ _____    ______ ____
ROOT
ATOM      1  C   UNL     1      44.416   7.696  11.361  0.00  0.00    +0.000 C 
ATOM      2  C   UNL     1      45.147   6.566  12.025  0.00  0.00    +0.000 A 
ATOM      3  N   UNL     1      46.281   6.930  12.677  0.00  0.00    +0.000 NA
ATOM      4  C   UNL     1      47.004   5.975  13.313  0.00  0.00    +0.000 A 
ATOM      5  C   UNL     1      46.615   4.643  13.331  0.00  0.00    +0.000 A 
ATOM      6  C   UNL     1      45.459   4.277  12.645  0.00  0.00    +0.000 A 
ATOM      7  C   UNL     1      44.689   5.244  11.980  0.00  0.00    +0.000 A 
ENDROOT
BRANCH   4   8
ATOM      8  C   UNL     1      48.257   6.422  14.025  0.00  0.00    +0.000 C 
BRANCH   8   9
ATOM      9  N   UNL     1      48.056   6.573  15.446  0.00  0.00    +0.000 N 
ATOM     10  C   UNL     1      49.084   6.498  16.349  0.00  0.00    +0.000 C 
ATOM     11  O   UNL     1      50.241   6.290  15.998  0.00  0.00    +0.000 OA
ATOM     12  H   UNL     1      47.092   6.525  15.766  0.00  0.00    +0.000 HD
BRANCH  10  13
ATOM     13  C   UNL     1      48.747   6.754  17.756  0.00  0.00    +0.000 A 
ATOM     14  C   UNL     1      48.465   8.052  18.165  0.00  0.00    +0.000 A 
ATOM     15  S   UNL     1      48.051   8.178  19.814  0.00  0.00    +0.000 S 
ATOM     16  C   UNL     1      48.272   6.507  20.053  0.00  0.00    +0.000 A 
ATOM     17  N   UNL     1      48.093   5.949  21.280  0.00  0.00    +0.000 NA
ATOM     18  C   UNL     1      48.321   4.680  21.327  0.00  0.00    +0.000 A 
ATOM     19  N   UNL     1      48.704   3.916  20.254  0.00  0.00    +0.000 N 
ATOM     20  C   UNL     1      48.851   4.430  18.983  0.00  0.00    +0.000 A 
ATOM     21  O   UNL     1      49.111   3.701  18.035  0.00  0.00    +0.000 OA
ATOM     22  C   UNL     1      48.633   5.859  18.883  0.00  0.00    +0.000 A 
ATOM     23  H   UNL     1      48.849   2.921  20.351  0.00  0.00    +0.000 HD
ENDBRANCH  10  13
ENDBRANCH   8   9
ENDBRANCH   4   8
BRANCH   7  24
ATOM     24  C   UNL     1      43.432   4.825  11.254  0.00  0.00    +0.000 C 
BRANCH  24  25
ATOM     25  N   UNL     1      43.660   4.825   9.813  0.00  0.00    +0.000 N 
ATOM     26  H   UNL     1      42.784   4.818   9.293  0.00  0.00    +0.000 HD
BRANCH  25  27
ATOM     27  C   UNL     1      44.551   3.906   9.245  0.00  0.00    +0.000 A 
ATOM     28  C   UNL     1      44.511   2.523   9.465  0.00  0.00    +0.000 A 
ATOM     29  C   UNL     1      45.395   1.664   8.800  0.00  0.00    +0.000 A 
ATOM     30  C   UNL     1      46.326   2.184   7.912  0.00  0.00    +0.000 A 
ATOM     31  F   UNL     1      47.167   1.360   7.276  0.00  0.00    +0.000 F 
ATOM     32  C   UNL     1      46.388   3.548   7.672  0.00  0.00    +0.000 A 
ATOM     33  C   UNL     1      45.496   4.400   8.329  0.00  0.00    +0.000 A 
ENDBRANCH  25  27
ENDBRANCH  24  25
ENDBRANCH   7  24
TORSDOF 6
ENDMDL
MODEL 3
REMARK VINA RESULT:    -8.123      2.017      3.689
REMARK INTER + INTRA:         -12.062
REMARK INTER:                 -10.950
REMARK INTRA:                  -1.112
REMARK UNBOUND:                -1.089
REMARK  Name = 
REMARK  7 active torsions:
REMARK  status: ('A' for Active; 'I' for Inactive)
REMARK    1  A    between atoms: C_1  and  C_2
REMARK    2  A    between atoms: C_4  and  C_5
REMARK    3  A    between atoms: C_5  and  N_6
REMARK    4  A    between atoms: C_7  and  C_9
REMARK    5  A    between atoms: C_21  and  C_22
REMARK    6  A    between atoms: C_22  and  N_23
REMARK    7  A    between atoms: N_23  and  C_24
REMARK                            x       y       z     vdW  Elec       q    Type
REMARK                         _______ _______ _______ _____ _____    ______ ____
ROOT
ATOM      1  C   UNL     1      44.840   6.951  11.193  0.00  0.00    +0.000 C 
ATOM      2  C   UNL     1      45.154   5.596  11.756  0.00  0.00    +0.000 A 
ATOM      3  N   UNL     1      45.812   5.615  12.944  0.00  0.00    +0.000 NA
ATOM      4  C   UNL     1      46.133   4.436  13.532  0.00  0.00    +0.000 A 
ATOM      5  C   UNL     1      45.798   3.213  12.967  0.00  0.00    +0.000 A 
ATOM      6  C   UNL     1      45.138   3.205  11.740  0.00  0.00    +0.000 A 
ATOM      7  C   UNL     1      44.791   4.409  11.109  0.00  0.00    +0.000 A 
ENDROOT
BRANCH   4   8
ATOM      8  C   UNL     1      46.862   4.502  14.851  0.00  0.00    +0.000 C 
BRANCH   8   9
ATOM      9  N   UNL     1      47.634   5.714  14.991  0.00  0.00    +0.000 N 
ATOM     10  C   UNL     1      48.672   5.829  15.877  0.00  0.00    +0.000 C 
ATOM     11  O   UNL     1      49.004   4.903  16.611  0.00  0.00    +0.000 OA
ATOM     12  H   UNL     1      47.238   6.545  14.559  0.00  0.00    +0.000 HD
BRANCH  10  13
ATOM     13  C   UNL     1      49.423   7.092  15.854  0.00  0.00    +0.000 A 
ATOM     14  C   UNL     1      49.749   7.713  17.054  0.00  0.00    +0.000 A 
ATOM     15  S   UNL     1      50.656   9.144  16.861  0.00  0.00    +0.000 S 
ATOM     16  C   UNL     1      50.613   9.008  15.166  0.00  0.00    +0.000 A 
ATOM     17  N   UNL     1      51.201   9.946  14.375  0.00  0.00    +0.000 NA
ATOM     18  C   UNL     1      51.069   9.736  13.109  0.00  0.00    +0.000 A 
ATOM     19  N   UNL     1      50.407   8.666  12.561  0.00  0.00    +0.000 N 
ATOM     20  C   UNL     1      49.839   7.668  13.322  0.00  0.00    +0.000 A 
ATOM     21  O   UNL     1      49.331   6.686  12.795  0.00  0.00    +0.000 OA
ATOM     22  C   UNL     1      49.936   7.872  14.753  0.00  0.00    +0.000 A 
ATOM     23  H   UNL     1      50.355   8.547  11.559  0.00  0.00    +0.000 HD
ENDBRANCH  10  13
ENDBRANCH   8   9
ENDBRANCH   4   8
BRANCH   7  24
ATOM     24  C   UNL     1      44.064   4.374   9.785  0.00  0.00    +0.000 C 
BRANCH  24  25
ATOM     25  N   UNL     1      44.160   3.044   9.194  0.00  0.00    +0.000 N 
ATOM     26  H   UNL     1      44.029   2.312   9.890  0.00  0.00    +0.000 HD
BRANCH  25  27
ATOM     27  C   UNL     1      45.246   2.720   8.371  0.00  0.00    +0.000 A 
ATOM     28  C   UNL     1      45.924   1.494   8.398  0.00  0.00    +0.000 A 
ATOM     29  C   UNL     1      46.955   1.224   7.489  0.00  0.00    +0.000 A 
ATOM     30  C   UNL     1      47.316   2.179   6.549  0.00  0.00    +0.000 A 
ATOM     31  F   UNL     1      48.299   1.915   5.681  0.00  0.00    +0.000 F 
ATOM     32  C   UNL     1      46.661   3.400   6.496  0.00  0.00    +0.000 A 
ATOM     33  C   UNL     1      45.625   3.661   7.397  0.00  0.00    +0.000 A 
ENDBRANCH  25  27
ENDBRANCH  24  25
ENDBRANCH   7  24
TORSDOF 6
ENDMDL
MODEL 4
REMARK VINA RESULT:    -8.085      2.586      3.296
REMARK INTER + INTRA:         -12.011
REMARK INTER:                 -10.915
REMARK INTRA:                  -1.096
REMARK UNBOUND:                -1.089
REMARK  Name = 
REMARK  7 active torsions:
REMARK  status: ('A' for Active; 'I' for Inactive)
REMARK    1  A    between atoms: C_1  and  C_2
REMARK    2  A    between atoms: C_4  and  C_5
REMARK    3  A    between atoms: C_5  and  N_6
REMARK    4  A    between atoms: C_7  and  C_9
REMARK    5  A    between atoms: C_21  and  C_22
REMARK    6  A    between atoms: C_22  and  N_23
REMARK    7  A    between atoms: N_23  and  C_24
REMARK                            x       y       z     vdW  Elec       q    Type
REMARK                         _______ _______ _______ _____ _____    ______ ____
ROOT
ATOM      1  C   UNL     1      44.600   7.757  11.433  0.00  0.00    +0.000 C 
ATOM      2  C   UNL     1      45.302   6.616  12.108  0.00  0.00    +0.000 A 
ATOM      3  N   UNL     1      46.387   6.972  12.843  0.00  0.00    +0.000 NA
ATOM      4  C   UNL     1      47.081   6.006  13.495  0.00  0.00    +0.000 A 
ATOM      5  C   UNL     1      46.710   4.670  13.446  0.00  0.00    +0.000 A 
ATOM      6  C   UNL     1      45.606   4.312  12.675  0.00  0.00    +0.000 A 
ATOM      7  C   UNL     1      44.867   5.290  11.992  0.00  0.00    +0.000 A 
ENDROOT
BRANCH   4   8
ATOM      8  C   UNL     1      48.278   6.446  14.300  0.00  0.00    +0.000 C 
BRANCH   8   9
ATOM      9  N   UNL     1      47.999   6.496  15.716  0.00  0.00    +0.000 N 
ATOM     10  C   UNL     1      48.886   6.050  16.659  0.00  0.00    +0.000 C 
ATOM     11  O   UNL     1      49.975   5.573  16.352  0.00  0.00    +0.000 OA
ATOM     12  H   UNL     1      47.032   6.678  15.971  0.00  0.00    +0.000 HD
BRANCH  10  13
ATOM     13  C   UNL     1      48.506   6.239  18.066  0.00  0.00    +0.000 A 
ATOM     14  C   UNL     1      48.546   5.155  18.935  0.00  0.00    +0.000 A 
ATOM     15  S   UNL     1      48.118   5.545  20.538  0.00  0.00    +0.000 S 
ATOM     16  C   UNL     1      47.825   7.169  20.123  0.00  0.00    +0.000 A 
ATOM     17  N   UNL     1      47.398   8.062  21.056  0.00  0.00    +0.000 NA
ATOM     18  C   UNL     1      47.187   9.250  20.601  0.00  0.00    +0.000 A 
ATOM     19  N   UNL     1      47.371   9.630  19.295  0.00  0.00    +0.000 N 
ATOM     20  C   UNL     1      47.847   8.772  18.327  0.00  0.00    +0.000 A 
ATOM     21  O   UNL     1      48.079   9.169  17.192  0.00  0.00    +0.000 OA
ATOM     22  C   UNL     1      48.073   7.415  18.782  0.00  0.00    +0.000 A 
ATOM     23  H   UNL     1      47.207  10.582  19.004  0.00  0.00    +0.000 HD
ENDBRANCH  10  13
ENDBRANCH   8   9
ENDBRANCH   4   8
BRANCH   7  24
ATOM     24  C   UNL     1      43.666   4.879  11.173  0.00  0.00    +0.000 C 
BRANCH  24  25
ATOM     25  N   UNL     1      43.980   4.949   9.750  0.00  0.00    +0.000 N 
ATOM     26  H   UNL     1      43.144   5.099   9.187  0.00  0.00    +0.000 HD
BRANCH  25  27
ATOM     27  C   UNL     1      44.773   3.959   9.158  0.00  0.00    +0.000 A 
ATOM     28  C   UNL     1      44.631   2.585   9.392  0.00  0.00    +0.000 A 
ATOM     29  C   UNL     1      45.420   1.654   8.702  0.00  0.00    +0.000 A 
ATOM     30  C   UNL     1      46.356   2.093   7.777  0.00  0.00    +0.000 A 
ATOM     31  F   UNL     1      47.104   1.201   7.118  0.00  0.00    +0.000 F 
ATOM     32  C   UNL     1      46.516   3.447   7.522  0.00  0.00    +0.000 A 
ATOM     33  C   UNL     1      45.719   4.371   8.204  0.00  0.00    +0.000 A 
ENDBRANCH  25  27
ENDBRANCH  24  25
ENDBRANCH   7  24
TORSDOF 6
ENDMDL
MODEL 5
REMARK VINA RESULT:    -7.981      1.835      2.297
REMARK INTER + INTRA:         -11.869
REMARK INTER:                 -10.731
REMARK INTRA:                  -1.138
REMARK UNBOUND:                -1.089
REMARK  Name = 
REMARK  7 active torsions:
REMARK  status: ('A' for Active; 'I' for Inactive)
REMARK    1  A    between atoms: C_1  and  C_2
REMARK    2  A    between atoms: C_4  and  C_5
REMARK    3  A    between atoms: C_5  and  N_6
REMARK    4  A    between atoms: C_7  and  C_9
REMARK    5  A    between atoms: C_21  and  C_22
REMARK    6  A    between atoms: C_22  and  N_23
REMARK    7  A    between atoms: N_23  and  C_24
REMARK                            x       y       z     vdW  Elec       q    Type
REMARK                         _______ _______ _______ _____ _____    ______ ____
ROOT
ATOM      1  C   UNL     1      42.945   4.805  13.097  0.00  0.00    +0.000 C 
ATOM      2  C   UNL     1      44.158   5.423  12.467  0.00  0.00    +0.000 A 
ATOM      3  N   UNL     1      44.452   6.673  12.909  0.00  0.00    +0.000 NA
ATOM      4  C   UNL     1      45.537   7.308  12.400  0.00  0.00    +0.000 A 
ATOM      5  C   UNL     1      46.363   6.717  11.453  0.00  0.00    +0.000 A 
ATOM      6  C   UNL     1      46.043   5.441  10.994  0.00  0.00    +0.000 A 
ATOM      7  C   UNL     1      44.928   4.759  11.505  0.00  0.00    +0.000 A 
ENDROOT
BRANCH   4   8
ATOM      8  C   UNL     1      45.828   8.694  12.919  0.00  0.00    +0.000 C 
BRANCH   8   9
ATOM      9  N   UNL     1      46.712   8.678  14.060  0.00  0.00    +0.000 N 
ATOM     10  C   UNL     1      48.006   9.123  13.996  0.00  0.00    +0.000 C 
ATOM     11  O   UNL     1      48.493   9.556  12.957  0.00  0.00    +0.000 OA
ATOM     12  H   UNL     1      46.401   8.127  14.856  0.00  0.00    +0.000 HD
BRANCH  10  13
ATOM     13  C   UNL     1      48.766   9.126  15.255  0.00  0.00    +0.000 A 
ATOM     14  C   UNL     1      49.148  10.339  15.817  0.00  0.00    +0.000 A 
ATOM     15  S   UNL     1      49.982  10.176  17.295  0.00  0.00    +0.000 S 
ATOM     16  C   UNL     1      49.899   8.478  17.218  0.00  0.00    +0.000 A 
ATOM     17  N   UNL     1      50.457   7.708  18.191  0.00  0.00    +0.000 NA
ATOM     18  C   UNL     1      50.347   6.438  17.995  0.00  0.00    +0.000 A 
ATOM     19  N   UNL     1      49.722   5.867  16.915  0.00  0.00    +0.000 N 
ATOM     20  C   UNL     1      49.102   6.607  15.931  0.00  0.00    +0.000 A 
ATOM     21  O   UNL     1      48.482   6.061  15.028  0.00  0.00    +0.000 OA
ATOM     22  C   UNL     1      49.222   8.042  16.091  0.00  0.00    +0.000 A 
ATOM     23  H   UNL     1      49.651   4.863  16.827  0.00  0.00    +0.000 HD
ENDBRANCH  10  13
ENDBRANCH   8   9
ENDBRANCH   4   8
BRANCH   7  24
ATOM     24  C   UNL     1      44.609   3.371  11.000  0.00  0.00    +0.000 C 
BRANCH  24  25
ATOM     25  N   UNL     1      44.261   3.418   9.584  0.00  0.00    +0.000 N 
ATOM     26  H   UNL     1      43.378   2.946   9.397  0.00  0.00    +0.000 HD
BRANCH  25  27
ATOM     27  C   UNL     1      45.204   3.049   8.618  0.00  0.00    +0.000 A 
ATOM     28  C   UNL     1      45.781   3.930   7.694  0.00  0.00    +0.000 A 
ATOM     29  C   UNL     1      46.773   3.493   6.807  0.00  0.00    +0.000 A 
ATOM     30  C   UNL     1      47.192   2.170   6.837  0.00  0.00    +0.000 A 
ATOM     31  F   UNL     1      48.143   1.757   5.990  0.00  0.00    +0.000 F 
ATOM     32  C   UNL     1      46.642   1.275   7.742  0.00  0.00    +0.000 A 
ATOM     33  C   UNL     1      45.661   1.719   8.633  0.00  0.00    +0.000 A 
ENDBRANCH  25  27
ENDBRANCH  24  25
ENDBRANCH   7  24
TORSDOF 6
ENDMDL
MODEL 6
REMARK VINA RESULT:    -7.759      2.531      3.297
REMARK INTER + INTRA:         -11.570
REMARK INTER:                 -10.422
REMARK INTRA:                  -1.148
REMARK UNBOUND:                -1.089
REMARK  Name = 
REMARK  7 active torsions:
REMARK  status: ('A' for Active; 'I' for Inactive)
REMARK    1  A    between atoms: C_1  and  C_2
REMARK    2  A    between atoms: C_4  and  C_5
REMARK    3  A    between atoms: C_5  and  N_6
REMARK    4  A    between atoms: C_7  and  C_9
REMARK    5  A    between atoms: C_21  and  C_22
REMARK    6  A    between atoms: C_22  and  N_23
REMARK    7  A    between atoms: N_23  and  C_24
REMARK                            x       y       z     vdW  Elec       q    Type
REMARK                         _______ _______ _______ _____ _____    ______ ____
ROOT
ATOM      1  C   UNL     1      47.664   7.291  11.779  0.00  0.00    +0.000 C 
ATOM      2  C   UNL     1      46.919   6.135  12.379  0.00  0.00    +0.000 A 
ATOM      3  N   UNL     1      47.369   5.741  13.599  0.00  0.00    +0.000 NA
ATOM      4  C   UNL     1      46.751   4.706  14.220  0.00  0.00    +0.000 A 
ATOM      5  C   UNL     1      45.666   4.048  13.658  0.00  0.00    +0.000 A 
ATOM      6  C   UNL     1      45.222   4.449  12.400  0.00  0.00    +0.000 A 
ATOM      7  C   UNL     1      45.841   5.517  11.734  0.00  0.00    +0.000 A 
ENDROOT
BRANCH   4   8
ATOM      8  C   UNL     1      47.282   4.301  15.573  0.00  0.00    +0.000 C 
BRANCH   8   9
ATOM      9  N   UNL     1      47.703   5.436  16.359  0.00  0.00    +0.000 N 
ATOM     10  C   UNL     1      48.969   5.551  16.870  0.00  0.00    +0.000 C 
ATOM     11  O   UNL     1      49.821   4.686  16.692  0.00  0.00    +0.000 OA
ATOM     12  H   UNL     1      46.960   6.043  16.696  0.00  0.00    +0.000 HD
BRANCH  10  13
ATOM     13  C   UNL     1      49.284   6.799  17.580  0.00  0.00    +0.000 A 
ATOM     14  C   UNL     1      50.312   7.609  17.112  0.00  0.00    +0.000 A 
ATOM     15  S   UNL     1      50.524   9.038  18.017  0.00  0.00    +0.000 S 
ATOM     16  C   UNL     1      49.278   8.608  19.092  0.00  0.00    +0.000 A 
ATOM     17  N   UNL     1      48.953   9.411  20.141  0.00  0.00    +0.000 NA
ATOM     18  C   UNL     1      48.011   8.952  20.893  0.00  0.00    +0.000 A 
ATOM     19  N   UNL     1      47.356   7.764  20.686  0.00  0.00    +0.000 N 
ATOM     20  C   UNL     1      47.619   6.943  19.611  0.00  0.00    +0.000 A 
ATOM     21  O   UNL     1      46.956   5.933  19.413  0.00  0.00    +0.000 OA
ATOM     22  C   UNL     1      48.691   7.401  18.750  0.00  0.00    +0.000 A 
ATOM     23  H   UNL     1      46.612   7.468  21.300  0.00  0.00    +0.000 HD
ENDBRANCH  10  13
ENDBRANCH   8   9
ENDBRANCH   4   8
BRANCH   7  24
ATOM     24  C   UNL     1      45.333   5.942  10.375  0.00  0.00    +0.000 C 
BRANCH  24  25
ATOM     25  N   UNL     1      44.592   4.851   9.752  0.00  0.00    +0.000 N 
ATOM     26  H   UNL     1      44.018   4.351  10.429  0.00  0.00    +0.000 HD
BRANCH  25  27
ATOM     27  C   UNL     1      45.257   3.933   8.931  0.00  0.00    +0.000 A 
ATOM     28  C   UNL     1      46.142   4.282   7.903  0.00  0.00    +0.000 A 
ATOM     29  C   UNL     1      46.822   3.298   7.174  0.00  0.00    +0.000 A 
ATOM     30  C   UNL     1      46.618   1.957   7.468  0.00  0.00    +0.000 A 
ATOM     31  F   UNL     1      47.272   1.020   6.772  0.00  0.00    +0.000 F 
ATOM     32  C   UNL     1      45.750   1.580   8.481  0.00  0.00    +0.000 A 
ATOM     33  C   UNL     1      45.084   2.566   9.213  0.00  0.00    +0.000 A 
ENDBRANCH  25  27
ENDBRANCH  24  25
ENDBRANCH   7  24
TORSDOF 6
ENDMDL
MODEL 7
REMARK VINA RESULT:    -7.498      2.587      3.502
REMARK INTER + INTRA:         -11.217
REMARK INTER:                 -10.356
REMARK INTRA:                  -0.862
REMARK UNBOUND:                -1.089
REMARK  Name = 
REMARK  7 active torsions:
REMARK  status: ('A' for Active; 'I' for Inactive)
REMARK    1  A    between atoms: C_1  and  C_2
REMARK    2  A    between atoms: C_4  and  C_5
REMARK    3  A    between atoms: C_5  and  N_6
REMARK    4  A    between atoms: C_7  and  C_9
REMARK    5  A    between atoms: C_21  and  C_22
REMARK    6  A    between atoms: C_22  and  N_23
REMARK    7  A    between atoms: N_23  and  C_24
REMARK                            x       y       z     vdW  Elec       q    Type
REMARK                         _______ _______ _______ _____ _____    ______ ____
ROOT
ATOM      1  C   UNL     1      48.199   7.141  12.112  0.00  0.00    +0.000 C 
ATOM      2  C   UNL     1      47.241   6.098  12.610  0.00  0.00    +0.000 A 
ATOM      3  N   UNL     1      47.498   5.646  13.865  0.00  0.00    +0.000 NA
ATOM      4  C   UNL     1      46.680   4.706  14.401  0.00  0.00    +0.000 A 
ATOM      5  C   UNL     1      45.584   4.202  13.714  0.00  0.00    +0.000 A 
ATOM      6  C   UNL     1      45.340   4.660  12.421  0.00  0.00    +0.000 A 
ATOM      7  C   UNL     1      46.167   5.634  11.842  0.00  0.00    +0.000 A 
ENDROOT
BRANCH   4   8
ATOM      8  C   UNL     1      47.001   4.233  15.797  0.00  0.00    +0.000 C 
BRANCH   8   9
ATOM      9  N   UNL     1      48.402   4.370  16.115  0.00  0.00    +0.000 N 
ATOM     10  C   UNL     1      48.882   4.261  17.393  0.00  0.00    +0.000 C 
ATOM     11  O   UNL     1      48.142   4.047  18.348  0.00  0.00    +0.000 OA
ATOM     12  H   UNL     1      48.988   4.761  15.381  0.00  0.00    +0.000 HD
BRANCH  10  13
ATOM     13  C   UNL     1      50.340   4.340  17.560  0.00  0.00    +0.000 A 
ATOM     14  C   UNL     1      50.938   5.578  17.760  0.00  0.00    +0.000 A 
ATOM     15  S   UNL     1      52.627   5.497  17.979  0.00  0.00    +0.000 S 
ATOM     16  C   UNL     1      52.627   3.807  17.774  0.00  0.00    +0.000 A 
ATOM     17  N   UNL     1      53.788   3.099  17.824  0.00  0.00    +0.000 NA
ATOM     18  C   UNL     1      53.648   1.832  17.624  0.00  0.00    +0.000 A 
ATOM     19  N   UNL     1      52.450   1.207  17.386  0.00  0.00    +0.000 N 
ATOM     20  C   UNL     1      51.246   1.878  17.373  0.00  0.00    +0.000 A 
ATOM     21  O   UNL     1      50.190   1.273  17.242  0.00  0.00    +0.000 OA
ATOM     22  C   UNL     1      51.352   3.309  17.565  0.00  0.00    +0.000 A 
ATOM     23  H   UNL     1      52.404   0.207  17.256  0.00  0.00    +0.000 HD
ENDBRANCH  10  13
ENDBRANCH   8   9
ENDBRANCH   4   8
BRANCH   7  24
ATOM     24  C   UNL     1      45.874   6.124  10.443  0.00  0.00    +0.000 C 
BRANCH  24  25
ATOM     25  N   UNL     1      44.942   5.219   9.778  0.00  0.00    +0.000 N 
ATOM     26  H   UNL     1      44.234   4.869  10.422  0.00  0.00    +0.000 HD
BRANCH  25  27
ATOM     27  C   UNL     1      45.428   4.165   8.996  0.00  0.00    +0.000 A 
ATOM     28  C   UNL     1      46.286   4.320   7.899  0.00  0.00    +0.000 A 
ATOM     29  C   UNL     1      46.783   3.205   7.212  0.00  0.00    +0.000 A 
ATOM     30  C   UNL     1      46.424   1.927   7.618  0.00  0.00    +0.000 A 
ATOM     31  F   UNL     1      46.905   0.865   6.962  0.00  0.00    +0.000 F 
ATOM     32  C   UNL     1      45.579   1.742   8.702  0.00  0.00    +0.000 A 
ATOM     33  C   UNL     1      45.095   2.857   9.391  0.00  0.00    +0.000 A 
ENDBRANCH  25  27
ENDBRANCH  24  25
ENDBRANCH   7  24
TORSDOF 6
ENDMDL
MODEL 8
REMARK VINA RESULT:    -7.411      3.103      3.652
REMARK INTER + INTRA:         -11.099
REMARK INTER:                 -10.291
REMARK INTRA:                  -0.808
REMARK UNBOUND:                -1.089
REMARK  Name = 
REMARK  7 active torsions:
REMARK  status: ('A' for Active; 'I' for Inactive)
REMARK    1  A    between atoms: C_1  and  C_2
REMARK    2  A    between atoms: C_4  and  C_5
REMARK    3  A    between atoms: C_5  and  N_6
REMARK    4  A    between atoms: C_7  and  C_9
REMARK    5  A    between atoms: C_21  and  C_22
REMARK    6  A    between atoms: C_22  and  N_23
REMARK    7  A    between atoms: N_23  and  C_24
REMARK                            x       y       z     vdW  Elec       q    Type
REMARK                         _______ _______ _______ _____ _____    ______ ____
ROOT
ATOM      1  C   UNL     1      43.552   3.897  13.395  0.00  0.00    +0.000 C 
ATOM      2  C   UNL     1      44.316   4.817  12.489  0.00  0.00    +0.000 A 
ATOM      3  N   UNL     1      44.558   6.049  13.005  0.00  0.00    +0.000 NA
ATOM      4  C   UNL     1      45.248   6.946  12.258  0.00  0.00    +0.000 A 
ATOM      5  C   UNL     1      45.726   6.641  10.991  0.00  0.00    +0.000 A 
ATOM      6  C   UNL     1      45.458   5.379  10.464  0.00  0.00    +0.000 A 
ATOM      7  C   UNL     1      44.748   4.430  11.215  0.00  0.00    +0.000 A 
ENDROOT
BRANCH   4   8
ATOM      8  C   UNL     1      45.496   8.303  12.869  0.00  0.00    +0.000 C 
BRANCH   8   9
ATOM      9  N   UNL     1      46.687   8.328  13.684  0.00  0.00    +0.000 N 
ATOM     10  C   UNL     1      47.741   9.164  13.424  0.00  0.00    +0.000 C 
ATOM     11  O   UNL     1      47.734   9.940  12.473  0.00  0.00    +0.000 OA
ATOM     12  H   UNL     1      46.800   7.551  14.330  0.00  0.00    +0.000 HD
BRANCH  10  13
ATOM     13  C   UNL     1      48.853   9.143  14.384  0.00  0.00    +0.000 A 
ATOM     14  C   UNL     1      48.627   9.534  15.699  0.00  0.00    +0.000 A 
ATOM     15  S   UNL     1      50.003   9.413  16.697  0.00  0.00    +0.000 S 
ATOM     16  C   UNL     1      50.964   8.871  15.401  0.00  0.00    +0.000 A 
ATOM     17  N   UNL     1      52.284   8.597  15.578  0.00  0.00    +0.000 NA
ATOM     18  C   UNL     1      52.900   8.224  14.507  0.00  0.00    +0.000 A 
ATOM     19  N   UNL     1      52.311   8.092  13.275  0.00  0.00    +0.000 N 
ATOM     20  C   UNL     1      50.968   8.312  13.060  0.00  0.00    +0.000 A 
ATOM     21  O   UNL     1      50.463   8.102  11.964  0.00  0.00    +0.000 OA
ATOM     22  C   UNL     1      50.237   8.762  14.227  0.00  0.00    +0.000 A 
ATOM     23  H   UNL     1      52.844   7.776  12.477  0.00  0.00    +0.000 HD
ENDBRANCH  10  13
ENDBRANCH   8   9
ENDBRANCH   4   8
BRANCH   7  24
ATOM     24  C   UNL     1      44.480   3.064  10.627  0.00  0.00    +0.000 C 
BRANCH  24  25
ATOM     25  N   UNL     1      44.320   3.162   9.180  0.00  0.00    +0.000 N 
ATOM     26  H   UNL     1      43.447   2.738   8.868  0.00  0.00    +0.000 HD
BRANCH  25  27
ATOM     27  C   UNL     1      45.361   2.770   8.331  0.00  0.00    +0.000 A 
ATOM     28  C   UNL     1      45.997   1.522   8.380  0.00  0.00    +0.000 A 
ATOM     29  C   UNL     1      46.984   1.182   7.445  0.00  0.00    +0.000 A 
ATOM     30  C   UNL     1      47.341   2.088   6.457  0.00  0.00    +0.000 A 
ATOM     31  F   UNL     1      48.282   1.758   5.564  0.00  0.00    +0.000 F 
ATOM     32  C   UNL     1      46.727   3.330   6.382  0.00  0.00    +0.000 A 
ATOM     33  C   UNL     1      45.736   3.660   7.309  0.00  0.00    +0.000 A 
ENDBRANCH  25  27
ENDBRANCH  24  25
ENDBRANCH   7  24
TORSDOF 6
ENDMDL
MODEL 9
REMARK VINA RESULT:    -7.351      3.851      8.338
REMARK INTER + INTRA:         -11.018
REMARK INTER:                  -9.888
REMARK INTRA:                  -1.131
REMARK UNBOUND:                -1.089
REMARK  Name = 
REMARK  7 active torsions:
REMARK  status: ('A' for Active; 'I' for Inactive)
REMARK    1  A    between atoms: C_1  and  C_2
REMARK    2  A    between atoms: C_4  and  C_5
REMARK    3  A    between atoms: C_5  and  N_6
REMARK    4  A    between atoms: C_7  and  C_9
REMARK    5  A    between atoms: C_21  and  C_22
REMARK    6  A    between atoms: C_22  and  N_23
REMARK    7  A    between atoms: N_23  and  C_24
REMARK                            x       y       z     vdW  Elec       q    Type
REMARK                         _______ _______ _______ _____ _____    ______ ____
ROOT
ATOM      1  C   UNL     1      47.418   4.485  16.633  0.00  0.00    +0.000 C 
ATOM      2  C   UNL     1      48.365   5.526  16.114  0.00  0.00    +0.000 A 
ATOM      3  N   UNL     1      48.131   5.918  14.834  0.00  0.00    +0.000 NA
ATOM      4  C   UNL     1      48.935   6.861  14.283  0.00  0.00    +0.000 A 
ATOM      5  C   UNL     1      49.977   7.448  14.987  0.00  0.00    +0.000 A 
ATOM      6  C   UNL     1      50.220   7.026  16.293  0.00  0.00    +0.000 A 
ATOM      7  C   UNL     1      49.403   6.054  16.891  0.00  0.00    +0.000 A 
ENDROOT
BRANCH   4   8
ATOM      8  C   UNL     1      48.640   7.268  12.861  0.00  0.00    +0.000 C 
BRANCH   8   9
ATOM      9  N   UNL     1      47.784   6.322  12.186  0.00  0.00    +0.000 N 
ATOM     10  C   UNL     1      46.528   6.647  11.746  0.00  0.00    +0.000 C 
ATOM     11  O   UNL     1      46.053   7.767  11.909  0.00  0.00    +0.000 OA
ATOM     12  H   UNL     1      48.069   5.348  12.240  0.00  0.00    +0.000 HD
BRANCH  10  13
ATOM     13  C   UNL     1      45.800   5.610  11.001  0.00  0.00    +0.000 A 
ATOM     14  C   UNL     1      45.848   5.609   9.611  0.00  0.00    +0.000 A 
ATOM     15  S   UNL     1      44.990   4.320   8.898  0.00  0.00    +0.000 S 
ATOM     16  C   UNL     1      44.491   3.738  10.417  0.00  0.00    +0.000 A 
ATOM     17  N   UNL     1      43.692   2.641  10.516  0.00  0.00    +0.000 NA
ATOM     18  C   UNL     1      43.365   2.326  11.723  0.00  0.00    +0.000 A 
ATOM     19  N   UNL     1      43.771   3.006  12.843  0.00  0.00    +0.000 N 
ATOM     20  C   UNL     1      44.617   4.093  12.794  0.00  0.00    +0.000 A 
ATOM     21  O   UNL     1      45.025   4.621  13.820  0.00  0.00    +0.000 OA
ATOM     22  C   UNL     1      44.991   4.504  11.456  0.00  0.00    +0.000 A 
ATOM     23  H   UNL     1      43.496   2.698  13.765  0.00  0.00    +0.000 HD
ENDBRANCH  10  13
ENDBRANCH   8   9
ENDBRANCH   4   8
BRANCH   7  24
ATOM     24  C   UNL     1      49.678   5.623  18.312  0.00  0.00    +0.000 C 
BRANCH  24  25
ATOM     25  N   UNL     1      51.075   5.229  18.457  0.00  0.00    +0.000 N 
ATOM     26  H   UNL     1      51.699   5.871  17.970  0.00  0.00    +0.000 HD
BRANCH  25  27
ATOM     27  C   UNL     1      51.462   3.910  18.197  0.00  0.00    +0.000 A 
ATOM     28  C   UNL     1      50.644   2.947  17.591  0.00  0.00    +0.000 A 
ATOM     29  C   UNL     1      51.134   1.668  17.300  0.00  0.00    +0.000 A 
ATOM     30  C   UNL     1      52.445   1.342  17.615  0.00  0.00    +0.000 A 
ATOM     31  F   UNL     1      52.911   0.120  17.332  0.00  0.00    +0.000 F 
ATOM     32  C   UNL     1      53.280   2.274  18.212  0.00  0.00    +0.000 A 
ATOM     33  C   UNL     1      52.791   3.553  18.490  0.00  0.00    +0.000 A 
ENDBRANCH  25  27
ENDBRANCH  24  25
ENDBRANCH   7  24
TORSDOF 6
ENDMDL
