MODEL 1
REMARK VINA RESULT:    -7.424      0.000      0.000
REMARK INTER + INTRA:         -12.525
REMARK INTER:                 -11.114
REMARK INTRA:                  -1.411
REMARK UNBOUND:                -1.411
REMARK  Name = 
REMARK  10 active torsions:
REMARK  status: ('A' for Active; 'I' for Inactive)
REMARK    1  A    between atoms: C_1  and  O_2
REMARK    2  A    between atoms: O_2  and  C_3
REMARK    3  A    between atoms: C_8  and  C_9
REMARK    4  A    between atoms: C_9  and  O_10
REMARK    5  A    between atoms: O_10  and  C_11
REMARK    6  A    between atoms: C_11  and  C_12
REMARK    7  A    between atoms: C_15  and  C_16
REMARK    8  A    between atoms: C_16  and  N_17
REMARK    9  A    between atoms: C_18  and  C_20
REMARK   10  A    between atoms: C_27  and  O_28
REMARK                            x       y       z     vdW  Elec       q    Type
REMARK                         _______ _______ _______ _____ _____    ______ ____
ROOT
ATOM      1  C   UNL     1      44.693   4.929  11.075  0.00  0.00    +0.000 A 
ATOM      2  C   UNL     1      44.284   5.285  12.368  0.00  0.00    +0.000 A 
ATOM      3  C   UNL     1      44.968   6.272  13.080  0.00  0.00    +0.000 A 
ATOM      4  C   UNL     1      46.069   6.927  12.509  0.00  0.00    +0.000 A 
ATOM      5  C   UNL     1      46.505   6.533  11.237  0.00  0.00    +0.000 A 
ATOM      6  C   UNL     1      45.821   5.548  10.525  0.00  0.00    +0.000 A 
ENDROOT
BRANCH   1   7
ATOM      7  C   UNL     1      43.897   3.933  10.267  0.00  0.00    +0.000 C 
BRANCH   7   8
ATOM      8  O   UNL     1      44.616   2.716  10.072  0.00  0.00    +0.000 OA
BRANCH   8   9
ATOM      9  C   UNL     1      44.427   2.154   8.766  0.00  0.00    +0.000 C 
BRANCH   9  15
ATOM     10  C   UNL     1      46.592   1.324   7.723  0.00  0.00    +0.000 A 
ATOM     11  C   UNL     1      47.761   1.569   6.991  0.00  0.00    +0.000 A 
ATOM     12  C   UNL     1      48.019   2.839   6.466  0.00  0.00    +0.000 A 
ATOM     13  C   UNL     1      47.112   3.870   6.662  0.00  0.00    +0.000 A 
ATOM     14  C   UNL     1      45.944   3.636   7.385  0.00  0.00    +0.000 A 
ATOM     15  C   UNL     1      45.660   2.363   7.913  0.00  0.00    +0.000 A 
BRANCH  10  17
ATOM     16  C   UNL     1      46.612  -1.050   7.504  0.00  0.00    +0.000 C 
ATOM     17  O   UNL     1      46.266   0.104   8.262  0.00  0.00    +0.000 OA
ENDBRANCH  10  17
ENDBRANCH   9  15
ENDBRANCH   8   9
ENDBRANCH   7   8
ENDBRANCH   1   7
BRANCH   4  18
ATOM     18  C   UNL     1      46.808   7.997  13.268  0.00  0.00    +0.000 C 
BRANCH  18  19
ATOM     19  N   UNL     1      47.432   7.436  14.437  0.00  0.00    +0.000 N 
ATOM     20  C   UNL     1      48.704   6.928  14.417  0.00  0.00    +0.000 C 
ATOM     21  O   UNL     1      49.344   6.797  13.379  0.00  0.00    +0.000 OA
ATOM     22  H   UNL     1      47.012   7.675  15.328  0.00  0.00    +0.000 HD
BRANCH  20  23
ATOM     23  C   UNL     1      49.241   6.511  15.717  0.00  0.00    +0.000 A 
ATOM     24  C   UNL     1      50.353   7.150  16.247  0.00  0.00    +0.000 A 
ATOM     25  S   UNL     1      50.845   6.520  17.752  0.00  0.00    +0.000 S 
ATOM     26  C   UNL     1      49.565   5.402  17.759  0.00  0.00    +0.000 A 
ATOM     27  N   UNL     1      49.404   4.561  18.797  0.00  0.00    +0.000 NA
ATOM     28  C   UNL     1      48.348   3.754  18.651  0.00  0.00    +0.000 A 
ATOM     29  N   UNL     1      47.495   3.711  17.620  0.00  0.00    +0.000 NA
ATOM     30  C   UNL     1      47.713   4.568  16.624  0.00  0.00    +0.000 A 
ATOM     31  C   UNL     1      48.771   5.479  16.623  0.00  0.00    +0.000 A 
BRANCH  30  32
ATOM     32  O   UNL     1      46.817   4.457  15.603  0.00  0.00    +0.000 OA
ATOM     33  H   UNL     1      46.110   5.055  15.915  0.00  0.00    +0.000 HD
ENDBRANCH  30  32
ENDBRANCH  20  23
ENDBRANCH  18  19
ENDBRANCH   4  18
TORSDOF 9
ENDMDL
MODEL 2
REMARK VINA RESULT:    -7.033      1.940      3.070
REMARK INTER + INTRA:         -11.939
REMARK INTER:                 -10.421
REMARK INTRA:                  -1.518
REMARK UNBOUND:                -1.411
REMARK  Name = 
REMARK  10 active torsions:
REMARK  status: ('A' for Active; 'I' for Inactive)
REMARK    1  A    between atoms: C_1  and  O_2
REMARK    2  A    between atoms: O_2  and  C_3
REMARK    3  A    between atoms: C_8  and  C_9
REMARK    4  A    between atoms: C_9  and  O_10
REMARK    5  A    between atoms: O_10  and  C_11
REMARK    6  A    between atoms: C_11  and  C_12
REMARK    7  A    between atoms: C_15  and  C_16
REMARK    8  A    between atoms: C_16  and  N_17
REMARK    9  A    between atoms: C_18  and  C_20
REMARK   10  A    between atoms: C_27  and  O_28
REMARK                            x       y       z     vdW  Elec       q    Type
REMARK                         _______ _______ _______ _____ _____    ______ ____
ROOT
ATOM      1  C   UNL     1      46.002   7.566  11.961  0.00  0.00    +0.000 A 
ATOM      2  C   UNL     1      47.109   6.743  11.704  0.00  0.00    +0.000 A 
ATOM      3  C   UNL     1      48.305   6.929  12.398  0.00  0.00    +0.000 A 
ATOM      4  C   UNL     1      48.416   7.936  13.367  0.00  0.00    +0.000 A 
ATOM      5  C   UNL     1      47.326   8.788  13.586  0.00  0.00    +0.000 A 
ATOM      6  C   UNL     1      46.130   8.602  12.893  0.00  0.00    +0.000 A 
ENDROOT
BRANCH   1   7
ATOM      7  C   UNL     1      44.680   7.305  11.284  0.00  0.00    +0.000 C 
BRANCH   7   8
ATOM      8  O   UNL     1      44.267   5.947  11.435  0.00  0.00    +0.000 OA
BRANCH   8   9
ATOM      9  C   UNL     1      43.506   5.463  10.320  0.00  0.00    +0.000 C 
BRANCH   9  15
ATOM     10  C   UNL     1      44.054   2.988  10.117  0.00  0.00    +0.000 A 
ATOM     11  C   UNL     1      44.783   1.950   9.525  0.00  0.00    +0.000 A 
ATOM     12  C   UNL     1      45.686   2.213   8.490  0.00  0.00    +0.000 A 
ATOM     13  C   UNL     1      45.863   3.512   8.036  0.00  0.00    +0.000 A 
ATOM     14  C   UNL     1      45.139   4.553   8.615  0.00  0.00    +0.000 A 
ATOM     15  C   UNL     1      44.218   4.307   9.650  0.00  0.00    +0.000 A 
BRANCH  10  17
ATOM     16  C   UNL     1      43.668   2.642  12.444  0.00  0.00    +0.000 C 
ATOM     17  O   UNL     1      43.145   2.808  11.130  0.00  0.00    +0.000 OA
ENDBRANCH  10  17
ENDBRANCH   9  15
ENDBRANCH   8   9
ENDBRANCH   7   8
ENDBRANCH   1   7
BRANCH   4  18
ATOM     18  C   UNL     1      49.702   8.139  14.124  0.00  0.00    +0.000 C 
BRANCH  18  19
ATOM     19  N   UNL     1      49.802   7.190  15.200  0.00  0.00    +0.000 N 
ATOM     20  C   UNL     1      49.368   7.471  16.469  0.00  0.00    +0.000 C 
ATOM     21  O   UNL     1      48.988   8.588  16.802  0.00  0.00    +0.000 OA
ATOM     22  H   UNL     1      49.948   6.223  14.934  0.00  0.00    +0.000 HD
BRANCH  20  23
ATOM     23  C   UNL     1      49.424   6.355  17.420  0.00  0.00    +0.000 A 
ATOM     24  C   UNL     1      50.262   6.424  18.523  0.00  0.00    +0.000 A 
ATOM     25  S   UNL     1      50.209   5.031  19.504  0.00  0.00    +0.000 S 
ATOM     26  C   UNL     1      49.036   4.312  18.507  0.00  0.00    +0.000 A 
ATOM     27  N   UNL     1      48.541   3.098  18.808  0.00  0.00    +0.000 NA
ATOM     28  C   UNL     1      47.624   2.680  17.931  0.00  0.00    +0.000 A 
ATOM     29  N   UNL     1      47.189   3.325  16.842  0.00  0.00    +0.000 NA
ATOM     30  C   UNL     1      47.721   4.522  16.599  0.00  0.00    +0.000 A 
ATOM     31  C   UNL     1      48.690   5.102  17.419  0.00  0.00    +0.000 A 
BRANCH  30  32
ATOM     32  O   UNL     1      47.245   5.112  15.467  0.00  0.00    +0.000 OA
ATOM     33  H   UNL     1      47.493   6.043  15.629  0.00  0.00    +0.000 HD
ENDBRANCH  30  32
ENDBRANCH  20  23
ENDBRANCH  18  19
ENDBRANCH   4  18
TORSDOF 9
ENDMDL
MODEL 3
REMARK VINA RESULT:    -7.001      3.503      8.747
REMARK INTER + INTRA:         -11.891
REMARK INTER:                 -10.012
REMARK INTRA:                  -1.879
REMARK UNBOUND:                -1.411
REMARK  Name = 
REMARK  10 active torsions:
REMARK  status: ('A' for Active; 'I' for Inactive)
REMARK    1  A    between atoms: C_1  and  O_2
REMARK    2  A    between atoms: O_2  and  C_3
REMARK    3  A    between atoms: C_8  and  C_9
REMARK    4  A    between atoms: C_9  and  O_10
REMARK    5  A    between atoms: O_10  and  C_11
REMARK    6  A    between atoms: C_11  and  C_12
REMARK    7  A    between atoms: C_15  and  C_16
REMARK    8  A    between atoms: C_16  and  N_17
REMARK    9  A    between atoms: C_18  and  C_20
REMARK   10  A    between atoms: C_27  and  O_28
REMARK                            x       y       z     vdW  Elec       q    Type
REMARK                         _______ _______ _______ _____ _____    ______ ____
ROOT
ATOM      1  C   UNL     1      48.860   8.079  16.246  0.00  0.00    +0.000 A 
ATOM      2  C   UNL     1      48.305   9.194  15.602  0.00  0.00    +0.000 A 
ATOM      3  C   UNL     1      47.865   9.103  14.280  0.00  0.00    +0.000 A 
ATOM      4  C   UNL     1      47.965   7.892  13.580  0.00  0.00    +0.000 A 
ATOM      5  C   UNL     1      48.566   6.794  14.209  0.00  0.00    +0.000 A 
ATOM      6  C   UNL     1      49.005   6.885  15.530  0.00  0.00    +0.000 A 
ENDROOT
BRANCH   1   7
ATOM      7  C   UNL     1      49.246   8.149  17.703  0.00  0.00    +0.000 C 
BRANCH   7   8
ATOM      8  O   UNL     1      48.306   7.465  18.531  0.00  0.00    +0.000 OA
BRANCH   8   9
ATOM      9  C   UNL     1      48.883   6.362  19.245  0.00  0.00    +0.000 C 
BRANCH   9  15
ATOM     10  C   UNL     1      49.772   4.274  18.098  0.00  0.00    +0.000 A 
ATOM     11  C   UNL     1      49.554   3.123  17.331  0.00  0.00    +0.000 A 
ATOM     12  C   UNL     1      48.262   2.768  16.930  0.00  0.00    +0.000 A 
ATOM     13  C   UNL     1      47.180   3.556  17.295  0.00  0.00    +0.000 A 
ATOM     14  C   UNL     1      47.385   4.701  18.062  0.00  0.00    +0.000 A 
ATOM     15  C   UNL     1      48.675   5.069  18.485  0.00  0.00    +0.000 A 
BRANCH  10  17
ATOM     16  C   UNL     1      51.930   5.121  17.544  0.00  0.00    +0.000 C 
ATOM     17  O   UNL     1      51.007   4.683  18.535  0.00  0.00    +0.000 OA
ENDBRANCH  10  17
ENDBRANCH   9  15
ENDBRANCH   8   9
ENDBRANCH   7   8
ENDBRANCH   1   7
BRANCH   4  18
ATOM     18  C   UNL     1      47.488   7.784  12.156  0.00  0.00    +0.000 C 
BRANCH  18  19
ATOM     19  N   UNL     1      46.788   6.543  11.958  0.00  0.00    +0.000 N 
ATOM     20  C   UNL     1      45.426   6.443  12.071  0.00  0.00    +0.000 C 
ATOM     21  O   UNL     1      44.729   7.368  12.474  0.00  0.00    +0.000 OA
ATOM     22  H   UNL     1      47.295   5.814  11.470  0.00  0.00    +0.000 HD
BRANCH  20  23
ATOM     23  C   UNL     1      44.854   5.139  11.716  0.00  0.00    +0.000 A 
ATOM     24  C   UNL     1      44.130   4.419  12.655  0.00  0.00    +0.000 A 
ATOM     25  S   UNL     1      43.561   2.923  12.071  0.00  0.00    +0.000 S 
ATOM     26  C   UNL     1      44.229   3.210  10.536  0.00  0.00    +0.000 A 
ATOM     27  N   UNL     1      44.078   2.307   9.550  0.00  0.00    +0.000 NA
ATOM     28  C   UNL     1      44.655   2.688   8.406  0.00  0.00    +0.000 A 
ATOM     29  N   UNL     1      45.334   3.818   8.175  0.00  0.00    +0.000 NA
ATOM     30  C   UNL     1      45.449   4.668   9.195  0.00  0.00    +0.000 A 
ATOM     31  C   UNL     1      44.903   4.421  10.455  0.00  0.00    +0.000 A 
BRANCH  30  32
ATOM     32  O   UNL     1      46.165   5.788   8.893  0.00  0.00    +0.000 OA
ATOM     33  H   UNL     1      45.538   6.252   8.306  0.00  0.00    +0.000 HD
ENDBRANCH  30  32
ENDBRANCH  20  23
ENDBRANCH  18  19
ENDBRANCH   4  18
TORSDOF 9
ENDMDL
MODEL 4
REMARK VINA RESULT:    -6.982      1.851      2.181
REMARK INTER + INTRA:         -11.863
REMARK INTER:                 -10.593
REMARK INTRA:                  -1.270
REMARK UNBOUND:                -1.411
REMARK  Name = 
REMARK  10 active torsions:
REMARK  status: ('A' for Active; 'I' for Inactive)
REMARK    1  A    between atoms: C_1  and  O_2
REMARK    2  A    between atoms: O_2  and  C_3
REMARK    3  A    between atoms: C_8  and  C_9
REMARK    4  A    between atoms: C_9  and  O_10
REMARK    5  A    between atoms: O_10  and  C_11
REMARK    6  A    between atoms: C_11  and  C_12
REMARK    7  A    between atoms: C_15  and  C_16
REMARK    8  A    between atoms: C_16  and  N_17
REMARK    9  A    between atoms: C_18  and  C_20
REMARK   10  A    between atoms: C_27  and  O_28
REMARK                            x       y       z     vdW  Elec       q    Type
REMARK                         _______ _______ _______ _____ _____    ______ ____
ROOT
ATOM      1  C   UNL     1      45.032   4.641  11.516  0.00  0.00    +0.000 A 
ATOM      2  C   UNL     1      45.177   4.714  12.909  0.00  0.00    +0.000 A 
ATOM      3  C   UNL     1      45.890   5.762  13.493  0.00  0.00    +0.000 A 
ATOM      4  C   UNL     1      46.464   6.763  12.696  0.00  0.00    +0.000 A 
ATOM      5  C   UNL     1      46.360   6.661  11.302  0.00  0.00    +0.000 A 
ATOM      6  C   UNL     1      45.648   5.614  10.719  0.00  0.00    +0.000 A 
ENDROOT
BRANCH   1   7
ATOM      7  C   UNL     1      44.181   3.565  10.890  0.00  0.00    +0.000 C 
BRANCH   7   8
ATOM      8  O   UNL     1      44.973   2.484  10.398  0.00  0.00    +0.000 OA
BRANCH   8   9
ATOM      9  C   UNL     1      44.590   2.059   9.083  0.00  0.00    +0.000 C 
BRANCH   9  15
ATOM     10  C   UNL     1      46.613   1.295   7.745  0.00  0.00    +0.000 A 
ATOM     11  C   UNL     1      47.681   1.582   6.886  0.00  0.00    +0.000 A 
ATOM     12  C   UNL     1      47.867   2.876   6.389  0.00  0.00    +0.000 A 
ATOM     13  C   UNL     1      46.987   3.889   6.741  0.00  0.00    +0.000 A 
ATOM     14  C   UNL     1      45.919   3.613   7.592  0.00  0.00    +0.000 A 
ATOM     15  C   UNL     1      45.708   2.316   8.094  0.00  0.00    +0.000 A 
BRANCH  10  17
ATOM     16  C   UNL     1      46.651  -1.068   7.435  0.00  0.00    +0.000 C 
ATOM     17  O   UNL     1      46.361   0.050   8.267  0.00  0.00    +0.000 OA
ENDBRANCH  10  17
ENDBRANCH   9  15
ENDBRANCH   8   9
ENDBRANCH   7   8
ENDBRANCH   1   7
BRANCH   4  18
ATOM     18  C   UNL     1      47.230   7.900  13.318  0.00  0.00    +0.000 C 
BRANCH  18  19
ATOM     19  N   UNL     1      47.609   7.567  14.666  0.00  0.00    +0.000 N 
ATOM     20  C   UNL     1      48.858   7.100  14.983  0.00  0.00    +0.000 C 
ATOM     21  O   UNL     1      49.689   6.813  14.128  0.00  0.00    +0.000 OA
ATOM     22  H   UNL     1      47.023   7.942  15.403  0.00  0.00    +0.000 HD
BRANCH  20  23
ATOM     23  C   UNL     1      49.126   6.928  16.415  0.00  0.00    +0.000 A 
ATOM     24  C   UNL     1      49.846   5.828  16.858  0.00  0.00    +0.000 A 
ATOM     25  S   UNL     1      50.042   5.783  18.551  0.00  0.00    +0.000 S 
ATOM     26  C   UNL     1      49.206   7.251  18.737  0.00  0.00    +0.000 A 
ATOM     27  N   UNL     1      49.040   7.787  19.959  0.00  0.00    +0.000 NA
ATOM     28  C   UNL     1      48.371   8.943  19.931  0.00  0.00    +0.000 A 
ATOM     29  N   UNL     1      47.877   9.570  18.857  0.00  0.00    +0.000 NA
ATOM     30  C   UNL     1      48.074   8.985  17.677  0.00  0.00    +0.000 A 
ATOM     31  C   UNL     1      48.755   7.775  17.533  0.00  0.00    +0.000 A 
BRANCH  30  32
ATOM     32  O   UNL     1      47.531   9.669  16.630  0.00  0.00    +0.000 OA
ATOM     33  H   UNL     1      46.579   9.589  16.835  0.00  0.00    +0.000 HD
ENDBRANCH  30  32
ENDBRANCH  20  23
ENDBRANCH  18  19
ENDBRANCH   4  18
TORSDOF 9
ENDMDL
MODEL 5
REMARK VINA RESULT:    -6.843      3.630      8.814
REMARK INTER + INTRA:         -11.654
REMARK INTER:                 -10.474
REMARK INTRA:                  -1.180
REMARK UNBOUND:                -1.411
REMARK  Name = 
REMARK  10 active torsions:
REMARK  status: ('A' for Active; 'I' for Inactive)
REMARK    1  A    between atoms: C_1  and  O_2
REMARK    2  A    between atoms: O_2  and  C_3
REMARK    3  A    between atoms: C_8  and  C_9
REMARK    4  A    between atoms: C_9  and  O_10
REMARK    5  A    between atoms: O_10  and  C_11
REMARK    6  A    between atoms: C_11  and  C_12
REMARK    7  A    between atoms: C_15  and  C_16
REMARK    8  A    between atoms: C_16  and  N_17
REMARK    9  A    between atoms: C_18  and  C_20
REMARK   10  A    between atoms: C_27  and  O_28
REMARK                            x       y       z     vdW  Elec       q    Type
REMARK                         _______ _______ _______ _____ _____    ______ ____
ROOT
ATOM      1  C   UNL     1      50.393   7.389  15.444  0.00  0.00    +0.000 A 
ATOM      2  C   UNL     1      49.108   6.829  15.496  0.00  0.00    +0.000 A 
ATOM      3  C   UNL     1      48.254   6.913  14.395  0.00  0.00    +0.000 A 
ATOM      4  C   UNL     1      48.672   7.552  13.218  0.00  0.00    +0.000 A 
ATOM      5  C   UNL     1      49.937   8.153  13.186  0.00  0.00    +0.000 A 
ATOM      6  C   UNL     1      50.790   8.068  14.286  0.00  0.00    +0.000 A 
ENDROOT
BRANCH   1   7
ATOM      7  C   UNL     1      51.352   7.214  16.595  0.00  0.00    +0.000 C 
BRANCH   7   8
ATOM      8  O   UNL     1      51.926   5.907  16.611  0.00  0.00    +0.000 OA
BRANCH   8   9
ATOM      9  C   UNL     1      51.845   5.273  17.895  0.00  0.00    +0.000 C 
BRANCH   9  15
ATOM     10  C   UNL     1      50.792   3.023  17.352  0.00  0.00    +0.000 A 
ATOM     11  C   UNL     1      50.870   1.625  17.301  0.00  0.00    +0.000 A 
ATOM     12  C   UNL     1      52.049   0.964  17.661  0.00  0.00    +0.000 A 
ATOM     13  C   UNL     1      53.157   1.692  18.069  0.00  0.00    +0.000 A 
ATOM     14  C   UNL     1      53.092   3.083  18.120  0.00  0.00    +0.000 A 
ATOM     15  C   UNL     1      51.919   3.768  17.751  0.00  0.00    +0.000 A 
BRANCH  10  17
ATOM     16  C   UNL     1      48.422   3.074  17.106  0.00  0.00    +0.000 C 
ATOM     17  O   UNL     1      49.675   3.742  17.008  0.00  0.00    +0.000 OA
ENDBRANCH  10  17
ENDBRANCH   9  15
ENDBRANCH   8   9
ENDBRANCH   7   8
ENDBRANCH   1   7
BRANCH   4  18
ATOM     18  C   UNL     1      47.758   7.642  12.024  0.00  0.00    +0.000 C 
BRANCH  18  19
ATOM     19  N   UNL     1      46.994   6.430  11.890  0.00  0.00    +0.000 N 
ATOM     20  C   UNL     1      45.634   6.399  12.056  0.00  0.00    +0.000 C 
ATOM     21  O   UNL     1      44.998   7.367  12.457  0.00  0.00    +0.000 OA
ATOM     22  H   UNL     1      47.447   5.665  11.404  0.00  0.00    +0.000 HD
BRANCH  20  23
ATOM     23  C   UNL     1      44.989   5.114  11.761  0.00  0.00    +0.000 A 
ATOM     24  C   UNL     1      44.285   4.447  12.753  0.00  0.00    +0.000 A 
ATOM     25  S   UNL     1      43.622   2.965  12.234  0.00  0.00    +0.000 S 
ATOM     26  C   UNL     1      44.220   3.191  10.660  0.00  0.00    +0.000 A 
ATOM     27  N   UNL     1      43.978   2.276   9.704  0.00  0.00    +0.000 NA
ATOM     28  C   UNL     1      44.509   2.607   8.523  0.00  0.00    +0.000 A 
ATOM     29  N   UNL     1      45.223   3.701   8.232  0.00  0.00    +0.000 NA
ATOM     30  C   UNL     1      45.428   4.566   9.224  0.00  0.00    +0.000 A 
ATOM     31  C   UNL     1      44.940   4.369  10.516  0.00  0.00    +0.000 A 
BRANCH  30  32
ATOM     32  O   UNL     1      46.175   5.647   8.860  0.00  0.00    +0.000 OA
ATOM     33  H   UNL     1      46.743   5.252   8.171  0.00  0.00    +0.000 HD
ENDBRANCH  30  32
ENDBRANCH  20  23
ENDBRANCH  18  19
ENDBRANCH   4  18
TORSDOF 9
ENDMDL
MODEL 6
REMARK VINA RESULT:    -6.694      3.981      8.462
REMARK INTER + INTRA:         -11.431
REMARK INTER:                  -9.631
REMARK INTRA:                  -1.800
REMARK UNBOUND:                -1.411
REMARK  Name = 
REMARK  10 active torsions:
REMARK  status: ('A' for Active; 'I' for Inactive)
REMARK    1  A    between atoms: C_1  and  O_2
REMARK    2  A    between atoms: O_2  and  C_3
REMARK    3  A    between atoms: C_8  and  C_9
REMARK    4  A    between atoms: C_9  and  O_10
REMARK    5  A    between atoms: O_10  and  C_11
REMARK    6  A    between atoms: C_11  and  C_12
REMARK    7  A    between atoms: C_15  and  C_16
REMARK    8  A    between atoms: C_16  and  N_17
REMARK    9  A    between atoms: C_18  and  C_20
REMARK   10  A    between atoms: C_27  and  O_28
REMARK                            x       y       z     vdW  Elec       q    Type
REMARK                         _______ _______ _______ _____ _____    ______ ____
ROOT
ATOM      1  C   UNL     1      48.831   8.068  16.140  0.00  0.00    +0.000 A 
ATOM      2  C   UNL     1      49.106   6.907  15.404  0.00  0.00    +0.000 A 
ATOM      3  C   UNL     1      48.984   6.905  14.013  0.00  0.00    +0.000 A 
ATOM      4  C   UNL     1      48.594   8.067  13.332  0.00  0.00    +0.000 A 
ATOM      5  C   UNL     1      48.272   9.211  14.074  0.00  0.00    +0.000 A 
ATOM      6  C   UNL     1      48.394   9.213  15.463  0.00  0.00    +0.000 A 
ENDROOT
BRANCH   1   7
ATOM      7  C   UNL     1      49.056   8.101  17.632  0.00  0.00    +0.000 C 
BRANCH   7   8
ATOM      8  O   UNL     1      47.994   7.463  18.340  0.00  0.00    +0.000 OA
BRANCH   8   9
ATOM      9  C   UNL     1      48.447   6.420  19.213  0.00  0.00    +0.000 C 
BRANCH   9  15
ATOM     10  C   UNL     1      49.748   4.495  18.180  0.00  0.00    +0.000 A 
ATOM     11  C   UNL     1      49.777   3.311  17.431  0.00  0.00    +0.000 A 
ATOM     12  C   UNL     1      48.593   2.737  16.961  0.00  0.00    +0.000 A 
ATOM     13  C   UNL     1      47.372   3.335  17.237  0.00  0.00    +0.000 A 
ATOM     14  C   UNL     1      47.331   4.511  17.984  0.00  0.00    +0.000 A 
ATOM     15  C   UNL     1      48.510   5.099  18.477  0.00  0.00    +0.000 A 
BRANCH  10  17
ATOM     16  C   UNL     1      51.876   4.273  19.230  0.00  0.00    +0.000 C 
ATOM     17  O   UNL     1      50.866   5.113  18.682  0.00  0.00    +0.000 OA
ENDBRANCH  10  17
ENDBRANCH   9  15
ENDBRANCH   8   9
ENDBRANCH   7   8
ENDBRANCH   1   7
BRANCH   4  18
ATOM     18  C   UNL     1      48.466   8.074  11.832  0.00  0.00    +0.000 C 
BRANCH  18  19
ATOM     19  N   UNL     1      47.691   6.944  11.392  0.00  0.00    +0.000 N 
ATOM     20  C   UNL     1      46.321   6.961  11.362  0.00  0.00    +0.000 C 
ATOM     21  O   UNL     1      45.664   7.886  11.828  0.00  0.00    +0.000 OA
ATOM     22  H   UNL     1      48.186   6.242  10.854  0.00  0.00    +0.000 HD
BRANCH  20  23
ATOM     23  C   UNL     1      45.686   5.778  10.771  0.00  0.00    +0.000 A 
ATOM     24  C   UNL     1      45.868   5.492   9.425  0.00  0.00    +0.000 A 
ATOM     25  S   UNL     1      45.039   4.094   8.911  0.00  0.00    +0.000 S 
ATOM     26  C   UNL     1      44.447   3.808  10.477  0.00  0.00    +0.000 A 
ATOM     27  N   UNL     1      43.673   2.735  10.725  0.00  0.00    +0.000 NA
ATOM     28  C   UNL     1      43.299   2.651  12.005  0.00  0.00    +0.000 A 
ATOM     29  N   UNL     1      43.604   3.494  12.998  0.00  0.00    +0.000 NA
ATOM     30  C   UNL     1      44.371   4.537  12.685  0.00  0.00    +0.000 A 
ATOM     31  C   UNL     1      44.848   4.770  11.394  0.00  0.00    +0.000 A 
BRANCH  30  32
ATOM     32  O   UNL     1      44.628   5.362  13.740  0.00  0.00    +0.000 OA
ATOM     33  H   UNL     1      45.597   5.265  13.815  0.00  0.00    +0.000 HD
ENDBRANCH  30  32
ENDBRANCH  20  23
ENDBRANCH  18  19
ENDBRANCH   4  18
TORSDOF 9
ENDMDL
MODEL 7
REMARK VINA RESULT:    -6.638      1.371      2.150
REMARK INTER + INTRA:         -11.347
REMARK INTER:                 -10.295
REMARK INTRA:                  -1.052
REMARK UNBOUND:                -1.411
REMARK  Name = 
REMARK  10 active torsions:
REMARK  status: ('A' for Active; 'I' for Inactive)
REMARK    1  A    between atoms: C_1  and  O_2
REMARK    2  A    between atoms: O_2  and  C_3
REMARK    3  A    between atoms: C_8  and  C_9
REMARK    4  A    between atoms: C_9  and  O_10
REMARK    5  A    between atoms: O_10  and  C_11
REMARK    6  A    between atoms: C_11  and  C_12
REMARK    7  A    between atoms: C_15  and  C_16
REMARK    8  A    between atoms: C_16  and  N_17
REMARK    9  A    between atoms: C_18  and  C_20
REMARK   10  A    between atoms: C_27  and  O_28
REMARK                            x       y       z     vdW  Elec       q    Type
REMARK                         _______ _______ _______ _____ _____    ______ ____
ROOT
ATOM      1  C   UNL     1      45.020   4.640  12.124  0.00  0.00    +0.000 A 
ATOM      2  C   UNL     1      45.981   4.248  13.068  0.00  0.00    +0.000 A 
ATOM      3  C   UNL     1      46.853   5.185  13.622  0.00  0.00    +0.000 A 
ATOM      4  C   UNL     1      46.776   6.535  13.250  0.00  0.00    +0.000 A 
ATOM      5  C   UNL     1      45.849   6.916  12.271  0.00  0.00    +0.000 A 
ATOM      6  C   UNL     1      44.977   5.979  11.717  0.00  0.00    +0.000 A 
ENDROOT
BRANCH   1   7
ATOM      7  C   UNL     1      44.014   3.648  11.598  0.00  0.00    +0.000 C 
BRANCH   7   8
ATOM      8  O   UNL     1      44.644   2.581  10.889  0.00  0.00    +0.000 OA
BRANCH   8   9
ATOM      9  C   UNL     1      44.241   2.503   9.515  0.00  0.00    +0.000 C 
BRANCH   9  15
ATOM     10  C   UNL     1      45.999   3.393   7.908  0.00  0.00    +0.000 A 
ATOM     11  C   UNL     1      47.065   3.169   7.027  0.00  0.00    +0.000 A 
ATOM     12  C   UNL     1      47.568   1.879   6.831  0.00  0.00    +0.000 A 
ATOM     13  C   UNL     1      47.015   0.805   7.514  0.00  0.00    +0.000 A 
ATOM     14  C   UNL     1      45.957   1.018   8.396  0.00  0.00    +0.000 A 
ATOM     15  C   UNL     1      45.444   2.309   8.617  0.00  0.00    +0.000 A 
BRANCH  10  17
ATOM     16  C   UNL     1      46.312   5.597   8.760  0.00  0.00    +0.000 C 
ATOM     17  O   UNL     1      45.458   4.629   8.159  0.00  0.00    +0.000 OA
ENDBRANCH  10  17
ENDBRANCH   9  15
ENDBRANCH   8   9
ENDBRANCH   7   8
ENDBRANCH   1   7
BRANCH   4  18
ATOM     18  C   UNL     1      47.710   7.554  13.848  0.00  0.00    +0.000 C 
BRANCH  18  19
ATOM     19  N   UNL     1      48.068   7.176  15.189  0.00  0.00    +0.000 N 
ATOM     20  C   UNL     1      49.367   7.162  15.626  0.00  0.00    +0.000 C 
ATOM     21  O   UNL     1      50.316   7.345  14.871  0.00  0.00    +0.000 OA
ATOM     22  H   UNL     1      47.320   7.183  15.873  0.00  0.00    +0.000 HD
BRANCH  20  23
ATOM     23  C   UNL     1      49.553   6.876  17.052  0.00  0.00    +0.000 A 
ATOM     24  C   UNL     1      50.110   7.835  17.886  0.00  0.00    +0.000 A 
ATOM     25  S   UNL     1      50.268   7.319  19.503  0.00  0.00    +0.000 S 
ATOM     26  C   UNL     1      49.560   5.817  19.145  0.00  0.00    +0.000 A 
ATOM     27  N   UNL     1      49.381   4.902  20.116  0.00  0.00    +0.000 NA
ATOM     28  C   UNL     1      48.806   3.781  19.672  0.00  0.00    +0.000 A 
ATOM     29  N   UNL     1      48.423   3.505  18.420  0.00  0.00    +0.000 NA
ATOM     30  C   UNL     1      48.631   4.452  17.506  0.00  0.00    +0.000 A 
ATOM     31  C   UNL     1      49.219   5.681  17.806  0.00  0.00    +0.000 A 
BRANCH  30  32
ATOM     32  O   UNL     1      48.232   4.097  16.252  0.00  0.00    +0.000 OA
ATOM     33  H   UNL     1      48.858   3.372  16.060  0.00  0.00    +0.000 HD
ENDBRANCH  30  32
ENDBRANCH  20  23
ENDBRANCH  18  19
ENDBRANCH   4  18
TORSDOF 9
ENDMDL
MODEL 8
REMARK VINA RESULT:    -6.545      1.687      2.448
REMARK INTER + INTRA:         -11.209
REMARK INTER:                 -10.006
REMARK INTRA:                  -1.203
REMARK UNBOUND:                -1.411
REMARK  Name = 
REMARK  10 active torsions:
REMARK  status: ('A' for Active; 'I' for Inactive)
REMARK    1  A    between atoms: C_1  and  O_2
REMARK    2  A    between atoms: O_2  and  C_3
REMARK    3  A    between atoms: C_8  and  C_9
REMARK    4  A    between atoms: C_9  and  O_10
REMARK    5  A    between atoms: O_10  and  C_11
REMARK    6  A    between atoms: C_11  and  C_12
REMARK    7  A    between atoms: C_15  and  C_16
REMARK    8  A    between atoms: C_16  and  N_17
REMARK    9  A    between atoms: C_18  and  C_20
REMARK   10  A    between atoms: C_27  and  O_28
REMARK                            x       y       z     vdW  Elec       q    Type
REMARK                         _______ _______ _______ _____ _____    ______ ____
ROOT
ATOM      1  C   UNL     1      45.116   4.423  11.702  0.00  0.00    +0.000 A 
ATOM      2  C   UNL     1      45.436   4.369  13.066  0.00  0.00    +0.000 A 
ATOM      3  C   UNL     1      46.174   5.393  13.661  0.00  0.00    +0.000 A 
ATOM      4  C   UNL     1      46.600   6.495  12.905  0.00  0.00    +0.000 A 
ATOM      5  C   UNL     1      46.322   6.522  11.532  0.00  0.00    +0.000 A 
ATOM      6  C   UNL     1      45.584   5.498  10.938  0.00  0.00    +0.000 A 
ENDROOT
BRANCH   1   7
ATOM      7  C   UNL     1      44.237   3.367  11.079  0.00  0.00    +0.000 C 
BRANCH   7   8
ATOM      8  O   UNL     1      44.994   2.437  10.305  0.00  0.00    +0.000 OA
BRANCH   8   9
ATOM      9  C   UNL     1      44.578   2.377   8.933  0.00  0.00    +0.000 C 
BRANCH   9  15
ATOM     10  C   UNL     1      46.621   1.458   7.731  0.00  0.00    +0.000 A 
ATOM     11  C   UNL     1      47.754   1.659   6.932  0.00  0.00    +0.000 A 
ATOM     12  C   UNL     1      48.053   2.927   6.426  0.00  0.00    +0.000 A 
ATOM     13  C   UNL     1      47.222   4.002   6.708  0.00  0.00    +0.000 A 
ATOM     14  C   UNL     1      46.090   3.813   7.499  0.00  0.00    +0.000 A 
ATOM     15  C   UNL     1      45.766   2.542   8.008  0.00  0.00    +0.000 A 
BRANCH  10  17
ATOM     16  C   UNL     1      46.682  -0.918   7.550  0.00  0.00    +0.000 C 
ATOM     17  O   UNL     1      46.259   0.243   8.257  0.00  0.00    +0.000 OA
ENDBRANCH  10  17
ENDBRANCH   9  15
ENDBRANCH   8   9
ENDBRANCH   7   8
ENDBRANCH   1   7
BRANCH   4  18
ATOM     18  C   UNL     1      47.392   7.607  13.541  0.00  0.00    +0.000 C 
BRANCH  18  19
ATOM     19  N   UNL     1      48.000   7.149  14.761  0.00  0.00    +0.000 N 
ATOM     20  C   UNL     1      49.357   7.008  14.896  0.00  0.00    +0.000 C 
ATOM     21  O   UNL     1      50.128   7.135  13.951  0.00  0.00    +0.000 OA
ATOM     22  H   UNL     1      47.427   7.197  15.595  0.00  0.00    +0.000 HD
BRANCH  20  23
ATOM     23  C   UNL     1      49.827   6.654  16.240  0.00  0.00    +0.000 A 
ATOM     24  C   UNL     1      48.913   6.344  17.236  0.00  0.00    +0.000 A 
ATOM     25  S   UNL     1      49.640   5.978  18.734  0.00  0.00    +0.000 S 
ATOM     26  C   UNL     1      51.196   6.183  18.086  0.00  0.00    +0.000 A 
ATOM     27  N   UNL     1      52.283   5.992  18.856  0.00  0.00    +0.000 NA
ATOM     28  C   UNL     1      53.428   6.184  18.194  0.00  0.00    +0.000 A 
ATOM     29  N   UNL     1      53.575   6.536  16.910  0.00  0.00    +0.000 NA
ATOM     30  C   UNL     1      52.459   6.711  16.204  0.00  0.00    +0.000 A 
ATOM     31  C   UNL     1      51.184   6.548  16.746  0.00  0.00    +0.000 A 
BRANCH  30  32
ATOM     32  O   UNL     1      52.684   7.083  14.912  0.00  0.00    +0.000 OA
ATOM     33  H   UNL     1      53.431   7.702  15.028  0.00  0.00    +0.000 HD
ENDBRANCH  30  32
ENDBRANCH  20  23
ENDBRANCH  18  19
ENDBRANCH   4  18
TORSDOF 9
ENDMDL
MODEL 9
REMARK VINA RESULT:    -6.318      5.255      7.311
REMARK INTER + INTRA:         -10.869
REMARK INTER:                  -9.707
REMARK INTRA:                  -1.163
REMARK UNBOUND:                -1.411
REMARK  Name = 
REMARK  10 active torsions:
REMARK  status: ('A' for Active; 'I' for Inactive)
REMARK    1  A    between atoms: C_1  and  O_2
REMARK    2  A    between atoms: O_2  and  C_3
REMARK    3  A    between atoms: C_8  and  C_9
REMARK    4  A    between atoms: C_9  and  O_10
REMARK    5  A    between atoms: O_10  and  C_11
REMARK    6  A    between atoms: C_11  and  C_12
REMARK    7  A    between atoms: C_15  and  C_16
REMARK    8  A    between atoms: C_16  and  N_17
REMARK    9  A    between atoms: C_18  and  C_20
REMARK   10  A    between atoms: C_27  and  O_28
REMARK                            x       y       z     vdW  Elec       q    Type
REMARK                         _______ _______ _______ _____ _____    ______ ____
ROOT
ATOM      1  C   UNL     1      47.320   7.754  12.514  0.00  0.00    +0.000 A 
ATOM      2  C   UNL     1      47.500   9.074  12.076  0.00  0.00    +0.000 A 
ATOM      3  C   UNL     1      48.782   9.583  11.869  0.00  0.00    +0.000 A 
ATOM      4  C   UNL     1      49.911   8.780  12.089  0.00  0.00    +0.000 A 
ATOM      5  C   UNL     1      49.730   7.478  12.574  0.00  0.00    +0.000 A 
ATOM      6  C   UNL     1      48.448   6.968  12.780  0.00  0.00    +0.000 A 
ENDROOT
BRANCH   1   7
ATOM      7  C   UNL     1      45.935   7.171  12.644  0.00  0.00    +0.000 C 
BRANCH   7   8
ATOM      8  O   UNL     1      45.812   5.936  11.938  0.00  0.00    +0.000 OA
BRANCH   8   9
ATOM      9  C   UNL     1      44.701   5.915  11.031  0.00  0.00    +0.000 C 
BRANCH   9  15
ATOM     10  C   UNL     1      44.186   3.635  10.032  0.00  0.00    +0.000 A 
ATOM     11  C   UNL     1      44.443   2.638   9.082  0.00  0.00    +0.000 A 
ATOM     12  C   UNL     1      45.411   2.832   8.091  0.00  0.00    +0.000 A 
ATOM     13  C   UNL     1      46.124   4.021   8.038  0.00  0.00    +0.000 A 
ATOM     14  C   UNL     1      45.873   5.020   8.976  0.00  0.00    +0.000 A 
ATOM     15  C   UNL     1      44.896   4.850   9.974  0.00  0.00    +0.000 A 
BRANCH  10  17
ATOM     16  C   UNL     1      43.555   2.643  12.106  0.00  0.00    +0.000 C 
ATOM     17  O   UNL     1      43.248   3.522  11.028  0.00  0.00    +0.000 OA
ENDBRANCH  10  17
ENDBRANCH   9  15
ENDBRANCH   8   9
ENDBRANCH   7   8
ENDBRANCH   1   7
BRANCH   4  18
ATOM     18  C   UNL     1      51.298   9.320  11.862  0.00  0.00    +0.000 C 
BRANCH  18  19
ATOM     19  N   UNL     1      51.707   9.089  10.503  0.00  0.00    +0.000 N 
ATOM     20  C   UNL     1      52.742   8.250  10.181  0.00  0.00    +0.000 C 
ATOM     21  O   UNL     1      53.468   7.746  11.030  0.00  0.00    +0.000 OA
ATOM     22  H   UNL     1      51.041   9.346   9.783  0.00  0.00    +0.000 HD
BRANCH  20  23
ATOM     23  C   UNL     1      52.952   8.024   8.747  0.00  0.00    +0.000 A 
ATOM     24  C   UNL     1      52.762   9.062   7.845  0.00  0.00    +0.000 A 
ATOM     25  S   UNL     1      53.032   8.609   6.224  0.00  0.00    +0.000 S 
ATOM     26  C   UNL     1      53.449   7.027   6.682  0.00  0.00    +0.000 A 
ATOM     27  N   UNL     1      53.809   6.124   5.752  0.00  0.00    +0.000 NA
ATOM     28  C   UNL     1      54.113   4.933   6.277  0.00  0.00    +0.000 A 
ATOM     29  N   UNL     1      54.084   4.583   7.569  0.00  0.00    +0.000 NA
ATOM     30  C   UNL     1      53.716   5.523   8.437  0.00  0.00    +0.000 A 
ATOM     31  C   UNL     1      53.368   6.819   8.052  0.00  0.00    +0.000 A 
BRANCH  30  32
ATOM     32  O   UNL     1      53.693   5.093   9.731  0.00  0.00    +0.000 OA
ATOM     33  H   UNL     1      53.975   4.165   9.619  0.00  0.00    +0.000 HD
ENDBRANCH  30  32
ENDBRANCH  20  23
ENDBRANCH  18  19
ENDBRANCH   4  18
TORSDOF 9
ENDMDL
