MODEL 1
REMARK VINA RESULT:    -7.932      0.000      0.000
REMARK INTER + INTRA:         -11.956
REMARK INTER:                 -10.714
REMARK INTRA:                  -1.242
REMARK UNBOUND:                -1.242
REMARK  Name = 
REMARK  7 active torsions:
REMARK  status: ('A' for Active; 'I' for Inactive)
REMARK    1  A    between atoms: C_1  and  C_2
REMARK    2  A    between atoms: C_2  and  N_3
REMARK    3  A    between atoms: C_2  and  C_16
REMARK    4  A    between atoms: C_4  and  C_6
REMARK    5  A    between atoms: C_19  and  C_20
REMARK    6  A    between atoms: C_20  and  N_21
REMARK    7  A    between atoms: C_22  and  C_24
REMARK                            x       y       z     vdW  Elec       q    Type
REMARK                         _______ _______ _______ _____ _____    ______ ____
ROOT
ATOM      1  C   UNL     1      48.389   9.424  13.444  0.00  0.00    +0.000 C 
ATOM      2  C   UNL     1      47.694   8.272  14.183  0.00  0.00    +0.000 C 
ENDROOT
BRANCH   2   3
ATOM      3  C   UNL     1      46.773   7.503  13.241  0.00  0.00    +0.000 A 
ATOM      4  C   UNL     1      46.790   6.102  13.237  0.00  0.00    +0.000 A 
ATOM      5  C   UNL     1      45.930   5.370  12.404  0.00  0.00    +0.000 A 
ATOM      6  C   UNL     1      45.043   6.026  11.535  0.00  0.00    +0.000 A 
ATOM      7  C   UNL     1      45.015   7.421  11.556  0.00  0.00    +0.000 A 
ATOM      8  C   UNL     1      45.871   8.150  12.386  0.00  0.00    +0.000 A 
BRANCH   6   9
ATOM      9  C   UNL     1      44.166   5.297  10.550  0.00  0.00    +0.000 C 
BRANCH   9  10
ATOM     10  N   UNL     1      44.881   4.635   9.494  0.00  0.00    +0.000 N 
ATOM     11  C   UNL     1      45.070   3.265   9.503  0.00  0.00    +0.000 C 
ATOM     12  O   UNL     1      44.647   2.529  10.400  0.00  0.00    +0.000 OA
ATOM     13  H   UNL     1      45.017   5.094   8.596  0.00  0.00    +0.000 HD
BRANCH  11  14
ATOM     14  C   UNL     1      45.820   2.715   8.330  0.00  0.00    +0.000 A 
ATOM     15  C   UNL     1      46.074   3.519   7.220  0.00  0.00    +0.000 A 
ATOM     16  C   UNL     1      46.753   2.961   6.140  0.00  0.00    +0.000 A 
ATOM     17  C   UNL     1      47.156   1.632   6.202  0.00  0.00    +0.000 A 
ATOM     18  C   UNL     1      46.863   0.906   7.348  0.00  0.00    +0.000 A 
ATOM     19  N   UNL     1      46.209   1.413   8.417  0.00  0.00    +0.000 NA
ENDBRANCH  11  14
ENDBRANCH   9  10
ENDBRANCH   6   9
ENDBRANCH   2   3
BRANCH   2  20
ATOM     20  N   UNL     1      48.634   7.387  14.851  0.00  0.00    +0.000 N 
ATOM     21  C   UNL     1      48.930   7.508  16.194  0.00  0.00    +0.000 C 
ATOM     22  O   UNL     1      48.446   8.377  16.903  0.00  0.00    +0.000 OA
ATOM     23  H   UNL     1      49.252   6.829  14.275  0.00  0.00    +0.000 HD
BRANCH  21  24
ATOM     24  C   UNL     1      49.828   6.489  16.772  0.00  0.00    +0.000 A 
ATOM     25  C   UNL     1      51.122   6.838  17.133  0.00  0.00    +0.000 A 
ATOM     26  S   UNL     1      52.046   5.525  17.714  0.00  0.00    +0.000 S 
ATOM     27  C   UNL     1      50.757   4.443  17.470  0.00  0.00    +0.000 A 
ATOM     28  N   UNL     1      50.903   3.114  17.714  0.00  0.00    +0.000 NA
ATOM     29  C   UNL     1      49.861   2.404  17.434  0.00  0.00    +0.000 A 
ATOM     30  N   UNL     1      48.677   2.908  16.954  0.00  0.00    +0.000 N 
ATOM     31  C   UNL     1      48.463   4.250  16.761  0.00  0.00    +0.000 A 
ATOM     32  O   UNL     1      47.360   4.688  16.430  0.00  0.00    +0.000 OA
ATOM     33  C   UNL     1      49.622   5.083  17.001  0.00  0.00    +0.000 A 
ATOM     34  H   UNL     1      47.891   2.298  16.787  0.00  0.00    +0.000 HD
ENDBRANCH  21  24
ENDBRANCH   2  20
TORSDOF 6
ENDMDL
MODEL 2
REMARK VINA RESULT:    -7.618      1.706      2.099
REMARK INTER + INTRA:         -11.532
REMARK INTER:                 -10.549
REMARK INTRA:                  -0.983
REMARK UNBOUND:                -1.242
REMARK  Name = 
REMARK  7 active torsions:
REMARK  status: ('A' for Active; 'I' for Inactive)
REMARK    1  A    between atoms: C_1  and  C_2
REMARK    2  A    between atoms: C_2  and  N_3
REMARK    3  A    between atoms: C_2  and  C_16
REMARK    4  A    between atoms: C_4  and  C_6
REMARK    5  A    between atoms: C_19  and  C_20
REMARK    6  A    between atoms: C_20  and  N_21
REMARK    7  A    between atoms: C_22  and  C_24
REMARK                            x       y       z     vdW  Elec       q    Type
REMARK                         _______ _______ _______ _____ _____    ______ ____
ROOT
ATOM      1  C   UNL     1      49.000   9.240  13.464  0.00  0.00    +0.000 C 
ATOM      2  C   UNL     1      47.721   8.793  14.187  0.00  0.00    +0.000 C 
ENDROOT
BRANCH   2   3
ATOM      3  C   UNL     1      46.839   7.963  13.261  0.00  0.00    +0.000 A 
ATOM      4  C   UNL     1      47.081   6.590  13.112  0.00  0.00    +0.000 A 
ATOM      5  C   UNL     1      46.263   5.797  12.291  0.00  0.00    +0.000 A 
ATOM      6  C   UNL     1      45.195   6.364  11.580  0.00  0.00    +0.000 A 
ATOM      7  C   UNL     1      44.945   7.726  11.746  0.00  0.00    +0.000 A 
ATOM      8  C   UNL     1      45.757   8.517  12.564  0.00  0.00    +0.000 A 
BRANCH   6   9
ATOM      9  C   UNL     1      44.344   5.583  10.611  0.00  0.00    +0.000 C 
BRANCH   9  10
ATOM     10  N   UNL     1      45.088   4.877   9.604  0.00  0.00    +0.000 N 
ATOM     11  C   UNL     1      44.819   3.552   9.311  0.00  0.00    +0.000 C 
ATOM     12  O   UNL     1      43.941   2.896   9.881  0.00  0.00    +0.000 OA
ATOM     13  H   UNL     1      45.618   5.386   8.902  0.00  0.00    +0.000 HD
BRANCH  11  14
ATOM     14  C   UNL     1      45.663   2.952   8.230  0.00  0.00    +0.000 A 
ATOM     15  C   UNL     1      46.107   1.635   8.337  0.00  0.00    +0.000 A 
ATOM     16  C   UNL     1      46.911   1.122   7.322  0.00  0.00    +0.000 A 
ATOM     17  C   UNL     1      47.240   1.932   6.241  0.00  0.00    +0.000 A 
ATOM     18  C   UNL     1      46.752   3.230   6.215  0.00  0.00    +0.000 A 
ATOM     19  N   UNL     1      45.968   3.762   7.179  0.00  0.00    +0.000 NA
ENDBRANCH  11  14
ENDBRANCH   9  10
ENDBRANCH   6   9
ENDBRANCH   2   3
BRANCH   2  20
ATOM     20  N   UNL     1      47.996   8.095  15.431  0.00  0.00    +0.000 N 
ATOM     21  C   UNL     1      48.315   8.765  16.596  0.00  0.00    +0.000 C 
ATOM     22  O   UNL     1      48.414   9.981  16.654  0.00  0.00    +0.000 OA
ATOM     23  H   UNL     1      48.185   7.102  15.386  0.00  0.00    +0.000 HD
BRANCH  21  24
ATOM     24  C   UNL     1      48.478   7.945  17.812  0.00  0.00    +0.000 A 
ATOM     25  C   UNL     1      47.869   8.341  18.995  0.00  0.00    +0.000 A 
ATOM     26  S   UNL     1      48.221   7.322  20.319  0.00  0.00    +0.000 S 
ATOM     27  C   UNL     1      49.224   6.339  19.361  0.00  0.00    +0.000 A 
ATOM     28  N   UNL     1      49.903   5.294  19.903  0.00  0.00    +0.000 NA
ATOM     29  C   UNL     1      50.668   4.668  19.072  0.00  0.00    +0.000 A 
ATOM     30  N   UNL     1      50.795   4.978  17.741  0.00  0.00    +0.000 N 
ATOM     31  C   UNL     1      50.075   5.978  17.137  0.00  0.00    +0.000 A 
ATOM     32  O   UNL     1      50.128   6.171  15.921  0.00  0.00    +0.000 OA
ATOM     33  C   UNL     1      49.249   6.752  18.040  0.00  0.00    +0.000 A 
ATOM     34  H   UNL     1      51.389   4.425  17.140  0.00  0.00    +0.000 HD
ENDBRANCH  21  24
ENDBRANCH   2  20
TORSDOF 6
ENDMDL
MODEL 3
REMARK VINA RESULT:    -7.530      2.527      4.053
REMARK INTER + INTRA:         -11.413
REMARK INTER:                 -10.324
REMARK INTRA:                  -1.090
REMARK UNBOUND:                -1.242
REMARK  Name = 
REMARK  7 active torsions:
REMARK  status: ('A' for Active; 'I' for Inactive)
REMARK    1  A    between atoms: C_1  and  C_2
REMARK    2  A    between atoms: C_2  and  N_3
REMARK    3  A    between atoms: C_2  and  C_16
REMARK    4  A    between atoms: C_4  and  C_6
REMARK    5  A    between atoms: C_19  and  C_20
REMARK    6  A    between atoms: C_20  and  N_21
REMARK    7  A    between atoms: C_22  and  C_24
REMARK                            x       y       z     vdW  Elec       q    Type
REMARK                         _______ _______ _______ _____ _____    ______ ____
ROOT
ATOM      1  C   UNL     1      47.618   3.386  16.536  0.00  0.00    +0.000 C 
ATOM      2  C   UNL     1      47.955   4.765  15.952  0.00  0.00    +0.000 C 
ENDROOT
BRANCH   2   3
ATOM      3  C   UNL     1      47.229   4.983  14.628  0.00  0.00    +0.000 A 
ATOM      4  C   UNL     1      46.352   4.003  14.143  0.00  0.00    +0.000 A 
ATOM      5  C   UNL     1      45.647   4.192  12.944  0.00  0.00    +0.000 A 
ATOM      6  C   UNL     1      45.820   5.362  12.187  0.00  0.00    +0.000 A 
ATOM      7  C   UNL     1      46.678   6.344  12.684  0.00  0.00    +0.000 A 
ATOM      8  C   UNL     1      47.379   6.156  13.877  0.00  0.00    +0.000 A 
BRANCH   6   9
ATOM      9  C   UNL     1      45.165   5.580  10.847  0.00  0.00    +0.000 C 
BRANCH   9  10
ATOM     10  N   UNL     1      45.739   4.814   9.775  0.00  0.00    +0.000 N 
ATOM     11  C   UNL     1      45.186   3.611   9.376  0.00  0.00    +0.000 C 
ATOM     12  O   UNL     1      44.182   3.119   9.902  0.00  0.00    +0.000 OA
ATOM     13  H   UNL     1      46.372   5.251   9.110  0.00  0.00    +0.000 HD
BRANCH  11  14
ATOM     14  C   UNL     1      45.881   2.933   8.237  0.00  0.00    +0.000 A 
ATOM     15  C   UNL     1      46.147   3.633   7.061  0.00  0.00    +0.000 A 
ATOM     16  C   UNL     1      46.774   2.959   6.016  0.00  0.00    +0.000 A 
ATOM     17  C   UNL     1      47.115   1.621   6.177  0.00  0.00    +0.000 A 
ATOM     18  C   UNL     1      46.815   1.003   7.382  0.00  0.00    +0.000 A 
ATOM     19  N   UNL     1      46.210   1.625   8.420  0.00  0.00    +0.000 NA
ENDBRANCH  11  14
ENDBRANCH   9  10
ENDBRANCH   6   9
ENDBRANCH   2   3
BRANCH   2  20
ATOM     20  N   UNL     1      47.697   5.847  16.887  0.00  0.00    +0.000 N 
ATOM     21  C   UNL     1      48.552   6.135  17.932  0.00  0.00    +0.000 C 
ATOM     22  O   UNL     1      49.563   5.488  18.158  0.00  0.00    +0.000 OA
ATOM     23  H   UNL     1      46.766   6.243  16.910  0.00  0.00    +0.000 HD
BRANCH  21  24
ATOM     24  C   UNL     1      48.226   7.318  18.752  0.00  0.00    +0.000 A 
ATOM     25  C   UNL     1      47.953   7.164  20.104  0.00  0.00    +0.000 A 
ATOM     26  S   UNL     1      47.523   8.620  20.885  0.00  0.00    +0.000 S 
ATOM     27  C   UNL     1      47.657   9.497  19.434  0.00  0.00    +0.000 A 
ATOM     28  N   UNL     1      47.358  10.822  19.387  0.00  0.00    +0.000 NA
ATOM     29  C   UNL     1      47.452  11.347  18.211  0.00  0.00    +0.000 A 
ATOM     30  N   UNL     1      47.842  10.671  17.082  0.00  0.00    +0.000 N 
ATOM     31  C   UNL     1      48.221   9.352  17.097  0.00  0.00    +0.000 A 
ATOM     32  O   UNL     1      48.666   8.795  16.092  0.00  0.00    +0.000 OA
ATOM     33  C   UNL     1      48.073   8.700  18.381  0.00  0.00    +0.000 A 
ATOM     34  H   UNL     1      47.925  11.153  16.198  0.00  0.00    +0.000 HD
ENDBRANCH  21  24
ENDBRANCH   2  20
TORSDOF 6
ENDMDL
MODEL 4
REMARK VINA RESULT:    -7.376      4.445      7.218
REMARK INTER + INTRA:         -11.205
REMARK INTER:                 -10.073
REMARK INTRA:                  -1.132
REMARK UNBOUND:                -1.242
REMARK  Name = 
REMARK  7 active torsions:
REMARK  status: ('A' for Active; 'I' for Inactive)
REMARK    1  A    between atoms: C_1  and  C_2
REMARK    2  A    between atoms: C_2  and  N_3
REMARK    3  A    between atoms: C_2  and  C_16
REMARK    4  A    between atoms: C_4  and  C_6
REMARK    5  A    between atoms: C_19  and  C_20
REMARK    6  A    between atoms: C_20  and  N_21
REMARK    7  A    between atoms: C_22  and  C_24
REMARK                            x       y       z     vdW  Elec       q    Type
REMARK                         _______ _______ _______ _____ _____    ______ ____
ROOT
ATOM      1  C   UNL     1      44.506   4.124  12.798  0.00  0.00    +0.000 C 
ATOM      2  C   UNL     1      45.668   5.120  12.908  0.00  0.00    +0.000 C 
ENDROOT
BRANCH   2   3
ATOM      3  C   UNL     1      45.233   6.510  12.456  0.00  0.00    +0.000 A 
ATOM      4  C   UNL     1      45.874   7.645  12.970  0.00  0.00    +0.000 A 
ATOM      5  C   UNL     1      45.515   8.934  12.546  0.00  0.00    +0.000 A 
ATOM      6  C   UNL     1      44.486   9.120  11.609  0.00  0.00    +0.000 A 
ATOM      7  C   UNL     1      43.864   7.987  11.084  0.00  0.00    +0.000 A 
ATOM      8  C   UNL     1      44.221   6.704  11.505  0.00  0.00    +0.000 A 
BRANCH   6   9
ATOM      9  C   UNL     1      43.992  10.481  11.189  0.00  0.00    +0.000 C 
BRANCH   9  10
ATOM     10  N   UNL     1      42.877  10.970  11.953  0.00  0.00    +0.000 N 
ATOM     11  C   UNL     1      41.581  10.860  11.483  0.00  0.00    +0.000 C 
ATOM     12  O   UNL     1      41.295  10.347  10.396  0.00  0.00    +0.000 OA
ATOM     13  H   UNL     1      42.972  11.144  12.950  0.00  0.00    +0.000 HD
BRANCH  11  14
ATOM     14  C   UNL     1      40.522  11.399  12.393  0.00  0.00    +0.000 A 
ATOM     15  C   UNL     1      39.175  11.199  12.097  0.00  0.00    +0.000 A 
ATOM     16  C   UNL     1      38.221  11.739  12.957  0.00  0.00    +0.000 A 
ATOM     17  C   UNL     1      38.638  12.452  14.075  0.00  0.00    +0.000 A 
ATOM     18  C   UNL     1      40.000  12.599  14.294  0.00  0.00    +0.000 A 
ATOM     19  N   UNL     1      40.955  12.089  13.484  0.00  0.00    +0.000 NA
ENDBRANCH  11  14
ENDBRANCH   9  10
ENDBRANCH   6   9
ENDBRANCH   2   3
BRANCH   2  20
ATOM     20  N   UNL     1      46.255   5.151  14.237  0.00  0.00    +0.000 N 
ATOM     21  C   UNL     1      47.076   4.142  14.702  0.00  0.00    +0.000 C 
ATOM     22  O   UNL     1      47.341   3.149  14.043  0.00  0.00    +0.000 OA
ATOM     23  H   UNL     1      45.871   5.801  14.911  0.00  0.00    +0.000 HD
BRANCH  21  24
ATOM     24  C   UNL     1      47.684   4.339  16.032  0.00  0.00    +0.000 A 
ATOM     25  C   UNL     1      47.372   3.467  17.066  0.00  0.00    +0.000 A 
ATOM     26  S   UNL     1      48.102   3.882  18.553  0.00  0.00    +0.000 S 
ATOM     27  C   UNL     1      48.832   5.257  17.869  0.00  0.00    +0.000 A 
ATOM     28  N   UNL     1      49.567   6.111  18.630  0.00  0.00    +0.000 NA
ATOM     29  C   UNL     1      50.016   7.140  17.992  0.00  0.00    +0.000 A 
ATOM     30  N   UNL     1      49.816   7.379  16.655  0.00  0.00    +0.000 N 
ATOM     31  C   UNL     1      49.142   6.509  15.835  0.00  0.00    +0.000 A 
ATOM     32  O   UNL     1      49.065   6.693  14.619  0.00  0.00    +0.000 OA
ATOM     33  C   UNL     1      48.564   5.369  16.515  0.00  0.00    +0.000 A 
ATOM     34  H   UNL     1      50.224   8.190  16.213  0.00  0.00    +0.000 HD
ENDBRANCH  21  24
ENDBRANCH   2  20
TORSDOF 6
ENDMDL
MODEL 5
REMARK VINA RESULT:    -7.237      1.866      2.459
REMARK INTER + INTRA:         -11.017
REMARK INTER:                  -9.862
REMARK INTRA:                  -1.155
REMARK UNBOUND:                -1.242
REMARK  Name = 
REMARK  7 active torsions:
REMARK  status: ('A' for Active; 'I' for Inactive)
REMARK    1  A    between atoms: C_1  and  C_2
REMARK    2  A    between atoms: C_2  and  N_3
REMARK    3  A    between atoms: C_2  and  C_16
REMARK    4  A    between atoms: C_4  and  C_6
REMARK    5  A    between atoms: C_19  and  C_20
REMARK    6  A    between atoms: C_20  and  N_21
REMARK    7  A    between atoms: C_22  and  C_24
REMARK                            x       y       z     vdW  Elec       q    Type
REMARK                         _______ _______ _______ _____ _____    ______ ____
ROOT
ATOM      1  C   UNL     1      47.610   9.986  13.214  0.00  0.00    +0.000 C 
ATOM      2  C   UNL     1      47.067   8.773  13.982  0.00  0.00    +0.000 C 
ENDROOT
BRANCH   2   3
ATOM      3  C   UNL     1      46.290   7.848  13.051  0.00  0.00    +0.000 A 
ATOM      4  C   UNL     1      45.226   8.355  12.292  0.00  0.00    +0.000 A 
ATOM      5  C   UNL     1      44.516   7.532  11.403  0.00  0.00    +0.000 A 
ATOM      6  C   UNL     1      44.839   6.172  11.269  0.00  0.00    +0.000 A 
ATOM      7  C   UNL     1      45.912   5.677  12.011  0.00  0.00    +0.000 A 
ATOM      8  C   UNL     1      46.620   6.495  12.895  0.00  0.00    +0.000 A 
BRANCH   6   9
ATOM      9  C   UNL     1      44.053   5.220  10.405  0.00  0.00    +0.000 C 
BRANCH   9  10
ATOM     10  N   UNL     1      44.829   4.556   9.395  0.00  0.00    +0.000 N 
ATOM     11  C   UNL     1      44.876   3.176   9.316  0.00  0.00    +0.000 C 
ATOM     12  O   UNL     1      44.269   2.432  10.093  0.00  0.00    +0.000 OA
ATOM     13  H   UNL     1      45.126   5.056   8.560  0.00  0.00    +0.000 HD
BRANCH  11  14
ATOM     14  C   UNL     1      45.712   2.626   8.204  0.00  0.00    +0.000 A 
ATOM     15  C   UNL     1      45.962   3.394   7.068  0.00  0.00    +0.000 A 
ATOM     16  C   UNL     1      46.724   2.837   6.045  0.00  0.00    +0.000 A 
ATOM     17  C   UNL     1      47.212   1.543   6.188  0.00  0.00    +0.000 A 
ATOM     18  C   UNL     1      46.918   0.851   7.354  0.00  0.00    +0.000 A 
ATOM     19  N   UNL     1      46.183   1.359   8.369  0.00  0.00    +0.000 NA
ENDBRANCH  11  14
ENDBRANCH   9  10
ENDBRANCH   6   9
ENDBRANCH   2   3
BRANCH   2  20
ATOM     20  N   UNL     1      48.105   8.056  14.703  0.00  0.00    +0.000 N 
ATOM     21  C   UNL     1      48.461   8.382  15.997  0.00  0.00    +0.000 C 
ATOM     22  O   UNL     1      47.951   9.306  16.611  0.00  0.00    +0.000 OA
ATOM     23  H   UNL     1      48.733   7.467  14.170  0.00  0.00    +0.000 HD
BRANCH  21  24
ATOM     24  C   UNL     1      49.463   7.517  16.650  0.00  0.00    +0.000 A 
ATOM     25  C   UNL     1      49.162   6.912  17.863  0.00  0.00    +0.000 A 
ATOM     26  S   UNL     1      50.456   6.008  18.514  0.00  0.00    +0.000 S 
ATOM     27  C   UNL     1      51.468   6.422  17.211  0.00  0.00    +0.000 A 
ATOM     28  N   UNL     1      52.765   6.015  17.176  0.00  0.00    +0.000 NA
ATOM     29  C   UNL     1      53.430   6.447  16.157  0.00  0.00    +0.000 A 
ATOM     30  N   UNL     1      52.907   7.229  15.157  0.00  0.00    +0.000 N 
ATOM     31  C   UNL     1      51.588   7.603  15.116  0.00  0.00    +0.000 A 
ATOM     32  O   UNL     1      51.118   8.216  14.156  0.00  0.00    +0.000 OA
ATOM     33  C   UNL     1      50.813   7.196  16.269  0.00  0.00    +0.000 A 
ATOM     34  H   UNL     1      53.478   7.505  14.371  0.00  0.00    +0.000 HD
ENDBRANCH  21  24
ENDBRANCH   2  20
TORSDOF 6
ENDMDL
MODEL 6
REMARK VINA RESULT:    -6.499      3.350      4.634
REMARK INTER + INTRA:         -10.020
REMARK INTER:                  -8.811
REMARK INTRA:                  -1.209
REMARK UNBOUND:                -1.242
REMARK  Name = 
REMARK  7 active torsions:
REMARK  status: ('A' for Active; 'I' for Inactive)
REMARK    1  A    between atoms: C_1  and  C_2
REMARK    2  A    between atoms: C_2  and  N_3
REMARK    3  A    between atoms: C_2  and  C_16
REMARK    4  A    between atoms: C_4  and  C_6
REMARK    5  A    between atoms: C_19  and  C_20
REMARK    6  A    between atoms: C_20  and  N_21
REMARK    7  A    between atoms: C_22  and  C_24
REMARK                            x       y       z     vdW  Elec       q    Type
REMARK                         _______ _______ _______ _____ _____    ______ ____
ROOT
ATOM      1  C   UNL     1      48.021   8.660  15.676  0.00  0.00    +0.000 C 
ATOM      2  C   UNL     1      48.673   7.700  14.671  0.00  0.00    +0.000 C 
ENDROOT
BRANCH   2   3
ATOM      3  C   UNL     1      47.648   7.201  13.658  0.00  0.00    +0.000 A 
ATOM      4  C   UNL     1      47.253   5.856  13.670  0.00  0.00    +0.000 A 
ATOM      5  C   UNL     1      46.288   5.378  12.769  0.00  0.00    +0.000 A 
ATOM      6  C   UNL     1      45.709   6.233  11.817  0.00  0.00    +0.000 A 
ATOM      7  C   UNL     1      46.090   7.574  11.823  0.00  0.00    +0.000 A 
ATOM      8  C   UNL     1      47.050   8.051  12.719  0.00  0.00    +0.000 A 
BRANCH   6   9
ATOM      9  C   UNL     1      44.741   5.757  10.765  0.00  0.00    +0.000 C 
BRANCH   9  10
ATOM     10  N   UNL     1      45.352   5.050   9.672  0.00  0.00    +0.000 N 
ATOM     11  C   UNL     1      45.119   3.702   9.469  0.00  0.00    +0.000 C 
ATOM     12  O   UNL     1      44.386   3.024  10.196  0.00  0.00    +0.000 OA
ATOM     13  H   UNL     1      45.731   5.558   8.877  0.00  0.00    +0.000 HD
BRANCH  11  14
ATOM     14  C   UNL     1      45.810   3.105   8.284  0.00  0.00    +0.000 A 
ATOM     15  C   UNL     1      46.168   1.758   8.286  0.00  0.00    +0.000 A 
ATOM     16  C   UNL     1      46.833   1.246   7.174  0.00  0.00    +0.000 A 
ATOM     17  C   UNL     1      47.113   2.087   6.103  0.00  0.00    +0.000 A 
ATOM     18  C   UNL     1      46.718   3.415   6.184  0.00  0.00    +0.000 A 
ATOM     19  N   UNL     1      46.069   3.946   7.245  0.00  0.00    +0.000 NA
ENDBRANCH  11  14
ENDBRANCH   9  10
ENDBRANCH   6   9
ENDBRANCH   2   3
BRANCH   2  20
ATOM     20  N   UNL     1      49.834   8.279  14.016  0.00  0.00    +0.000 N 
ATOM     21  C   UNL     1      51.123   8.012  14.433  0.00  0.00    +0.000 C 
ATOM     22  O   UNL     1      51.374   7.296  15.390  0.00  0.00    +0.000 OA
ATOM     23  H   UNL     1      49.687   9.068  13.400  0.00  0.00    +0.000 HD
BRANCH  21  24
ATOM     24  C   UNL     1      52.216   8.586  13.625  0.00  0.00    +0.000 A 
ATOM     25  C   UNL     1      53.256   9.258  14.253  0.00  0.00    +0.000 A 
ATOM     26  S   UNL     1      54.394   9.923  13.168  0.00  0.00    +0.000 S 
ATOM     27  C   UNL     1      53.516   9.361  11.824  0.00  0.00    +0.000 A 
ATOM     28  N   UNL     1      53.919   9.646  10.557  0.00  0.00    +0.000 NA
ATOM     29  C   UNL     1      53.130   9.202   9.637  0.00  0.00    +0.000 A 
ATOM     30  N   UNL     1      51.986   8.478   9.868  0.00  0.00    +0.000 N 
ATOM     31  C   UNL     1      51.582   8.107  11.126  0.00  0.00    +0.000 A 
ATOM     32  O   UNL     1      50.611   7.369  11.303  0.00  0.00    +0.000 OA
ATOM     33  C   UNL     1      52.400   8.633  12.199  0.00  0.00    +0.000 A 
ATOM     34  H   UNL     1      51.432   8.134   9.097  0.00  0.00    +0.000 HD
ENDBRANCH  21  24
ENDBRANCH   2  20
TORSDOF 6
ENDMDL
MODEL 7
REMARK VINA RESULT:    -6.386      5.791      7.792
REMARK INTER + INTRA:          -9.867
REMARK INTER:                  -8.815
REMARK INTRA:                  -1.052
REMARK UNBOUND:                -1.242
REMARK  Name = 
REMARK  7 active torsions:
REMARK  status: ('A' for Active; 'I' for Inactive)
REMARK    1  A    between atoms: C_1  and  C_2
REMARK    2  A    between atoms: C_2  and  N_3
REMARK    3  A    between atoms: C_2  and  C_16
REMARK    4  A    between atoms: C_4  and  C_6
REMARK    5  A    between atoms: C_19  and  C_20
REMARK    6  A    between atoms: C_20  and  N_21
REMARK    7  A    between atoms: C_22  and  C_24
REMARK                            x       y       z     vdW  Elec       q    Type
REMARK                         _______ _______ _______ _____ _____    ______ ____
ROOT
ATOM      1  C   UNL     1      51.355  10.928  11.186  0.00  0.00    +0.000 C 
ATOM      2  C   UNL     1      51.883   9.493  11.318  0.00  0.00    +0.000 C 
ENDROOT
BRANCH   2   3
ATOM      3  C   UNL     1      50.942   8.647  12.168  0.00  0.00    +0.000 A 
ATOM      4  C   UNL     1      51.133   8.568  13.555  0.00  0.00    +0.000 A 
ATOM      5  C   UNL     1      50.261   7.822  14.364  0.00  0.00    +0.000 A 
ATOM      6  C   UNL     1      49.186   7.117  13.800  0.00  0.00    +0.000 A 
ATOM      7  C   UNL     1      48.987   7.215  12.423  0.00  0.00    +0.000 A 
ATOM      8  C   UNL     1      49.854   7.957  11.617  0.00  0.00    +0.000 A 
BRANCH   6   9
ATOM      9  C   UNL     1      48.276   6.224  14.604  0.00  0.00    +0.000 C 
BRANCH   9  10
ATOM     10  N   UNL     1      47.026   5.920  13.963  0.00  0.00    +0.000 N 
ATOM     11  C   UNL     1      46.689   4.621  13.625  0.00  0.00    +0.000 C 
ATOM     12  O   UNL     1      47.423   3.652  13.844  0.00  0.00    +0.000 OA
ATOM     13  H   UNL     1      46.254   6.581  13.997  0.00  0.00    +0.000 HD
BRANCH  11  14
ATOM     14  C   UNL     1      45.350   4.455  12.978  0.00  0.00    +0.000 A 
ATOM     15  C   UNL     1      45.114   3.382  12.120  0.00  0.00    +0.000 A 
ATOM     16  C   UNL     1      43.863   3.277  11.518  0.00  0.00    +0.000 A 
ATOM     17  C   UNL     1      42.893   4.236  11.793  0.00  0.00    +0.000 A 
ATOM     18  C   UNL     1      43.213   5.268  12.662  0.00  0.00    +0.000 A 
ATOM     19  N   UNL     1      44.416   5.402  13.266  0.00  0.00    +0.000 NA
ENDBRANCH  11  14
ENDBRANCH   9  10
ENDBRANCH   6   9
ENDBRANCH   2   3
BRANCH   2  20
ATOM     20  N   UNL     1      52.146   8.872  10.031  0.00  0.00    +0.000 N 
ATOM     21  C   UNL     1      53.286   9.146   9.301  0.00  0.00    +0.000 C 
ATOM     22  O   UNL     1      54.133   9.943   9.671  0.00  0.00    +0.000 OA
ATOM     23  H   UNL     1      51.376   8.415   9.559  0.00  0.00    +0.000 HD
BRANCH  21  24
ATOM     24  C   UNL     1      53.478   8.377   8.056  0.00  0.00    +0.000 A 
ATOM     25  C   UNL     1      53.493   9.039   6.835  0.00  0.00    +0.000 A 
ATOM     26  S   UNL     1      53.650   7.994   5.494  0.00  0.00    +0.000 S 
ATOM     27  C   UNL     1      53.671   6.623   6.500  0.00  0.00    +0.000 A 
ATOM     28  N   UNL     1      53.726   5.371   5.974  0.00  0.00    +0.000 NA
ATOM     29  C   UNL     1      53.681   4.424   6.851  0.00  0.00    +0.000 A 
ATOM     30  N   UNL     1      53.609   4.618   8.208  0.00  0.00    +0.000 N 
ATOM     31  C   UNL     1      53.623   5.863   8.784  0.00  0.00    +0.000 A 
ATOM     32  O   UNL     1      53.664   6.010  10.007  0.00  0.00    +0.000 OA
ATOM     33  C   UNL     1      53.610   6.961   7.841  0.00  0.00    +0.000 A 
ATOM     34  H   UNL     1      53.610   3.829   8.839  0.00  0.00    +0.000 HD
ENDBRANCH  21  24
ENDBRANCH   2  20
TORSDOF 6
ENDMDL
MODEL 8
REMARK VINA RESULT:    -6.253      3.183      8.162
REMARK INTER + INTRA:          -9.688
REMARK INTER:                  -9.552
REMARK INTRA:                  -0.136
REMARK UNBOUND:                -1.242
REMARK  Name = 
REMARK  7 active torsions:
REMARK  status: ('A' for Active; 'I' for Inactive)
REMARK    1  A    between atoms: C_1  and  C_2
REMARK    2  A    between atoms: C_2  and  N_3
REMARK    3  A    between atoms: C_2  and  C_16
REMARK    4  A    between atoms: C_4  and  C_6
REMARK    5  A    between atoms: C_19  and  C_20
REMARK    6  A    between atoms: C_20  and  N_21
REMARK    7  A    between atoms: C_22  and  C_24
REMARK                            x       y       z     vdW  Elec       q    Type
REMARK                         _______ _______ _______ _____ _____    ______ ____
ROOT
ATOM      1  C   UNL     1      47.031   9.709  12.198  0.00  0.00    +0.000 C 
ATOM      2  C   UNL     1      48.025   8.541  12.140  0.00  0.00    +0.000 C 
ENDROOT
BRANCH   2   3
ATOM      3  C   UNL     1      48.608   8.258  13.520  0.00  0.00    +0.000 A 
ATOM      4  C   UNL     1      49.823   7.568  13.637  0.00  0.00    +0.000 A 
ATOM      5  C   UNL     1      50.397   7.324  14.895  0.00  0.00    +0.000 A 
ATOM      6  C   UNL     1      49.757   7.746  16.071  0.00  0.00    +0.000 A 
ATOM      7  C   UNL     1      48.559   8.449  15.949  0.00  0.00    +0.000 A 
ATOM      8  C   UNL     1      47.986   8.694  14.698  0.00  0.00    +0.000 A 
BRANCH   6   9
ATOM      9  C   UNL     1      50.275   7.428  17.450  0.00  0.00    +0.000 C 
BRANCH   9  10
ATOM     10  N   UNL     1      50.923   6.150  17.561  0.00  0.00    +0.000 N 
ATOM     11  C   UNL     1      50.207   4.971  17.453  0.00  0.00    +0.000 C 
ATOM     12  O   UNL     1      48.988   4.933  17.260  0.00  0.00    +0.000 OA
ATOM     13  H   UNL     1      51.929   6.069  17.438  0.00  0.00    +0.000 HD
BRANCH  11  14
ATOM     14  C   UNL     1      51.017   3.718  17.574  0.00  0.00    +0.000 A 
ATOM     15  C   UNL     1      52.319   3.770  18.068  0.00  0.00    +0.000 A 
ATOM     16  C   UNL     1      53.048   2.585  18.141  0.00  0.00    +0.000 A 
ATOM     17  C   UNL     1      52.457   1.396  17.727  0.00  0.00    +0.000 A 
ATOM     18  C   UNL     1      51.155   1.437  17.251  0.00  0.00    +0.000 A 
ATOM     19  N   UNL     1      50.416   2.566  17.167  0.00  0.00    +0.000 NA
ENDBRANCH  11  14
ENDBRANCH   9  10
ENDBRANCH   6   9
ENDBRANCH   2   3
BRANCH   2  20
ATOM     20  N   UNL     1      47.450   7.345  11.547  0.00  0.00    +0.000 N 
ATOM     21  C   UNL     1      46.134   6.980  11.758  0.00  0.00    +0.000 C 
ATOM     22  O   UNL     1      45.377   7.618  12.472  0.00  0.00    +0.000 OA
ATOM     23  H   UNL     1      48.082   6.651  11.169  0.00  0.00    +0.000 HD
BRANCH  21  24
ATOM     24  C   UNL     1      45.647   5.797  11.023  0.00  0.00    +0.000 A 
ATOM     25  C   UNL     1      45.842   5.711   9.651  0.00  0.00    +0.000 A 
ATOM     26  S   UNL     1      45.152   4.316   8.949  0.00  0.00    +0.000 S 
ATOM     27  C   UNL     1      44.543   3.800  10.451  0.00  0.00    +0.000 A 
ATOM     28  N   UNL     1      43.784   2.676  10.548  0.00  0.00    +0.000 NA
ATOM     29  C   UNL     1      43.345   2.434  11.738  0.00  0.00    +0.000 A 
ATOM     30  N   UNL     1      43.618   3.200  12.844  0.00  0.00    +0.000 N 
ATOM     31  C   UNL     1      44.437   4.300  12.804  0.00  0.00    +0.000 A 
ATOM     32  O   UNL     1      44.751   4.911  13.827  0.00  0.00    +0.000 OA
ATOM     33  C   UNL     1      44.905   4.652  11.480  0.00  0.00    +0.000 A 
ATOM     34  H   UNL     1      43.267   2.933  13.752  0.00  0.00    +0.000 HD
ENDBRANCH  21  24
ENDBRANCH   2  20
TORSDOF 6
ENDMDL
MODEL 9
REMARK VINA RESULT:    -6.119      1.974      2.979
REMARK INTER + INTRA:          -9.508
REMARK INTER:                  -8.266
REMARK INTRA:                  -1.242
REMARK UNBOUND:                -1.242
REMARK  Name = 
REMARK  7 active torsions:
REMARK  status: ('A' for Active; 'I' for Inactive)
REMARK    1  A    between atoms: C_1  and  C_2
REMARK    2  A    between atoms: C_2  and  N_3
REMARK    3  A    between atoms: C_2  and  C_16
REMARK    4  A    between atoms: C_4  and  C_6
REMARK    5  A    between atoms: C_19  and  C_20
REMARK    6  A    between atoms: C_20  and  N_21
REMARK    7  A    between atoms: C_22  and  C_24
REMARK                            x       y       z     vdW  Elec       q    Type
REMARK                         _______ _______ _______ _____ _____    ______ ____
ROOT
ATOM      1  C   UNL     1      52.324   8.892  13.224  0.00  0.00    +0.000 C 
ATOM      2  C   UNL     1      51.356   8.495  14.347  0.00  0.00    +0.000 C 
ENDROOT
BRANCH   2   3
ATOM      3  C   UNL     1      49.936   8.350  13.809  0.00  0.00    +0.000 A 
ATOM      4  C   UNL     1      49.729   7.966  12.477  0.00  0.00    +0.000 A 
ATOM      5  C   UNL     1      48.433   7.794  11.967  0.00  0.00    +0.000 A 
ATOM      6  C   UNL     1      47.308   8.024  12.775  0.00  0.00    +0.000 A 
ATOM      7  C   UNL     1      47.518   8.386  14.105  0.00  0.00    +0.000 A 
ATOM      8  C   UNL     1      48.808   8.556  14.614  0.00  0.00    +0.000 A 
BRANCH   6   9
ATOM      9  C   UNL     1      45.894   7.949  12.257  0.00  0.00    +0.000 C 
BRANCH   9  10
ATOM     10  N   UNL     1      45.665   6.895  11.307  0.00  0.00    +0.000 N 
ATOM     11  C   UNL     1      45.380   5.606  11.719  0.00  0.00    +0.000 C 
ATOM     12  O   UNL     1      45.305   5.275  12.907  0.00  0.00    +0.000 OA
ATOM     13  H   UNL     1      45.428   7.113  10.342  0.00  0.00    +0.000 HD
BRANCH  11  14
ATOM     14  C   UNL     1      45.150   4.618  10.619  0.00  0.00    +0.000 A 
ATOM     15  C   UNL     1      45.501   4.935   9.307  0.00  0.00    +0.000 A 
ATOM     16  C   UNL     1      45.248   3.999   8.308  0.00  0.00    +0.000 A 
ATOM     17  C   UNL     1      44.660   2.785   8.647  0.00  0.00    +0.000 A 
ATOM     18  C   UNL     1      44.345   2.552   9.978  0.00  0.00    +0.000 A 
ATOM     19  N   UNL     1      44.578   3.435  10.975  0.00  0.00    +0.000 NA
ENDBRANCH  11  14
ENDBRANCH   9  10
ENDBRANCH   6   9
ENDBRANCH   2   3
BRANCH   2  20
ATOM     20  N   UNL     1      51.783   7.301  15.058  0.00  0.00    +0.000 N 
ATOM     21  C   UNL     1      51.757   7.218  16.436  0.00  0.00    +0.000 C 
ATOM     22  O   UNL     1      51.402   8.144  17.148  0.00  0.00    +0.000 OA
ATOM     23  H   UNL     1      52.323   6.613  14.549  0.00  0.00    +0.000 HD
BRANCH  21  24
ATOM     24  C   UNL     1      52.125   5.919  17.031  0.00  0.00    +0.000 A 
ATOM     25  C   UNL     1      53.438   5.689  17.421  0.00  0.00    +0.000 A 
ATOM     26  S   UNL     1      53.706   4.113  18.019  0.00  0.00    +0.000 S 
ATOM     27  C   UNL     1      52.085   3.678  17.745  0.00  0.00    +0.000 A 
ATOM     28  N   UNL     1      51.649   2.413  17.990  0.00  0.00    +0.000 NA
ATOM     29  C   UNL     1      50.411   2.210  17.686  0.00  0.00    +0.000 A 
ATOM     30  N   UNL     1      49.563   3.165  17.182  0.00  0.00    +0.000 N 
ATOM     31  C   UNL     1      49.941   4.469  16.986  0.00  0.00    +0.000 A 
ATOM     32  O   UNL     1      49.135   5.331  16.632  0.00  0.00    +0.000 OA
ATOM     33  C   UNL     1      51.339   4.735  17.253  0.00  0.00    +0.000 A 
ATOM     34  H   UNL     1      48.595   2.944  16.996  0.00  0.00    +0.000 HD
ENDBRANCH  21  24
ENDBRANCH   2  20
TORSDOF 6
ENDMDL
