MODEL 1
REMARK VINA RESULT:    -7.409      0.000      0.000
REMARK INTER + INTRA:         -10.110
REMARK INTER:                  -9.791
REMARK INTRA:                  -0.319
REMARK UNBOUND:                -0.319
REMARK  Name = 
REMARK  7 active torsions:
REMARK  status: ('A' for Active; 'I' for Inactive)
REMARK    1  A    between atoms: C_1  and  N_2
REMARK    2  A    between atoms: C_4  and  C_5
REMARK    3  A    between atoms: N_7  and  C_8
REMARK    4  A    between atoms: C_8  and  C_9
REMARK    5  A    between atoms: N_12  and  C_13
REMARK    6  A    between atoms: C_13  and  C_14
REMARK    7  A    between atoms: C_14  and  O_15
REMARK                            x       y       z     vdW  Elec       q    Type
REMARK                         _______ _______ _______ _____ _____    ______ ____
ROOT
ATOM      1  C   UNL     1      45.990   4.904  12.738  0.00  0.00    +0.000 C 
ATOM      2  O   UNL     1      45.782   4.260  13.764  0.00  0.00    +0.000 OA
ATOM      3  N   UNL     1      45.489   4.501  11.515  0.00  0.00    +0.000 N 
ATOM      4  H   UNL     1      45.798   4.994  10.687  0.00  0.00    +0.000 HD
ENDROOT
BRANCH   1   8
ATOM      5  C   UNL     1      49.796   7.913  13.574  0.00  0.00    +0.000 C 
ATOM      6  N   UNL     1      48.453   7.508  13.218  0.00  0.00    +0.000 N 
ATOM      7  C   UNL     1      48.017   6.222  13.200  0.00  0.00    +0.000 A 
ATOM      8  C   UNL     1      46.693   6.186  12.783  0.00  0.00    +0.000 A 
ATOM      9  C   UNL     1      46.337   7.551  12.461  0.00  0.00    +0.000 A 
ATOM     10  C   UNL     1      45.247   8.240  11.896  0.00  0.00    +0.000 A 
ATOM     11 CL   UNL     1      43.944   7.358  11.245  0.00  0.00    +0.000 Cl
ATOM     12  C   UNL     1      45.295   9.624  11.817  0.00  0.00    +0.000 A 
ATOM     13  N   UNL     1      46.337  10.372  12.235  0.00  0.00    +0.000 NA
ATOM     14  C   UNL     1      47.428   9.744  12.723  0.00  0.00    +0.000 A 
ATOM     15  C   UNL     1      47.442   8.352  12.820  0.00  0.00    +0.000 A 
ENDBRANCH   1   8
BRANCH   3  16
ATOM     16  C   UNL     1      44.858   3.202  11.363  0.00  0.00    +0.000 C 
BRANCH  16  17
ATOM     17  C   UNL     1      44.074   3.030  10.047  0.00  0.00    +0.000 C 
ATOM     18  C   UNL     1      44.451   1.780   9.238  0.00  0.00    +0.000 C 
ATOM     19  C   UNL     1      45.792   1.893   8.501  0.00  0.00    +0.000 C 
ATOM     20  N   UNL     1      45.858   3.100   7.656  0.00  0.00    +0.000 NA
ATOM     21  C   UNL     1      45.640   4.302   8.481  0.00  0.00    +0.000 C 
ATOM     22  C   UNL     1      44.263   4.268   9.151  0.00  0.00    +0.000 C 
BRANCH  20  23
ATOM     23  C   UNL     1      47.165   3.217   6.961  0.00  0.00    +0.000 C 
BRANCH  23  24
ATOM     24  C   UNL     1      47.945   1.894   6.861  0.00  0.00    +0.000 C 
BRANCH  24  25
ATOM     25  O   UNL     1      48.603   1.793   5.605  0.00  0.00    +0.000 OA
ATOM     26  H   UNL     1      49.409   2.340   5.692  0.00  0.00    +0.000 HD
ENDBRANCH  24  25
ENDBRANCH  23  24
ENDBRANCH  20  23
ENDBRANCH  16  17
ENDBRANCH   3  16
TORSDOF 6
ENDMDL
MODEL 2
REMARK VINA RESULT:    -7.188      1.464      2.456
REMARK INTER + INTRA:          -9.818
REMARK INTER:                  -9.417
REMARK INTRA:                  -0.401
REMARK UNBOUND:                -0.319
REMARK  Name = 
REMARK  7 active torsions:
REMARK  status: ('A' for Active; 'I' for Inactive)
REMARK    1  A    between atoms: C_1  and  N_2
REMARK    2  A    between atoms: C_4  and  C_5
REMARK    3  A    between atoms: N_7  and  C_8
REMARK    4  A    between atoms: C_8  and  C_9
REMARK    5  A    between atoms: N_12  and  C_13
REMARK    6  A    between atoms: C_13  and  C_14
REMARK    7  A    between atoms: C_14  and  O_15
REMARK                            x       y       z     vdW  Elec       q    Type
REMARK                         _______ _______ _______ _____ _____    ______ ____
ROOT
ATOM      1  C   UNL     1      44.951   5.947  12.435  0.00  0.00    +0.000 C 
ATOM      2  O   UNL     1      43.995   5.658  13.151  0.00  0.00    +0.000 OA
ATOM      3  N   UNL     1      45.449   5.062  11.498  0.00  0.00    +0.000 N 
ATOM      4  H   UNL     1      46.314   5.300  11.029  0.00  0.00    +0.000 HD
ENDROOT
BRANCH   1   8
ATOM      5  C   UNL     1      45.180  10.785  11.553  0.00  0.00    +0.000 C 
ATOM      6  N   UNL     1      45.603   9.479  12.009  0.00  0.00    +0.000 N 
ATOM      7  C   UNL     1      44.852   8.350  11.913  0.00  0.00    +0.000 A 
ATOM      8  C   UNL     1      45.543   7.285  12.473  0.00  0.00    +0.000 A 
ATOM      9  C   UNL     1      46.770   7.836  13.005  0.00  0.00    +0.000 A 
ATOM     10  C   UNL     1      47.864   7.399  13.777  0.00  0.00    +0.000 A 
ATOM     11 CL   UNL     1      47.840   5.838  14.456  0.00  0.00    +0.000 Cl
ATOM     12  C   UNL     1      48.906   8.280  14.025  0.00  0.00    +0.000 A 
ATOM     13  N   UNL     1      48.942   9.555  13.587  0.00  0.00    +0.000 NA
ATOM     14  C   UNL     1      47.882  10.032  12.900  0.00  0.00    +0.000 A 
ATOM     15  C   UNL     1      46.799   9.195  12.626  0.00  0.00    +0.000 A 
ENDBRANCH   1   8
BRANCH   3  16
ATOM     16  C   UNL     1      44.981   3.688  11.452  0.00  0.00    +0.000 C 
BRANCH  16  17
ATOM     17  C   UNL     1      44.115   3.355  10.221  0.00  0.00    +0.000 C 
ATOM     18  C   UNL     1      44.444   2.011   9.555  0.00  0.00    +0.000 C 
ATOM     19  C   UNL     1      45.735   2.023   8.725  0.00  0.00    +0.000 C 
ATOM     20  N   UNL     1      45.742   3.113   7.732  0.00  0.00    +0.000 NA
ATOM     21  C   UNL     1      45.574   4.411   8.410  0.00  0.00    +0.000 C 
ATOM     22  C   UNL     1      44.243   4.469   9.166  0.00  0.00    +0.000 C 
BRANCH  20  23
ATOM     23  C   UNL     1      47.002   3.134   6.946  0.00  0.00    +0.000 C 
BRANCH  23  24
ATOM     24  C   UNL     1      47.734   1.782   6.893  0.00  0.00    +0.000 C 
BRANCH  24  25
ATOM     25  O   UNL     1      48.537   1.691   5.723  0.00  0.00    +0.000 OA
ATOM     26  H   UNL     1      49.454   1.830   6.029  0.00  0.00    +0.000 HD
ENDBRANCH  24  25
ENDBRANCH  23  24
ENDBRANCH  20  23
ENDBRANCH  16  17
ENDBRANCH   3  16
TORSDOF 6
ENDMDL
MODEL 3
REMARK VINA RESULT:    -6.968      1.946      2.841
REMARK INTER + INTRA:          -9.528
REMARK INTER:                  -9.337
REMARK INTRA:                  -0.190
REMARK UNBOUND:                -0.319
REMARK  Name = 
REMARK  7 active torsions:
REMARK  status: ('A' for Active; 'I' for Inactive)
REMARK    1  A    between atoms: C_1  and  N_2
REMARK    2  A    between atoms: C_4  and  C_5
REMARK    3  A    between atoms: N_7  and  C_8
REMARK    4  A    between atoms: C_8  and  C_9
REMARK    5  A    between atoms: N_12  and  C_13
REMARK    6  A    between atoms: C_13  and  C_14
REMARK    7  A    between atoms: C_14  and  O_15
REMARK                            x       y       z     vdW  Elec       q    Type
REMARK                         _______ _______ _______ _____ _____    ______ ____
ROOT
ATOM      1  C   UNL     1      46.446   4.185  12.939  0.00  0.00    +0.000 C 
ATOM      2  O   UNL     1      46.754   3.163  13.548  0.00  0.00    +0.000 OA
ATOM      3  N   UNL     1      45.478   4.176  11.952  0.00  0.00    +0.000 N 
ATOM      4  H   UNL     1      45.357   5.012  11.395  0.00  0.00    +0.000 HD
ENDROOT
BRANCH   1   8
ATOM      5  C   UNL     1      47.605   8.924  12.285  0.00  0.00    +0.000 C 
ATOM      6  N   UNL     1      47.548   7.629  12.927  0.00  0.00    +0.000 N 
ATOM      7  C   UNL     1      46.903   6.546  12.419  0.00  0.00    +0.000 A 
ATOM      8  C   UNL     1      47.019   5.481  13.301  0.00  0.00    +0.000 A 
ATOM      9  C   UNL     1      47.728   5.990  14.454  0.00  0.00    +0.000 A 
ATOM     10  C   UNL     1      48.098   5.539  15.737  0.00  0.00    +0.000 A 
ATOM     11 CL   UNL     1      47.527   4.034  16.293  0.00  0.00    +0.000 Cl
ATOM     12  C   UNL     1      48.861   6.367  16.546  0.00  0.00    +0.000 A 
ATOM     13  N   UNL     1      49.269   7.604  16.195  0.00  0.00    +0.000 NA
ATOM     14  C   UNL     1      48.881   8.098  15.000  0.00  0.00    +0.000 A 
ATOM     15  C   UNL     1      48.105   7.314  14.145  0.00  0.00    +0.000 A 
ENDBRANCH   1   8
BRANCH   3  16
ATOM     16  C   UNL     1      44.922   2.924  11.468  0.00  0.00    +0.000 C 
BRANCH  16  17
ATOM     17  C   UNL     1      44.121   3.052  10.157  0.00  0.00    +0.000 C 
ATOM     18  C   UNL     1      44.329   1.896   9.168  0.00  0.00    +0.000 C 
ATOM     19  C   UNL     1      45.673   1.938   8.429  0.00  0.00    +0.000 C 
ATOM     20  N   UNL     1      45.898   3.236   7.767  0.00  0.00    +0.000 NA
ATOM     21  C   UNL     1      45.843   4.322   8.762  0.00  0.00    +0.000 C 
ATOM     22  C   UNL     1      44.474   4.373   9.448  0.00  0.00    +0.000 C 
BRANCH  20  23
ATOM     23  C   UNL     1      47.209   3.281   7.071  0.00  0.00    +0.000 C 
BRANCH  23  24
ATOM     24  C   UNL     1      47.866   1.903   6.878  0.00  0.00    +0.000 C 
BRANCH  24  25
ATOM     25  O   UNL     1      48.518   1.829   5.617  0.00  0.00    +0.000 OA
ATOM     26  H   UNL     1      49.398   1.448   5.803  0.00  0.00    +0.000 HD
ENDBRANCH  24  25
ENDBRANCH  23  24
ENDBRANCH  20  23
ENDBRANCH  16  17
ENDBRANCH   3  16
TORSDOF 6
ENDMDL
MODEL 4
REMARK VINA RESULT:    -6.834      4.064      7.315
REMARK INTER + INTRA:          -9.350
REMARK INTER:                  -8.668
REMARK INTRA:                  -0.682
REMARK UNBOUND:                -0.319
REMARK  Name = 
REMARK  7 active torsions:
REMARK  status: ('A' for Active; 'I' for Inactive)
REMARK    1  A    between atoms: C_1  and  N_2
REMARK    2  A    between atoms: C_4  and  C_5
REMARK    3  A    between atoms: N_7  and  C_8
REMARK    4  A    between atoms: C_8  and  C_9
REMARK    5  A    between atoms: N_12  and  C_13
REMARK    6  A    between atoms: C_13  and  C_14
REMARK    7  A    between atoms: C_14  and  O_15
REMARK                            x       y       z     vdW  Elec       q    Type
REMARK                         _______ _______ _______ _____ _____    ______ ____
ROOT
ATOM      1  C   UNL     1      47.726   6.374  13.586  0.00  0.00    +0.000 C 
ATOM      2  O   UNL     1      48.776   6.142  12.991  0.00  0.00    +0.000 OA
ATOM      3  N   UNL     1      47.698   6.591  14.951  0.00  0.00    +0.000 N 
ATOM      4  H   UNL     1      46.797   6.647  15.407  0.00  0.00    +0.000 HD
ENDROOT
BRANCH   1   8
ATOM      5  C   UNL     1      44.250   8.823  11.105  0.00  0.00    +0.000 C 
ATOM      6  N   UNL     1      44.903   7.714  11.765  0.00  0.00    +0.000 N 
ATOM      7  C   UNL     1      46.128   7.779  12.350  0.00  0.00    +0.000 A 
ATOM      8  C   UNL     1      46.466   6.533  12.858  0.00  0.00    +0.000 A 
ATOM      9  C   UNL     1      45.391   5.641  12.485  0.00  0.00    +0.000 A 
ATOM     10  C   UNL     1      45.104   4.264  12.553  0.00  0.00    +0.000 A 
ATOM     11 CL   UNL     1      46.305   3.184  13.093  0.00  0.00    +0.000 Cl
ATOM     12  C   UNL     1      43.871   3.811  12.109  0.00  0.00    +0.000 A 
ATOM     13  N   UNL     1      42.913   4.607  11.591  0.00  0.00    +0.000 NA
ATOM     14  C   UNL     1      43.174   5.924  11.448  0.00  0.00    +0.000 A 
ATOM     15  C   UNL     1      44.401   6.437  11.870  0.00  0.00    +0.000 A 
ENDBRANCH   1   8
BRANCH   3  16
ATOM     16  C   UNL     1      48.882   6.367  15.762  0.00  0.00    +0.000 C 
BRANCH  16  17
ATOM     17  C   UNL     1      48.597   5.725  17.134  0.00  0.00    +0.000 C 
ATOM     18  C   UNL     1      49.852   5.343  17.933  0.00  0.00    +0.000 C 
ATOM     19  C   UNL     1      50.563   4.085  17.418  0.00  0.00    +0.000 C 
ATOM     20  N   UNL     1      49.644   2.936  17.311  0.00  0.00    +0.000 NA
ATOM     21  C   UNL     1      48.521   3.274  16.418  0.00  0.00    +0.000 C 
ATOM     22  C   UNL     1      47.726   4.467  16.959  0.00  0.00    +0.000 C 
BRANCH  20  23
ATOM     23  C   UNL     1      50.331   1.726  16.792  0.00  0.00    +0.000 C 
BRANCH  23  24
ATOM     24  C   UNL     1      51.677   1.425  17.475  0.00  0.00    +0.000 C 
BRANCH  24  25
ATOM     25  O   UNL     1      51.584   0.251  18.272  0.00  0.00    +0.000 OA
ATOM     26  H   UNL     1      50.658  -0.047  18.184  0.00  0.00    +0.000 HD
ENDBRANCH  24  25
ENDBRANCH  23  24
ENDBRANCH  20  23
ENDBRANCH  16  17
ENDBRANCH   3  16
TORSDOF 6
ENDMDL
MODEL 5
REMARK VINA RESULT:    -6.808      3.693      4.798
REMARK INTER + INTRA:          -9.316
REMARK INTER:                  -8.854
REMARK INTRA:                  -0.462
REMARK UNBOUND:                -0.319
REMARK  Name = 
REMARK  7 active torsions:
REMARK  status: ('A' for Active; 'I' for Inactive)
REMARK    1  A    between atoms: C_1  and  N_2
REMARK    2  A    between atoms: C_4  and  C_5
REMARK    3  A    between atoms: N_7  and  C_8
REMARK    4  A    between atoms: C_8  and  C_9
REMARK    5  A    between atoms: N_12  and  C_13
REMARK    6  A    between atoms: C_13  and  C_14
REMARK    7  A    between atoms: C_14  and  O_15
REMARK                            x       y       z     vdW  Elec       q    Type
REMARK                         _______ _______ _______ _____ _____    ______ ____
ROOT
ATOM      1  C   UNL     1      47.223   4.366  14.651  0.00  0.00    +0.000 C 
ATOM      2  O   UNL     1      47.488   3.171  14.543  0.00  0.00    +0.000 OA
ATOM      3  N   UNL     1      46.186   4.945  13.944  0.00  0.00    +0.000 N 
ATOM      4  H   UNL     1      46.094   5.952  13.971  0.00  0.00    +0.000 HD
ENDROOT
BRANCH   1   8
ATOM      5  C   UNL     1      49.539   8.417  16.220  0.00  0.00    +0.000 C 
ATOM      6  N   UNL     1      49.006   7.072  16.255  0.00  0.00    +0.000 N 
ATOM      7  C   UNL     1      48.324   6.487  15.236  0.00  0.00    +0.000 A 
ATOM      8  C   UNL     1      47.929   5.211  15.613  0.00  0.00    +0.000 A 
ATOM      9  C   UNL     1      48.349   5.051  16.988  0.00  0.00    +0.000 A 
ATOM     10  C   UNL     1      48.204   4.105  18.022  0.00  0.00    +0.000 A 
ATOM     11 CL   UNL     1      47.175   2.768  17.795  0.00  0.00    +0.000 Cl
ATOM     12  C   UNL     1      48.848   4.326  19.230  0.00  0.00    +0.000 A 
ATOM     13  N   UNL     1      49.605   5.410  19.499  0.00  0.00    +0.000 NA
ATOM     14  C   UNL     1      49.716   6.370  18.557  0.00  0.00    +0.000 A 
ATOM     15  C   UNL     1      49.084   6.209  17.323  0.00  0.00    +0.000 A 
ENDBRANCH   1   8
BRANCH   3  16
ATOM     16  C   UNL     1      45.490   4.204  12.906  0.00  0.00    +0.000 C 
BRANCH  16  17
ATOM     17  C   UNL     1      44.428   5.024  12.148  0.00  0.00    +0.000 C 
ATOM     18  C   UNL     1      43.321   4.184  11.494  0.00  0.00    +0.000 C 
ATOM     19  C   UNL     1      43.762   3.452  10.219  0.00  0.00    +0.000 C 
ATOM     20  N   UNL     1      44.368   4.369   9.237  0.00  0.00    +0.000 NA
ATOM     21  C   UNL     1      45.523   5.057   9.840  0.00  0.00    +0.000 C 
ATOM     22  C   UNL     1      45.098   5.883  11.060  0.00  0.00    +0.000 C 
BRANCH  20  23
ATOM     23  C   UNL     1      44.812   3.654   8.014  0.00  0.00    +0.000 C 
BRANCH  23  24
ATOM     24  C   UNL     1      46.339   3.604   7.833  0.00  0.00    +0.000 C 
BRANCH  24  25
ATOM     25  O   UNL     1      46.722   4.243   6.622  0.00  0.00    +0.000 OA
ATOM     26  H   UNL     1      45.917   4.253   6.070  0.00  0.00    +0.000 HD
ENDBRANCH  24  25
ENDBRANCH  23  24
ENDBRANCH  20  23
ENDBRANCH  16  17
ENDBRANCH   3  16
TORSDOF 6
ENDMDL
MODEL 6
REMARK VINA RESULT:    -6.720      3.423      4.333
REMARK INTER + INTRA:          -9.200
REMARK INTER:                  -8.680
REMARK INTRA:                  -0.520
REMARK UNBOUND:                -0.319
REMARK  Name = 
REMARK  7 active torsions:
REMARK  status: ('A' for Active; 'I' for Inactive)
REMARK    1  A    between atoms: C_1  and  N_2
REMARK    2  A    between atoms: C_4  and  C_5
REMARK    3  A    between atoms: N_7  and  C_8
REMARK    4  A    between atoms: C_8  and  C_9
REMARK    5  A    between atoms: N_12  and  C_13
REMARK    6  A    between atoms: C_13  and  C_14
REMARK    7  A    between atoms: C_14  and  O_15
REMARK                            x       y       z     vdW  Elec       q    Type
REMARK                         _______ _______ _______ _____ _____    ______ ____
ROOT
ATOM      1  C   UNL     1      47.292   4.027  15.021  0.00  0.00    +0.000 C 
ATOM      2  O   UNL     1      47.626   2.864  14.806  0.00  0.00    +0.000 OA
ATOM      3  N   UNL     1      46.328   4.657  14.256  0.00  0.00    +0.000 N 
ATOM      4  H   UNL     1      46.185   5.650  14.391  0.00  0.00    +0.000 HD
ENDROOT
BRANCH   1   8
ATOM      5  C   UNL     1      48.416   4.782  19.754  0.00  0.00    +0.000 C 
ATOM      6  N   UNL     1      48.280   5.064  18.341  0.00  0.00    +0.000 N 
ATOM      7  C   UNL     1      47.786   4.190  17.426  0.00  0.00    +0.000 A 
ATOM      8  C   UNL     1      47.826   4.766  16.164  0.00  0.00    +0.000 A 
ATOM      9  C   UNL     1      48.458   6.057  16.332  0.00  0.00    +0.000 A 
ATOM     10  C   UNL     1      48.918   7.109  15.517  0.00  0.00    +0.000 A 
ATOM     11 CL   UNL     1      48.914   6.922  13.825  0.00  0.00    +0.000 Cl
ATOM     12  C   UNL     1      49.434   8.248  16.118  0.00  0.00    +0.000 A 
ATOM     13  N   UNL     1      49.545   8.418  17.451  0.00  0.00    +0.000 NA
ATOM     14  C   UNL     1      49.175   7.407  18.265  0.00  0.00    +0.000 A 
ATOM     15  C   UNL     1      48.656   6.232  17.719  0.00  0.00    +0.000 A 
ENDBRANCH   1   8
BRANCH   3  16
ATOM     16  C   UNL     1      45.810   4.032  13.052  0.00  0.00    +0.000 C 
BRANCH  16  17
ATOM     17  C   UNL     1      44.535   4.695  12.493  0.00  0.00    +0.000 C 
ATOM     18  C   UNL     1      43.528   3.717  11.871  0.00  0.00    +0.000 C 
ATOM     19  C   UNL     1      43.939   3.190  10.489  0.00  0.00    +0.000 C 
ATOM     20  N   UNL     1      44.250   4.284   9.551  0.00  0.00    +0.000 NA
ATOM     21  C   UNL     1      45.326   5.126  10.103  0.00  0.00    +0.000 C 
ATOM     22  C   UNL     1      44.907   5.752  11.437  0.00  0.00    +0.000 C 
BRANCH  20  23
ATOM     23  C   UNL     1      44.668   3.769   8.222  0.00  0.00    +0.000 C 
BRANCH  23  24
ATOM     24  C   UNL     1      46.187   3.577   8.071  0.00  0.00    +0.000 C 
BRANCH  24  25
ATOM     25  O   UNL     1      46.678   4.314   6.959  0.00  0.00    +0.000 OA
ATOM     26  H   UNL     1      47.583   4.583   7.207  0.00  0.00    +0.000 HD
ENDBRANCH  24  25
ENDBRANCH  23  24
ENDBRANCH  20  23
ENDBRANCH  16  17
ENDBRANCH   3  16
TORSDOF 6
ENDMDL
MODEL 7
REMARK VINA RESULT:    -6.243      4.465      8.385
REMARK INTER + INTRA:          -8.570
REMARK INTER:                  -8.047
REMARK INTRA:                  -0.523
REMARK UNBOUND:                -0.319
REMARK  Name = 
REMARK  7 active torsions:
REMARK  status: ('A' for Active; 'I' for Inactive)
REMARK    1  A    between atoms: C_1  and  N_2
REMARK    2  A    between atoms: C_4  and  C_5
REMARK    3  A    between atoms: N_7  and  C_8
REMARK    4  A    between atoms: C_8  and  C_9
REMARK    5  A    between atoms: N_12  and  C_13
REMARK    6  A    between atoms: C_13  and  C_14
REMARK    7  A    between atoms: C_14  and  O_15
REMARK                            x       y       z     vdW  Elec       q    Type
REMARK                         _______ _______ _______ _____ _____    ______ ____
ROOT
ATOM      1  C   UNL     1      47.555   6.108  13.654  0.00  0.00    +0.000 C 
ATOM      2  O   UNL     1      48.666   6.218  13.139  0.00  0.00    +0.000 OA
ATOM      3  N   UNL     1      47.404   5.814  14.996  0.00  0.00    +0.000 N 
ATOM      4  H   UNL     1      46.474   5.607  15.337  0.00  0.00    +0.000 HD
ENDROOT
BRANCH   1   8
ATOM      5  C   UNL     1      44.327   8.905  11.207  0.00  0.00    +0.000 C 
ATOM      6  N   UNL     1      44.890   7.720  11.816  0.00  0.00    +0.000 N 
ATOM      7  C   UNL     1      46.090   7.678  12.454  0.00  0.00    +0.000 A 
ATOM      8  C   UNL     1      46.339   6.384  12.889  0.00  0.00    +0.000 A 
ATOM      9  C   UNL     1      45.235   5.580  12.413  0.00  0.00    +0.000 A 
ATOM     10  C   UNL     1      44.873   4.220  12.375  0.00  0.00    +0.000 A 
ATOM     11 CL   UNL     1      45.990   3.041  12.888  0.00  0.00    +0.000 Cl
ATOM     12  C   UNL     1      43.638   3.867  11.852  0.00  0.00    +0.000 A 
ATOM     13  N   UNL     1      42.748   4.747  11.351  0.00  0.00    +0.000 NA
ATOM     14  C   UNL     1      43.084   6.054  11.309  0.00  0.00    +0.000 A 
ATOM     15  C   UNL     1      44.317   6.469  11.814  0.00  0.00    +0.000 A 
ENDBRANCH   1   8
BRANCH   3  16
ATOM     16  C   UNL     1      48.548   5.439  15.808  0.00  0.00    +0.000 C 
BRANCH  16  17
ATOM     17  C   UNL     1      48.267   4.305  16.812  0.00  0.00    +0.000 C 
ATOM     18  C   UNL     1      47.056   4.546  17.725  0.00  0.00    +0.000 C 
ATOM     19  C   UNL     1      47.309   5.564  18.845  0.00  0.00    +0.000 C 
ATOM     20  N   UNL     1      48.501   5.223  19.642  0.00  0.00    +0.000 NA
ATOM     21  C   UNL     1      49.684   5.142  18.766  0.00  0.00    +0.000 C 
ATOM     22  C   UNL     1      49.504   4.060  17.696  0.00  0.00    +0.000 C 
BRANCH  20  23
ATOM     23  C   UNL     1      48.755   6.221  20.711  0.00  0.00    +0.000 C 
BRANCH  23  24
ATOM     24  C   UNL     1      48.234   5.805  22.098  0.00  0.00    +0.000 C 
BRANCH  24  25
ATOM     25  O   UNL     1      47.585   4.542  22.032  0.00  0.00    +0.000 OA
ATOM     26  H   UNL     1      46.633   4.746  21.956  0.00  0.00    +0.000 HD
ENDBRANCH  24  25
ENDBRANCH  23  24
ENDBRANCH  20  23
ENDBRANCH  16  17
ENDBRANCH   3  16
TORSDOF 6
ENDMDL
MODEL 8
REMARK VINA RESULT:    -6.135      4.130      7.428
REMARK INTER + INTRA:          -8.427
REMARK INTER:                  -7.746
REMARK INTRA:                  -0.681
REMARK UNBOUND:                -0.319
REMARK  Name = 
REMARK  7 active torsions:
REMARK  status: ('A' for Active; 'I' for Inactive)
REMARK    1  A    between atoms: C_1  and  N_2
REMARK    2  A    between atoms: C_4  and  C_5
REMARK    3  A    between atoms: N_7  and  C_8
REMARK    4  A    between atoms: C_8  and  C_9
REMARK    5  A    between atoms: N_12  and  C_13
REMARK    6  A    between atoms: C_13  and  C_14
REMARK    7  A    between atoms: C_14  and  O_15
REMARK                            x       y       z     vdW  Elec       q    Type
REMARK                         _______ _______ _______ _____ _____    ______ ____
ROOT
ATOM      1  C   UNL     1      46.620   4.257  14.172  0.00  0.00    +0.000 C 
ATOM      2  O   UNL     1      47.419   3.515  13.603  0.00  0.00    +0.000 OA
ATOM      3  N   UNL     1      46.607   4.388  15.548  0.00  0.00    +0.000 N 
ATOM      4  H   UNL     1      45.848   4.908  15.970  0.00  0.00    +0.000 HD
ENDROOT
BRANCH   1   8
ATOM      5  C   UNL     1      42.474   5.405  11.779  0.00  0.00    +0.000 C 
ATOM      6  N   UNL     1      43.814   5.562  12.302  0.00  0.00    +0.000 N 
ATOM      7  C   UNL     1      44.465   4.629  13.045  0.00  0.00    +0.000 A 
ATOM      8  C   UNL     1      45.713   5.114  13.409  0.00  0.00    +0.000 A 
ATOM      9  C   UNL     1      45.781   6.468  12.904  0.00  0.00    +0.000 A 
ATOM     10  C   UNL     1      46.657   7.569  12.980  0.00  0.00    +0.000 A 
ATOM     11 CL   UNL     1      48.006   7.497  14.015  0.00  0.00    +0.000 Cl
ATOM     12  C   UNL     1      46.356   8.717  12.262  0.00  0.00    +0.000 A 
ATOM     13  N   UNL     1      45.257   8.865  11.494  0.00  0.00    +0.000 NA
ATOM     14  C   UNL     1      44.361   7.857  11.446  0.00  0.00    +0.000 A 
ATOM     15  C   UNL     1      44.604   6.679  12.154  0.00  0.00    +0.000 A 
ENDBRANCH   1   8
BRANCH   3  16
ATOM     16  C   UNL     1      47.409   3.514  16.385  0.00  0.00    +0.000 C 
BRANCH  16  17
ATOM     17  C   UNL     1      47.788   4.119  17.751  0.00  0.00    +0.000 C 
ATOM     18  C   UNL     1      48.240   5.585  17.696  0.00  0.00    +0.000 C 
ATOM     19  C   UNL     1      49.657   5.784  17.141  0.00  0.00    +0.000 C 
ATOM     20  N   UNL     1      50.649   4.960  17.855  0.00  0.00    +0.000 NA
ATOM     21  C   UNL     1      50.275   3.537  17.768  0.00  0.00    +0.000 C 
ATOM     22  C   UNL     1      48.905   3.287  18.408  0.00  0.00    +0.000 C 
BRANCH  20  23
ATOM     23  C   UNL     1      52.016   5.138  17.301  0.00  0.00    +0.000 C 
BRANCH  23  24
ATOM     24  C   UNL     1      53.140   4.648  18.230  0.00  0.00    +0.000 C 
BRANCH  24  25
ATOM     25  O   UNL     1      53.732   3.461  17.719  0.00  0.00    +0.000 OA
ATOM     26  H   UNL     1      53.060   3.072  17.127  0.00  0.00    +0.000 HD
ENDBRANCH  24  25
ENDBRANCH  23  24
ENDBRANCH  20  23
ENDBRANCH  16  17
ENDBRANCH   3  16
TORSDOF 6
ENDMDL
MODEL 9
REMARK VINA RESULT:    -6.017      4.524      8.318
REMARK INTER + INTRA:          -8.271
REMARK INTER:                  -7.526
REMARK INTRA:                  -0.745
REMARK UNBOUND:                -0.319
REMARK  Name = 
REMARK  7 active torsions:
REMARK  status: ('A' for Active; 'I' for Inactive)
REMARK    1  A    between atoms: C_1  and  N_2
REMARK    2  A    between atoms: C_4  and  C_5
REMARK    3  A    between atoms: N_7  and  C_8
REMARK    4  A    between atoms: C_8  and  C_9
REMARK    5  A    between atoms: N_12  and  C_13
REMARK    6  A    between atoms: C_13  and  C_14
REMARK    7  A    between atoms: C_14  and  O_15
REMARK                            x       y       z     vdW  Elec       q    Type
REMARK                         _______ _______ _______ _____ _____    ______ ____
ROOT
ATOM      1  C   UNL     1      46.808   4.347  14.341  0.00  0.00    +0.000 C 
ATOM      2  O   UNL     1      47.546   3.506  13.834  0.00  0.00    +0.000 OA
ATOM      3  N   UNL     1      46.884   4.663  15.685  0.00  0.00    +0.000 N 
ATOM      4  H   UNL     1      46.170   5.264  16.075  0.00  0.00    +0.000 HD
ENDROOT
BRANCH   1   8
ATOM      5  C   UNL     1      42.725   5.165  11.716  0.00  0.00    +0.000 C 
ATOM      6  N   UNL     1      44.018   5.427  12.310  0.00  0.00    +0.000 N 
ATOM      7  C   UNL     1      44.695   4.550  13.096  0.00  0.00    +0.000 A 
ATOM      8  C   UNL     1      45.882   5.130  13.523  0.00  0.00    +0.000 A 
ATOM      9  C   UNL     1      45.876   6.481  13.008  0.00  0.00    +0.000 A 
ATOM     10  C   UNL     1      46.660   7.646  13.121  0.00  0.00    +0.000 A 
ATOM     11 CL   UNL     1      47.952   7.682  14.229  0.00  0.00    +0.000 Cl
ATOM     12  C   UNL     1      46.314   8.764  12.377  0.00  0.00    +0.000 A 
ATOM     13  N   UNL     1      45.251   8.825  11.549  0.00  0.00    +0.000 NA
ATOM     14  C   UNL     1      44.437   7.751  11.462  0.00  0.00    +0.000 A 
ATOM     15  C   UNL     1      44.729   6.599  12.194  0.00  0.00    +0.000 A 
ENDBRANCH   1   8
BRANCH   3  16
ATOM     16  C   UNL     1      47.710   3.878  16.586  0.00  0.00    +0.000 C 
BRANCH  16  17
ATOM     17  C   UNL     1      49.040   4.553  16.975  0.00  0.00    +0.000 C 
ATOM     18  C   UNL     1      49.759   3.906  18.168  0.00  0.00    +0.000 C 
ATOM     19  C   UNL     1      49.124   4.223  19.528  0.00  0.00    +0.000 C 
ATOM     20  N   UNL     1      48.968   5.674  19.739  0.00  0.00    +0.000 NA
ATOM     21  C   UNL     1      48.147   6.252  18.661  0.00  0.00    +0.000 C 
ATOM     22  C   UNL     1      48.806   6.041  17.293  0.00  0.00    +0.000 C 
BRANCH  20  23
ATOM     23  C   UNL     1      48.334   5.976  21.048  0.00  0.00    +0.000 C 
BRANCH  23  24
ATOM     24  C   UNL     1      47.450   7.236  21.043  0.00  0.00    +0.000 C 
BRANCH  24  25
ATOM     25  O   UNL     1      48.042   8.267  21.823  0.00  0.00    +0.000 OA
ATOM     26  H   UNL     1      47.489   8.333  22.625  0.00  0.00    +0.000 HD
ENDBRANCH  24  25
ENDBRANCH  23  24
ENDBRANCH  20  23
ENDBRANCH  16  17
ENDBRANCH   3  16
TORSDOF 6
ENDMDL
