MODEL 1
REMARK VINA RESULT:    -8.866      0.000      0.000
REMARK INTER + INTRA:         -11.673
REMARK INTER:                 -10.939
REMARK INTRA:                  -0.733
REMARK UNBOUND:                -0.733
REMARK  Name = 
REMARK  4 active torsions:
REMARK  status: ('A' for Active; 'I' for Inactive)
REMARK    1  A    between atoms: C_2  and  C_4
REMARK    2  A    between atoms: N_8  and  C_9
REMARK    3  A    between atoms: C_9  and  C_10
REMARK    4  A    between atoms: C_10  and  C_11
REMARK                            x       y       z     vdW  Elec       q    Type
REMARK                         _______ _______ _______ _____ _____    ______ ____
ROOT
ATOM      1  C   UNL     1      43.184   4.409  11.012  0.00  0.00    +0.000 C 
ENDROOT
BRANCH   1   6
ATOM      2  C   UNL     1      46.475   2.446   7.654  0.00  0.00    +0.000 A 
ATOM      3  C   UNL     1      45.799   1.887   8.728  0.00  0.00    +0.000 A 
ATOM      4  C   UNL     1      44.969   2.698   9.492  0.00  0.00    +0.000 A 
ATOM      5  C   UNL     1      44.828   4.051   9.192  0.00  0.00    +0.000 A 
ATOM      6  N   UNL     1      43.997   4.881   9.908  0.00  0.00    +0.000 N 
ATOM      7  N   UNL     1      45.506   4.608   8.171  0.00  0.00    +0.000 NA
ATOM      8  C   UNL     1      46.322   3.805   7.427  0.00  0.00    +0.000 A 
ATOM      9  H   UNL     1      43.991   5.845   9.600  0.00  0.00    +0.000 HD
BRANCH   2  11
ATOM     10  N   UNL     1      48.455   2.254   6.273  0.00  0.00    +0.000 N 
ATOM     11  C   UNL     1      47.342   1.634   6.778  0.00  0.00    +0.000 C 
ATOM     12  O   UNL     1      47.097   0.461   6.538  0.00  0.00    +0.000 OA
ATOM     13  H   UNL     1      49.096   1.682   5.741  0.00  0.00    +0.000 HD
ATOM     14  H   UNL     1      48.804   3.128   6.645  0.00  0.00    +0.000 HD
ENDBRANCH   2  11
ENDBRANCH   1   6
BRANCH   1  15
ATOM     15  C   UNL     1      43.379   5.227  12.289  0.00  0.00    +0.000 C 
BRANCH  15  16
ATOM     16  C   UNL     1      44.812   5.151  12.761  0.00  0.00    +0.000 A 
ATOM     17  C   UNL     1      45.388   3.948  13.158  0.00  0.00    +0.000 A 
ATOM     18  C   UNL     1      46.728   3.951  13.513  0.00  0.00    +0.000 A 
ATOM     19  N   UNL     1      47.523   5.045  13.489  0.00  0.00    +0.000 NA
ATOM     20  C   UNL     1      46.972   6.223  13.133  0.00  0.00    +0.000 A 
ATOM     21  N   UNL     1      47.751   7.366  13.091  0.00  0.00    +0.000 N 
ATOM     22  C   UNL     1      49.177   7.258  12.807  0.00  0.00    +0.000 C 
ATOM     23  C   UNL     1      50.029   7.648  14.012  0.00  0.00    +0.000 C 
ATOM     24  C   UNL     1      49.592   8.986  14.601  0.00  0.00    +0.000 C 
ATOM     25  C   UNL     1      48.103   8.964  14.930  0.00  0.00    +0.000 C 
ATOM     26  C   UNL     1      47.264   8.596  13.708  0.00  0.00    +0.000 C 
ATOM     27  C   UNL     1      45.626   6.291  12.754  0.00  0.00    +0.000 A 
ENDBRANCH  15  16
ENDBRANCH   1  15
TORSDOF 4
ENDMDL
MODEL 2
REMARK VINA RESULT:    -8.221      2.267      3.116
REMARK INTER + INTRA:         -10.876
REMARK INTER:                 -10.308
REMARK INTRA:                  -0.568
REMARK UNBOUND:                -0.733
REMARK  Name = 
REMARK  4 active torsions:
REMARK  status: ('A' for Active; 'I' for Inactive)
REMARK    1  A    between atoms: C_2  and  C_4
REMARK    2  A    between atoms: N_8  and  C_9
REMARK    3  A    between atoms: C_9  and  C_10
REMARK    4  A    between atoms: C_10  and  C_11
REMARK                            x       y       z     vdW  Elec       q    Type
REMARK                         _______ _______ _______ _____ _____    ______ ____
ROOT
ATOM      1  C   UNL     1      44.054   4.728  11.202  0.00  0.00    +0.000 C 
ENDROOT
BRANCH   1   6
ATOM      2  C   UNL     1      46.618   2.671   7.310  0.00  0.00    +0.000 A 
ATOM      3  C   UNL     1      46.362   3.989   7.662  0.00  0.00    +0.000 A 
ATOM      4  C   UNL     1      45.594   4.243   8.791  0.00  0.00    +0.000 A 
ATOM      5  C   UNL     1      45.081   3.193   9.550  0.00  0.00    +0.000 A 
ATOM      6  N   UNL     1      44.338   3.403  10.689  0.00  0.00    +0.000 N 
ATOM      7  N   UNL     1      45.298   1.912   9.196  0.00  0.00    +0.000 NA
ATOM      8  C   UNL     1      46.050   1.671   8.083  0.00  0.00    +0.000 A 
ATOM      9  H   UNL     1      44.012   2.560  11.144  0.00  0.00    +0.000 HD
BRANCH   2  11
ATOM     10  N   UNL     1      47.377   3.170   5.065  0.00  0.00    +0.000 N 
ATOM     11  C   UNL     1      47.458   2.330   6.145  0.00  0.00    +0.000 C 
ATOM     12  O   UNL     1      48.210   1.366   6.154  0.00  0.00    +0.000 OA
ATOM     13  H   UNL     1      48.009   2.990   4.297  0.00  0.00    +0.000 HD
ATOM     14  H   UNL     1      46.959   4.088   5.124  0.00  0.00    +0.000 HD
ENDBRANCH   2  11
ENDBRANCH   1   6
BRANCH   1  15
ATOM     15  C   UNL     1      44.151   4.811  12.726  0.00  0.00    +0.000 C 
BRANCH  15  16
ATOM     16  C   UNL     1      45.568   5.111  13.158  0.00  0.00    +0.000 A 
ATOM     17  C   UNL     1      46.445   5.818  12.344  0.00  0.00    +0.000 A 
ATOM     18  C   UNL     1      47.706   6.111  12.841  0.00  0.00    +0.000 A 
ATOM     19  N   UNL     1      48.141   5.766  14.076  0.00  0.00    +0.000 NA
ATOM     20  C   UNL     1      47.309   5.056  14.865  0.00  0.00    +0.000 A 
ATOM     21  N   UNL     1      47.712   4.686  16.137  0.00  0.00    +0.000 N 
ATOM     22  C   UNL     1      48.670   5.514  16.860  0.00  0.00    +0.000 C 
ATOM     23  C   UNL     1      50.003   4.798  17.063  0.00  0.00    +0.000 C 
ATOM     24  C   UNL     1      49.808   3.396  17.632  0.00  0.00    +0.000 C 
ATOM     25  C   UNL     1      48.849   2.593  16.760  0.00  0.00    +0.000 C 
ATOM     26  C   UNL     1      47.512   3.312  16.588  0.00  0.00    +0.000 C 
ATOM     27  C   UNL     1      46.019   4.733  14.430  0.00  0.00    +0.000 A 
ENDBRANCH  15  16
ENDBRANCH   1  15
TORSDOF 4
ENDMDL
MODEL 3
REMARK VINA RESULT:    -8.029      1.641      2.462
REMARK INTER + INTRA:         -10.640
REMARK INTER:                  -9.911
REMARK INTRA:                  -0.728
REMARK UNBOUND:                -0.733
REMARK  Name = 
REMARK  4 active torsions:
REMARK  status: ('A' for Active; 'I' for Inactive)
REMARK    1  A    between atoms: C_2  and  C_4
REMARK    2  A    between atoms: N_8  and  C_9
REMARK    3  A    between atoms: C_9  and  C_10
REMARK    4  A    between atoms: C_10  and  C_11
REMARK                            x       y       z     vdW  Elec       q    Type
REMARK                         _______ _______ _______ _____ _____    ______ ____
ROOT
ATOM      1  C   UNL     1      43.536   3.750  11.476  0.00  0.00    +0.000 C 
ENDROOT
BRANCH   1   6
ATOM      2  C   UNL     1      46.402   2.833   7.366  0.00  0.00    +0.000 A 
ATOM      3  C   UNL     1      45.867   4.004   7.883  0.00  0.00    +0.000 A 
ATOM      4  C   UNL     1      45.089   3.933   9.031  0.00  0.00    +0.000 A 
ATOM      5  C   UNL     1      44.840   2.707   9.645  0.00  0.00    +0.000 A 
ATOM      6  N   UNL     1      44.096   2.599  10.797  0.00  0.00    +0.000 N 
ATOM      7  N   UNL     1      45.329   1.564   9.130  0.00  0.00    +0.000 NA
ATOM      8  C   UNL     1      46.090   1.642   8.000  0.00  0.00    +0.000 A 
ATOM      9  H   UNL     1      43.976   1.654  11.138  0.00  0.00    +0.000 HD
BRANCH   2  11
ATOM     10  N   UNL     1      48.604   2.608   6.381  0.00  0.00    +0.000 N 
ATOM     11  C   UNL     1      47.270   2.841   6.171  0.00  0.00    +0.000 C 
ATOM     12  O   UNL     1      46.817   3.016   5.049  0.00  0.00    +0.000 OA
ATOM     13  H   UNL     1      49.189   2.530   5.561  0.00  0.00    +0.000 HD
ATOM     14  H   UNL     1      48.956   2.226   7.248  0.00  0.00    +0.000 HD
ENDBRANCH   2  11
ENDBRANCH   1   6
BRANCH   1  15
ATOM     15  C   UNL     1      44.443   4.291  12.581  0.00  0.00    +0.000 C 
BRANCH  15  16
ATOM     16  C   UNL     1      44.904   5.694  12.259  0.00  0.00    +0.000 A 
ATOM     17  C   UNL     1      44.070   6.608  11.624  0.00  0.00    +0.000 A 
ATOM     18  C   UNL     1      44.544   7.896  11.425  0.00  0.00    +0.000 A 
ATOM     19  N   UNL     1      45.763   8.332  11.819  0.00  0.00    +0.000 NA
ATOM     20  C   UNL     1      46.592   7.448  12.412  0.00  0.00    +0.000 A 
ATOM     21  N   UNL     1      47.846   7.853  12.833  0.00  0.00    +0.000 N 
ATOM     22  C   UNL     1      48.062   9.240  13.229  0.00  0.00    +0.000 C 
ATOM     23  C   UNL     1      48.996   9.967  12.265  0.00  0.00    +0.000 C 
ATOM     24  C   UNL     1      50.270   9.168  12.005  0.00  0.00    +0.000 C 
ATOM     25  C   UNL     1      49.930   7.761  11.526  0.00  0.00    +0.000 C 
ATOM     26  C   UNL     1      49.015   7.039  12.513  0.00  0.00    +0.000 C 
ATOM     27  C   UNL     1      46.175   6.134  12.651  0.00  0.00    +0.000 A 
ENDBRANCH  15  16
ENDBRANCH   1  15
TORSDOF 4
ENDMDL
MODEL 4
REMARK VINA RESULT:    -6.695      4.386      7.588
REMARK INTER + INTRA:          -8.994
REMARK INTER:                  -8.321
REMARK INTRA:                  -0.673
REMARK UNBOUND:                -0.733
REMARK  Name = 
REMARK  4 active torsions:
REMARK  status: ('A' for Active; 'I' for Inactive)
REMARK    1  A    between atoms: C_2  and  C_4
REMARK    2  A    between atoms: N_8  and  C_9
REMARK    3  A    between atoms: C_9  and  C_10
REMARK    4  A    between atoms: C_10  and  C_11
REMARK                            x       y       z     vdW  Elec       q    Type
REMARK                         _______ _______ _______ _____ _____    ______ ____
ROOT
ATOM      1  C   UNL     1      46.631   8.887  12.060  0.00  0.00    +0.000 C 
ENDROOT
BRANCH   1   6
ATOM      2  C   UNL     1      42.007  10.667  10.871  0.00  0.00    +0.000 A 
ATOM      3  C   UNL     1      42.609   9.433  10.667  0.00  0.00    +0.000 A 
ATOM      4  C   UNL     1      43.920   9.251  11.090  0.00  0.00    +0.000 A 
ATOM      5  C   UNL     1      44.621  10.291  11.697  0.00  0.00    +0.000 A 
ATOM      6  N   UNL     1      45.910  10.142  12.152  0.00  0.00    +0.000 N 
ATOM      7  N   UNL     1      44.054  11.500  11.869  0.00  0.00    +0.000 NA
ATOM      8  C   UNL     1      42.767  11.672  11.448  0.00  0.00    +0.000 A 
ATOM      9  H   UNL     1      46.314  10.973  12.563  0.00  0.00    +0.000 HD
BRANCH   2  11
ATOM     10  N   UNL     1      39.707   9.920  10.754  0.00  0.00    +0.000 N 
ATOM     11  C   UNL     1      40.606  10.917  10.482  0.00  0.00    +0.000 C 
ATOM     12  O   UNL     1      40.259  11.972   9.970  0.00  0.00    +0.000 OA
ATOM     13  H   UNL     1      38.733  10.118  10.566  0.00  0.00    +0.000 HD
ATOM     14  H   UNL     1      39.918   9.158  11.383  0.00  0.00    +0.000 HD
ENDBRANCH   2  11
ENDBRANCH   1   6
BRANCH   1  15
ATOM     15  C   UNL     1      46.544   8.054  13.340  0.00  0.00    +0.000 C 
BRANCH  15  16
ATOM     16  C   UNL     1      46.382   6.588  13.015  0.00  0.00    +0.000 A 
ATOM     17  C   UNL     1      46.782   5.595  13.903  0.00  0.00    +0.000 A 
ATOM     18  C   UNL     1      46.537   4.274  13.560  0.00  0.00    +0.000 A 
ATOM     19  N   UNL     1      45.920   3.881  12.421  0.00  0.00    +0.000 NA
ATOM     20  C   UNL     1      45.551   4.832  11.539  0.00  0.00    +0.000 A 
ATOM     21  N   UNL     1      44.915   4.474  10.363  0.00  0.00    +0.000 N 
ATOM     22  C   UNL     1      44.099   3.266  10.323  0.00  0.00    +0.000 C 
ATOM     23  C   UNL     1      44.707   2.199   9.418  0.00  0.00    +0.000 C 
ATOM     24  C   UNL     1      45.081   2.766   8.051  0.00  0.00    +0.000 C 
ATOM     25  C   UNL     1      45.994   3.978   8.207  0.00  0.00    +0.000 C 
ATOM     26  C   UNL     1      45.360   5.046   9.096  0.00  0.00    +0.000 C 
ATOM     27  C   UNL     1      45.761   6.186  11.825  0.00  0.00    +0.000 A 
ENDBRANCH  15  16
ENDBRANCH   1  15
TORSDOF 4
ENDMDL
MODEL 5
REMARK VINA RESULT:    -6.438      3.040      5.464
REMARK INTER + INTRA:          -8.677
REMARK INTER:                  -7.887
REMARK INTRA:                  -0.790
REMARK UNBOUND:                -0.733
REMARK  Name = 
REMARK  4 active torsions:
REMARK  status: ('A' for Active; 'I' for Inactive)
REMARK    1  A    between atoms: C_2  and  C_4
REMARK    2  A    between atoms: N_8  and  C_9
REMARK    3  A    between atoms: C_9  and  C_10
REMARK    4  A    between atoms: C_10  and  C_11
REMARK                            x       y       z     vdW  Elec       q    Type
REMARK                         _______ _______ _______ _____ _____    ______ ____
ROOT
ATOM      1  C   UNL     1      47.561   8.340  13.093  0.00  0.00    +0.000 C 
ENDROOT
BRANCH   1   6
ATOM      2  C   UNL     1      44.874   4.285  11.579  0.00  0.00    +0.000 A 
ATOM      3  C   UNL     1      45.324   4.688  12.828  0.00  0.00    +0.000 A 
ATOM      4  C   UNL     1      46.072   5.855  12.925  0.00  0.00    +0.000 A 
ATOM      5  C   UNL     1      46.374   6.599  11.787  0.00  0.00    +0.000 A 
ATOM      6  N   UNL     1      47.089   7.773  11.845  0.00  0.00    +0.000 N 
ATOM      7  N   UNL     1      45.968   6.197  10.568  0.00  0.00    +0.000 NA
ATOM      8  C   UNL     1      45.237   5.048  10.481  0.00  0.00    +0.000 A 
ATOM      9  H   UNL     1      47.254   8.215  10.949  0.00  0.00    +0.000 HD
BRANCH   2  11
ATOM     10  N   UNL     1      43.716   2.392  12.550  0.00  0.00    +0.000 N 
ATOM     11  C   UNL     1      44.043   3.076  11.408  0.00  0.00    +0.000 C 
ATOM     12  O   UNL     1      43.642   2.721  10.310  0.00  0.00    +0.000 OA
ATOM     13  H   UNL     1      43.080   1.613  12.449  0.00  0.00    +0.000 HD
ATOM     14  H   UNL     1      43.826   2.793  13.471  0.00  0.00    +0.000 HD
ENDBRANCH   2  11
ENDBRANCH   1   6
BRANCH   1  15
ATOM     15  C   UNL     1      49.086   8.414  13.175  0.00  0.00    +0.000 C 
BRANCH  15  16
ATOM     16  C   UNL     1      49.596   7.655  14.378  0.00  0.00    +0.000 A 
ATOM     17  C   UNL     1      50.905   7.792  14.826  0.00  0.00    +0.000 A 
ATOM     18  C   UNL     1      51.277   7.113  15.977  0.00  0.00    +0.000 A 
ATOM     19  N   UNL     1      50.446   6.333  16.706  0.00  0.00    +0.000 NA
ATOM     20  C   UNL     1      49.181   6.171  16.268  0.00  0.00    +0.000 A 
ATOM     21  N   UNL     1      48.297   5.384  16.986  0.00  0.00    +0.000 N 
ATOM     22  C   UNL     1      48.456   5.252  18.430  0.00  0.00    +0.000 C 
ATOM     23  C   UNL     1      48.847   3.833  18.832  0.00  0.00    +0.000 C 
ATOM     24  C   UNL     1      47.933   2.793  18.190  0.00  0.00    +0.000 C 
ATOM     25  C   UNL     1      47.898   2.974  16.677  0.00  0.00    +0.000 C 
ATOM     26  C   UNL     1      47.481   4.393  16.291  0.00  0.00    +0.000 C 
ATOM     27  C   UNL     1      48.737   6.833  15.118  0.00  0.00    +0.000 A 
ENDBRANCH  15  16
ENDBRANCH   1  15
TORSDOF 4
ENDMDL
MODEL 6
REMARK VINA RESULT:    -6.411      2.992      5.231
REMARK INTER + INTRA:          -8.644
REMARK INTER:                  -8.181
REMARK INTRA:                  -0.463
REMARK UNBOUND:                -0.733
REMARK  Name = 
REMARK  4 active torsions:
REMARK  status: ('A' for Active; 'I' for Inactive)
REMARK    1  A    between atoms: C_2  and  C_4
REMARK    2  A    between atoms: N_8  and  C_9
REMARK    3  A    between atoms: C_9  and  C_10
REMARK    4  A    between atoms: C_10  and  C_11
REMARK                            x       y       z     vdW  Elec       q    Type
REMARK                         _______ _______ _______ _____ _____    ______ ____
ROOT
ATOM      1  C   UNL     1      46.836   8.385  12.583  0.00  0.00    +0.000 C 
ENDROOT
BRANCH   1   6
ATOM      2  C   UNL     1      44.320   4.080  11.538  0.00  0.00    +0.000 A 
ATOM      3  C   UNL     1      45.354   4.733  10.884  0.00  0.00    +0.000 A 
ATOM      4  C   UNL     1      45.826   5.930  11.409  0.00  0.00    +0.000 A 
ATOM      5  C   UNL     1      45.263   6.470  12.564  0.00  0.00    +0.000 A 
ATOM      6  N   UNL     1      45.719   7.638  13.128  0.00  0.00    +0.000 N 
ATOM      7  N   UNL     1      44.238   5.857  13.185  0.00  0.00    +0.000 NA
ATOM      8  C   UNL     1      43.778   4.683  12.661  0.00  0.00    +0.000 A 
ATOM      9  H   UNL     1      45.220   7.932  13.958  0.00  0.00    +0.000 HD
BRANCH   2  11
ATOM     10  N   UNL     1      44.412   2.246   9.959  0.00  0.00    +0.000 N 
ATOM     11  C   UNL     1      43.796   2.786  11.057  0.00  0.00    +0.000 C 
ATOM     12  O   UNL     1      42.881   2.211  11.628  0.00  0.00    +0.000 OA
ATOM     13  H   UNL     1      44.114   1.323   9.675  0.00  0.00    +0.000 HD
ATOM     14  H   UNL     1      45.308   2.573   9.625  0.00  0.00    +0.000 HD
ENDBRANCH   2  11
ENDBRANCH   1   6
BRANCH   1  15
ATOM     15  C   UNL     1      47.622   9.146  13.651  0.00  0.00    +0.000 C 
BRANCH  15  16
ATOM     16  C   UNL     1      48.628   8.241  14.323  0.00  0.00    +0.000 A 
ATOM     17  C   UNL     1      49.997   8.405  14.138  0.00  0.00    +0.000 A 
ATOM     18  C   UNL     1      50.856   7.576  14.844  0.00  0.00    +0.000 A 
ATOM     19  N   UNL     1      50.454   6.622  15.716  0.00  0.00    +0.000 NA
ATOM     20  C   UNL     1      49.129   6.435  15.885  0.00  0.00    +0.000 A 
ATOM     21  N   UNL     1      48.675   5.472  16.770  0.00  0.00    +0.000 N 
ATOM     22  C   UNL     1      49.487   5.116  17.928  0.00  0.00    +0.000 C 
ATOM     23  C   UNL     1      50.010   3.685  17.837  0.00  0.00    +0.000 C 
ATOM     24  C   UNL     1      48.895   2.698  17.507  0.00  0.00    +0.000 C 
ATOM     25  C   UNL     1      48.161   3.124  16.240  0.00  0.00    +0.000 C 
ATOM     26  C   UNL     1      47.623   4.548  16.357  0.00  0.00    +0.000 C 
ATOM     27  C   UNL     1      48.206   7.241  15.209  0.00  0.00    +0.000 A 
ENDBRANCH  15  16
ENDBRANCH   1  15
TORSDOF 4
ENDMDL
MODEL 7
REMARK VINA RESULT:    -6.257      3.593      7.664
REMARK INTER + INTRA:          -8.454
REMARK INTER:                  -7.689
REMARK INTRA:                  -0.765
REMARK UNBOUND:                -0.733
REMARK  Name = 
REMARK  4 active torsions:
REMARK  status: ('A' for Active; 'I' for Inactive)
REMARK    1  A    between atoms: C_2  and  C_4
REMARK    2  A    between atoms: N_8  and  C_9
REMARK    3  A    between atoms: C_9  and  C_10
REMARK    4  A    between atoms: C_10  and  C_11
REMARK                            x       y       z     vdW  Elec       q    Type
REMARK                         _______ _______ _______ _____ _____    ______ ____
ROOT
ATOM      1  C   UNL     1      49.035   8.245  13.632  0.00  0.00    +0.000 C 
ENDROOT
BRANCH   1   6
ATOM      2  C   UNL     1      47.924   4.645  17.061  0.00  0.00    +0.000 A 
ATOM      3  C   UNL     1      47.669   4.743  15.701  0.00  0.00    +0.000 A 
ATOM      4  C   UNL     1      48.083   5.883  15.024  0.00  0.00    +0.000 A 
ATOM      5  C   UNL     1      48.731   6.914  15.701  0.00  0.00    +0.000 A 
ATOM      6  N   UNL     1      49.178   8.047  15.061  0.00  0.00    +0.000 N 
ATOM      7  N   UNL     1      48.952   6.839  17.027  0.00  0.00    +0.000 NA
ATOM      8  C   UNL     1      48.540   5.717  17.685  0.00  0.00    +0.000 A 
ATOM      9  H   UNL     1      49.622   8.728  15.664  0.00  0.00    +0.000 HD
BRANCH   2  11
ATOM     10  N   UNL     1      48.335   3.138  18.912  0.00  0.00    +0.000 N 
ATOM     11  C   UNL     1      47.547   3.445  17.835  0.00  0.00    +0.000 C 
ATOM     12  O   UNL     1      46.564   2.777  17.547  0.00  0.00    +0.000 OA
ATOM     13  H   UNL     1      48.035   2.368  19.494  0.00  0.00    +0.000 HD
ATOM     14  H   UNL     1      48.992   3.797  19.308  0.00  0.00    +0.000 HD
ENDBRANCH   2  11
ENDBRANCH   1   6
BRANCH   1  15
ATOM     15  C   UNL     1      48.064   9.373  13.281  0.00  0.00    +0.000 C 
BRANCH  15  16
ATOM     16  C   UNL     1      46.819   8.824  12.624  0.00  0.00    +0.000 A 
ATOM     17  C   UNL     1      45.804   9.659  12.171  0.00  0.00    +0.000 A 
ATOM     18  C   UNL     1      44.725   9.082  11.518  0.00  0.00    +0.000 A 
ATOM     19  N   UNL     1      44.597   7.757  11.277  0.00  0.00    +0.000 NA
ATOM     20  C   UNL     1      45.561   6.932  11.735  0.00  0.00    +0.000 A 
ATOM     21  N   UNL     1      45.471   5.570  11.508  0.00  0.00    +0.000 N 
ATOM     22  C   UNL     1      44.770   5.080  10.326  0.00  0.00    +0.000 C 
ATOM     23  C   UNL     1      43.495   4.326  10.693  0.00  0.00    +0.000 C 
ATOM     24  C   UNL     1      43.752   3.275  11.768  0.00  0.00    +0.000 C 
ATOM     25  C   UNL     1      44.417   3.907  12.986  0.00  0.00    +0.000 C 
ATOM     26  C   UNL     1      45.704   4.636  12.605  0.00  0.00    +0.000 C 
ATOM     27  C   UNL     1      46.682   7.448  12.396  0.00  0.00    +0.000 A 
ENDBRANCH  15  16
ENDBRANCH   1  15
TORSDOF 4
ENDMDL
MODEL 8
REMARK VINA RESULT:    -6.239      4.323      6.619
REMARK INTER + INTRA:          -8.431
REMARK INTER:                  -8.048
REMARK INTRA:                  -0.383
REMARK UNBOUND:                -0.733
REMARK  Name = 
REMARK  4 active torsions:
REMARK  status: ('A' for Active; 'I' for Inactive)
REMARK    1  A    between atoms: C_2  and  C_4
REMARK    2  A    between atoms: N_8  and  C_9
REMARK    3  A    between atoms: C_9  and  C_10
REMARK    4  A    between atoms: C_10  and  C_11
REMARK                            x       y       z     vdW  Elec       q    Type
REMARK                         _______ _______ _______ _____ _____    ______ ____
ROOT
ATOM      1  C   UNL     1      48.367   6.859  14.621  0.00  0.00    +0.000 C 
ENDROOT
BRANCH   1   6
ATOM      2  C   UNL     1      45.027   4.535  11.556  0.00  0.00    +0.000 A 
ATOM      3  C   UNL     1      45.796   5.679  11.395  0.00  0.00    +0.000 A 
ATOM      4  C   UNL     1      46.613   6.087  12.442  0.00  0.00    +0.000 A 
ATOM      5  C   UNL     1      46.651   5.368  13.634  0.00  0.00    +0.000 A 
ATOM      6  N   UNL     1      47.467   5.725  14.683  0.00  0.00    +0.000 N 
ATOM      7  N   UNL     1      45.884   4.275  13.808  0.00  0.00    +0.000 NA
ATOM      8  C   UNL     1      45.081   3.883  12.777  0.00  0.00    +0.000 A 
ATOM      9  H   UNL     1      47.395   5.130  15.499  0.00  0.00    +0.000 HD
BRANCH   2  11
ATOM     10  N   UNL     1      44.169   4.734   9.300  0.00  0.00    +0.000 N 
ATOM     11  C   UNL     1      44.166   4.023  10.471  0.00  0.00    +0.000 C 
ATOM     12  O   UNL     1      43.507   3.002  10.601  0.00  0.00    +0.000 OA
ATOM     13  H   UNL     1      43.647   4.345   8.527  0.00  0.00    +0.000 HD
ATOM     14  H   UNL     1      44.876   5.426   9.088  0.00  0.00    +0.000 HD
ENDBRANCH   2  11
ENDBRANCH   1   6
BRANCH   1  15
ATOM     15  C   UNL     1      48.889   7.282  15.995  0.00  0.00    +0.000 C 
BRANCH  15  16
ATOM     16  C   UNL     1      50.228   6.641  16.280  0.00  0.00    +0.000 A 
ATOM     17  C   UNL     1      51.422   7.251  15.911  0.00  0.00    +0.000 A 
ATOM     18  C   UNL     1      52.610   6.631  16.269  0.00  0.00    +0.000 A 
ATOM     19  N   UNL     1      52.689   5.475  16.968  0.00  0.00    +0.000 NA
ATOM     20  C   UNL     1      51.539   4.860  17.309  0.00  0.00    +0.000 A 
ATOM     21  N   UNL     1      51.574   3.677  18.027  0.00  0.00    +0.000 N 
ATOM     22  C   UNL     1      52.689   3.414  18.930  0.00  0.00    +0.000 C 
ATOM     23  C   UNL     1      53.550   2.251  18.447  0.00  0.00    +0.000 C 
ATOM     24  C   UNL     1      52.704   1.029  18.099  0.00  0.00    +0.000 C 
ATOM     25  C   UNL     1      51.619   1.399  17.094  0.00  0.00    +0.000 C 
ATOM     26  C   UNL     1      50.751   2.548  17.603  0.00  0.00    +0.000 C 
ATOM     27  C   UNL     1      50.303   5.433  16.986  0.00  0.00    +0.000 A 
ENDBRANCH  15  16
ENDBRANCH   1  15
TORSDOF 4
ENDMDL
MODEL 9
REMARK VINA RESULT:    -6.030      4.075      6.068
REMARK INTER + INTRA:          -8.174
REMARK INTER:                  -7.782
REMARK INTRA:                  -0.392
REMARK UNBOUND:                -0.733
REMARK  Name = 
REMARK  4 active torsions:
REMARK  status: ('A' for Active; 'I' for Inactive)
REMARK    1  A    between atoms: C_2  and  C_4
REMARK    2  A    between atoms: N_8  and  C_9
REMARK    3  A    between atoms: C_9  and  C_10
REMARK    4  A    between atoms: C_10  and  C_11
REMARK                            x       y       z     vdW  Elec       q    Type
REMARK                         _______ _______ _______ _____ _____    ______ ____
ROOT
ATOM      1  C   UNL     1      47.931   7.677  13.718  0.00  0.00    +0.000 C 
ENDROOT
BRANCH   1   6
ATOM      2  C   UNL     1      44.935   4.613  10.964  0.00  0.00    +0.000 A 
ATOM      3  C   UNL     1      45.767   5.664  10.608  0.00  0.00    +0.000 A 
ATOM      4  C   UNL     1      46.454   6.341  11.608  0.00  0.00    +0.000 A 
ATOM      5  C   UNL     1      46.300   5.979  12.944  0.00  0.00    +0.000 A 
ATOM      6  N   UNL     1      46.982   6.608  13.960  0.00  0.00    +0.000 N 
ATOM      7  N   UNL     1      45.469   4.982  13.300  0.00  0.00    +0.000 NA
ATOM      8  C   UNL     1      44.795   4.323  12.312  0.00  0.00    +0.000 A 
ATOM      9  H   UNL     1      46.775   6.263  14.888  0.00  0.00    +0.000 HD
BRANCH   2  11
ATOM     10  N   UNL     1      44.120   4.371   8.696  0.00  0.00    +0.000 N 
ATOM     11  C   UNL     1      44.205   3.825   9.950  0.00  0.00    +0.000 C 
ATOM     12  O   UNL     1      43.728   2.730  10.208  0.00  0.00    +0.000 OA
ATOM     13  H   UNL     1      43.695   3.801   7.978  0.00  0.00    +0.000 HD
ATOM     14  H   UNL     1      44.703   5.142   8.401  0.00  0.00    +0.000 HD
ENDBRANCH   2  11
ENDBRANCH   1   6
BRANCH   1  15
ATOM     15  C   UNL     1      49.161   7.598  14.624  0.00  0.00    +0.000 C 
BRANCH  15  16
ATOM     16  C   UNL     1      48.786   7.865  16.063  0.00  0.00    +0.000 A 
ATOM     17  C   UNL     1      48.393   9.129  16.492  0.00  0.00    +0.000 A 
ATOM     18  C   UNL     1      47.999   9.277  17.813  0.00  0.00    +0.000 A 
ATOM     19  N   UNL     1      47.958   8.270  18.717  0.00  0.00    +0.000 NA
ATOM     20  C   UNL     1      48.361   7.046  18.321  0.00  0.00    +0.000 A 
ATOM     21  N   UNL     1      48.331   5.987  19.212  0.00  0.00    +0.000 N 
ATOM     22  C   UNL     1      47.349   5.978  20.290  0.00  0.00    +0.000 C 
ATOM     23  C   UNL     1      48.008   6.112  21.660  0.00  0.00    +0.000 C 
ATOM     24  C   UNL     1      49.158   5.123  21.831  0.00  0.00    +0.000 C 
ATOM     25  C   UNL     1      50.161   5.268  20.693  0.00  0.00    +0.000 C 
ATOM     26  C   UNL     1      49.490   5.108  19.330  0.00  0.00    +0.000 C 
ATOM     27  C   UNL     1      48.764   6.823  16.999  0.00  0.00    +0.000 A 
ENDBRANCH  15  16
ENDBRANCH   1  15
TORSDOF 4
ENDMDL
