MODEL 1
REMARK VINA RESULT:    -8.490      0.000      0.000
REMARK INTER + INTRA:         -12.900
REMARK INTER:                 -11.965
REMARK INTRA:                  -0.935
REMARK UNBOUND:                -0.935
REMARK  Name = 
REMARK  7 active torsions:
REMARK  status: ('A' for Active; 'I' for Inactive)
REMARK    1  A    between atoms: C_2  and  C_4
REMARK    2  A    between atoms: C_7  and  N_8
REMARK    3  A    between atoms: N_8  and  C_9
REMARK    4  A    between atoms: C_9  and  C_10
REMARK    5  A    between atoms: C_10  and  C_11
REMARK    6  A    between atoms: C_15  and  O_16
REMARK    7  A    between atoms: O_16  and  C_17
REMARK                            x       y       z     vdW  Elec       q    Type
REMARK                         _______ _______ _______ _____ _____    ______ ____
ROOT
ATOM      1  C   UNL     1      43.237   4.058  11.420  0.00  0.00    +0.000 C 
ENDROOT
BRANCH   1   2
ATOM      2  N   UNL     1      43.681   4.637  10.154  0.00  0.00    +0.000 N 
ATOM      3  H   UNL     1      42.936   5.017   9.574  0.00  0.00    +0.000 HD
BRANCH   2   7
ATOM      4  C   UNL     1      46.457   2.501   7.782  0.00  0.00    +0.000 A 
ATOM      5  C   UNL     1      46.380   3.892   7.668  0.00  0.00    +0.000 A 
ATOM      6  C   UNL     1      45.472   4.610   8.453  0.00  0.00    +0.000 A 
ATOM      7  C   UNL     1      44.646   3.971   9.389  0.00  0.00    +0.000 A 
ATOM      8  C   UNL     1      44.716   2.570   9.465  0.00  0.00    +0.000 A 
ATOM      9  C   UNL     1      45.607   1.841   8.668  0.00  0.00    +0.000 A 
BRANCH   4  11
ATOM     10  N   UNL     1      48.479   2.362   6.435  0.00  0.00    +0.000 N 
ATOM     11  C   UNL     1      47.398   1.706   6.953  0.00  0.00    +0.000 C 
ATOM     12  O   UNL     1      47.241   0.506   6.771  0.00  0.00    +0.000 OA
ATOM     13  H   UNL     1      49.169   1.790   5.964  0.00  0.00    +0.000 HD
ATOM     14  H   UNL     1      48.773   3.271   6.768  0.00  0.00    +0.000 HD
ENDBRANCH   4  11
ENDBRANCH   2   7
ENDBRANCH   1   2
BRANCH   1  15
ATOM     15  C   UNL     1      43.232   5.102  12.543  0.00  0.00    +0.000 C 
BRANCH  15  16
ATOM     16  C   UNL     1      44.644   5.542  12.875  0.00  0.00    +0.000 A 
ATOM     17  C   UNL     1      45.093   6.797  12.448  0.00  0.00    +0.000 A 
ATOM     18  C   UNL     1      46.418   7.179  12.654  0.00  0.00    +0.000 A 
ATOM     19  C   UNL     1      47.303   6.320  13.308  0.00  0.00    +0.000 A 
ATOM     20  C   UNL     1      46.862   5.085  13.787  0.00  0.00    +0.000 A 
ATOM     21  C   UNL     1      45.539   4.688  13.543  0.00  0.00    +0.000 A 
BRANCH  20  22
ATOM     22  O   UNL     1      47.663   4.191  14.456  0.00  0.00    +0.000 OA
BRANCH  22  23
ATOM     23  C   UNL     1      47.365   4.033  15.854  0.00  0.00    +0.000 C 
ATOM     24  C   UNL     1      47.960   5.161  16.670  0.00  0.00    +0.000 C 
ATOM     25  C   UNL     1      49.333   4.657  17.050  0.00  0.00    +0.000 C 
ATOM     26  O   UNL     1      49.281   3.231  17.073  0.00  0.00    +0.000 OA
ATOM     27  C   UNL     1      48.083   2.804  16.406  0.00  0.00    +0.000 C 
ENDBRANCH  22  23
ENDBRANCH  20  22
ENDBRANCH  15  16
ENDBRANCH   1  15
TORSDOF 7
ENDMDL
MODEL 2
REMARK VINA RESULT:    -7.926      1.996      3.420
REMARK INTER + INTRA:         -12.105
REMARK INTER:                 -10.940
REMARK INTRA:                  -1.165
REMARK UNBOUND:                -0.935
REMARK  Name = 
REMARK  7 active torsions:
REMARK  status: ('A' for Active; 'I' for Inactive)
REMARK    1  A    between atoms: C_2  and  C_4
REMARK    2  A    between atoms: C_7  and  N_8
REMARK    3  A    between atoms: N_8  and  C_9
REMARK    4  A    between atoms: C_9  and  C_10
REMARK    5  A    between atoms: C_10  and  C_11
REMARK    6  A    between atoms: C_15  and  O_16
REMARK    7  A    between atoms: O_16  and  C_17
REMARK                            x       y       z     vdW  Elec       q    Type
REMARK                         _______ _______ _______ _____ _____    ______ ____
ROOT
ATOM      1  C   UNL     1      43.103   4.370  11.208  0.00  0.00    +0.000 C 
ENDROOT
BRANCH   1   2
ATOM      2  N   UNL     1      43.665   4.838   9.942  0.00  0.00    +0.000 N 
ATOM      3  H   UNL     1      42.987   5.242   9.298  0.00  0.00    +0.000 HD
BRANCH   2   7
ATOM      4  C   UNL     1      46.388   2.361   7.859  0.00  0.00    +0.000 A 
ATOM      5  C   UNL     1      46.444   3.747   7.684  0.00  0.00    +0.000 A 
ATOM      6  C   UNL     1      45.555   4.577   8.375  0.00  0.00    +0.000 A 
ATOM      7  C   UNL     1      44.614   4.056   9.274  0.00  0.00    +0.000 A 
ATOM      8  C   UNL     1      44.552   2.660   9.411  0.00  0.00    +0.000 A 
ATOM      9  C   UNL     1      45.425   1.819   8.710  0.00  0.00    +0.000 A 
BRANCH   4  11
ATOM     10  N   UNL     1      48.377   2.017   6.500  0.00  0.00    +0.000 N 
ATOM     11  C   UNL     1      47.306   1.449   7.132  0.00  0.00    +0.000 C 
ATOM     12  O   UNL     1      47.141   0.236   7.127  0.00  0.00    +0.000 OA
ATOM     13  H   UNL     1      49.053   1.379   6.100  0.00  0.00    +0.000 HD
ATOM     14  H   UNL     1      48.681   2.962   6.693  0.00  0.00    +0.000 HD
ENDBRANCH   4  11
ENDBRANCH   2   7
ENDBRANCH   1   2
BRANCH   1  15
ATOM     15  C   UNL     1      43.328   5.388  12.332  0.00  0.00    +0.000 C 
BRANCH  15  16
ATOM     16  C   UNL     1      44.778   5.390  12.772  0.00  0.00    +0.000 A 
ATOM     17  C   UNL     1      45.400   4.180  13.103  0.00  0.00    +0.000 A 
ATOM     18  C   UNL     1      46.700   4.170  13.607  0.00  0.00    +0.000 A 
ATOM     19  C   UNL     1      47.401   5.367  13.764  0.00  0.00    +0.000 A 
ATOM     20  C   UNL     1      46.818   6.580  13.392  0.00  0.00    +0.000 A 
ATOM     21  C   UNL     1      45.496   6.589  12.923  0.00  0.00    +0.000 A 
BRANCH  20  22
ATOM     22  O   UNL     1      47.445   7.798  13.498  0.00  0.00    +0.000 OA
BRANCH  22  23
ATOM     23  C   UNL     1      47.687   8.470  12.249  0.00  0.00    +0.000 C 
ATOM     24  C   UNL     1      48.833   7.828  11.496  0.00  0.00    +0.000 C 
ATOM     25  C   UNL     1      50.054   8.580  11.975  0.00  0.00    +0.000 C 
ATOM     26  O   UNL     1      49.633   9.882  12.376  0.00  0.00    +0.000 OA
ATOM     27  C   UNL     1      48.203   9.883  12.508  0.00  0.00    +0.000 C 
ENDBRANCH  22  23
ENDBRANCH  20  22
ENDBRANCH  15  16
ENDBRANCH   1  15
TORSDOF 7
ENDMDL
MODEL 3
REMARK VINA RESULT:    -7.446      1.582      2.119
REMARK INTER + INTRA:         -11.428
REMARK INTER:                 -10.326
REMARK INTRA:                  -1.102
REMARK UNBOUND:                -0.935
REMARK  Name = 
REMARK  7 active torsions:
REMARK  status: ('A' for Active; 'I' for Inactive)
REMARK    1  A    between atoms: C_2  and  C_4
REMARK    2  A    between atoms: C_7  and  N_8
REMARK    3  A    between atoms: N_8  and  C_9
REMARK    4  A    between atoms: C_9  and  C_10
REMARK    5  A    between atoms: C_10  and  C_11
REMARK    6  A    between atoms: C_15  and  O_16
REMARK    7  A    between atoms: O_16  and  C_17
REMARK                            x       y       z     vdW  Elec       q    Type
REMARK                         _______ _______ _______ _____ _____    ______ ____
ROOT
ATOM      1  C   UNL     1      44.149   5.070  11.536  0.00  0.00    +0.000 C 
ENDROOT
BRANCH   1   2
ATOM      2  N   UNL     1      43.710   4.000  10.642  0.00  0.00    +0.000 N 
ATOM      3  H   UNL     1      43.227   3.231  11.102  0.00  0.00    +0.000 HD
BRANCH   2   7
ATOM      4  C   UNL     1      46.438   2.751   7.661  0.00  0.00    +0.000 A 
ATOM      5  C   UNL     1      45.774   1.793   8.433  0.00  0.00    +0.000 A 
ATOM      6  C   UNL     1      44.863   2.194   9.415  0.00  0.00    +0.000 A 
ATOM      7  C   UNL     1      44.567   3.547   9.633  0.00  0.00    +0.000 A 
ATOM      8  C   UNL     1      45.269   4.495   8.870  0.00  0.00    +0.000 A 
ATOM      9  C   UNL     1      46.197   4.104   7.898  0.00  0.00    +0.000 A 
BRANCH   4  11
ATOM     10  N   UNL     1      47.321   2.980   5.406  0.00  0.00    +0.000 N 
ATOM     11  C   UNL     1      47.422   2.362   6.620  0.00  0.00    +0.000 C 
ATOM     12  O   UNL     1      48.314   1.553   6.845  0.00  0.00    +0.000 OA
ATOM     13  H   UNL     1      48.060   2.788   4.740  0.00  0.00    +0.000 HD
ATOM     14  H   UNL     1      46.773   3.818   5.268  0.00  0.00    +0.000 HD
ENDBRANCH   4  11
ENDBRANCH   2   7
ENDBRANCH   1   2
BRANCH   1  15
ATOM     15  C   UNL     1      45.185   4.567  12.549  0.00  0.00    +0.000 C 
BRANCH  15  16
ATOM     16  C   UNL     1      46.331   5.549  12.678  0.00  0.00    +0.000 A 
ATOM     17  C   UNL     1      46.508   6.535  11.700  0.00  0.00    +0.000 A 
ATOM     18  C   UNL     1      47.614   7.382  11.746  0.00  0.00    +0.000 A 
ATOM     19  C   UNL     1      48.542   7.270  12.782  0.00  0.00    +0.000 A 
ATOM     20  C   UNL     1      48.357   6.328  13.796  0.00  0.00    +0.000 A 
ATOM     21  C   UNL     1      47.265   5.451  13.724  0.00  0.00    +0.000 A 
BRANCH  20  22
ATOM     22  O   UNL     1      49.213   6.166  14.858  0.00  0.00    +0.000 OA
BRANCH  22  23
ATOM     23  C   UNL     1      48.630   6.402  16.152  0.00  0.00    +0.000 C 
ATOM     24  C   UNL     1      48.857   7.831  16.600  0.00  0.00    +0.000 C 
ATOM     25  C   UNL     1      50.165   7.777  17.356  0.00  0.00    +0.000 C 
ATOM     26  O   UNL     1      50.312   6.456  17.874  0.00  0.00    +0.000 OA
ATOM     27  C   UNL     1      49.372   5.595  17.214  0.00  0.00    +0.000 C 
ENDBRANCH  22  23
ENDBRANCH  20  22
ENDBRANCH  15  16
ENDBRANCH   1  15
TORSDOF 7
ENDMDL
MODEL 4
REMARK VINA RESULT:    -7.229      2.992      4.958
REMARK INTER + INTRA:         -11.122
REMARK INTER:                 -10.307
REMARK INTRA:                  -0.816
REMARK UNBOUND:                -0.935
REMARK  Name = 
REMARK  7 active torsions:
REMARK  status: ('A' for Active; 'I' for Inactive)
REMARK    1  A    between atoms: C_2  and  C_4
REMARK    2  A    between atoms: C_7  and  N_8
REMARK    3  A    between atoms: N_8  and  C_9
REMARK    4  A    between atoms: C_9  and  C_10
REMARK    5  A    between atoms: C_10  and  C_11
REMARK    6  A    between atoms: C_15  and  O_16
REMARK    7  A    between atoms: O_16  and  C_17
REMARK                            x       y       z     vdW  Elec       q    Type
REMARK                         _______ _______ _______ _____ _____    ______ ____
ROOT
ATOM      1  C   UNL     1      44.126   3.078  12.016  0.00  0.00    +0.000 C 
ENDROOT
BRANCH   1   2
ATOM      2  N   UNL     1      43.653   3.351  10.660  0.00  0.00    +0.000 N 
ATOM      3  H   UNL     1      42.701   3.045  10.471  0.00  0.00    +0.000 HD
BRANCH   2   7
ATOM      4  C   UNL     1      46.336   2.777   7.441  0.00  0.00    +0.000 A 
ATOM      5  C   UNL     1      45.879   1.671   8.162  0.00  0.00    +0.000 A 
ATOM      6  C   UNL     1      44.984   1.847   9.223  0.00  0.00    +0.000 A 
ATOM      7  C   UNL     1      44.500   3.116   9.572  0.00  0.00    +0.000 A 
ATOM      8  C   UNL     1      44.997   4.218   8.856  0.00  0.00    +0.000 A 
ATOM      9  C   UNL     1      45.908   4.054   7.805  0.00  0.00    +0.000 A 
BRANCH   4  11
ATOM     10  N   UNL     1      48.512   2.076   6.609  0.00  0.00    +0.000 N 
ATOM     11  C   UNL     1      47.297   2.629   6.319  0.00  0.00    +0.000 C 
ATOM     12  O   UNL     1      47.005   2.947   5.173  0.00  0.00    +0.000 OA
ATOM     13  H   UNL     1      49.117   1.880   5.821  0.00  0.00    +0.000 HD
ATOM     14  H   UNL     1      48.690   1.577   7.470  0.00  0.00    +0.000 HD
ENDBRANCH   4  11
ENDBRANCH   2   7
ENDBRANCH   1   2
BRANCH   1  15
ATOM     15  C   UNL     1      43.806   4.239  12.966  0.00  0.00    +0.000 C 
BRANCH  15  16
ATOM     16  C   UNL     1      44.756   5.398  12.738  0.00  0.00    +0.000 A 
ATOM     17  C   UNL     1      46.032   5.366  13.313  0.00  0.00    +0.000 A 
ATOM     18  C   UNL     1      46.883   6.464  13.201  0.00  0.00    +0.000 A 
ATOM     19  C   UNL     1      46.478   7.597  12.494  0.00  0.00    +0.000 A 
ATOM     20  C   UNL     1      45.230   7.629  11.869  0.00  0.00    +0.000 A 
ATOM     21  C   UNL     1      44.361   6.538  12.018  0.00  0.00    +0.000 A 
BRANCH  20  22
ATOM     22  O   UNL     1      44.764   8.696  11.140  0.00  0.00    +0.000 OA
BRANCH  22  23
ATOM     23  C   UNL     1      44.711   9.945  11.852  0.00  0.00    +0.000 C 
ATOM     24  C   UNL     1      43.521  10.773  11.415  0.00  0.00    +0.000 C 
ATOM     25  C   UNL     1      44.052  11.609  10.274  0.00  0.00    +0.000 C 
ATOM     26  O   UNL     1      45.456  11.773  10.473  0.00  0.00    +0.000 OA
ATOM     27  C   UNL     1      45.895  10.823  11.456  0.00  0.00    +0.000 C 
ENDBRANCH  22  23
ENDBRANCH  20  22
ENDBRANCH  15  16
ENDBRANCH   1  15
TORSDOF 7
ENDMDL
MODEL 5
REMARK VINA RESULT:    -7.128      2.685      3.770
REMARK INTER + INTRA:         -10.979
REMARK INTER:                 -10.190
REMARK INTRA:                  -0.789
REMARK UNBOUND:                -0.935
REMARK  Name = 
REMARK  7 active torsions:
REMARK  status: ('A' for Active; 'I' for Inactive)
REMARK    1  A    between atoms: C_2  and  C_4
REMARK    2  A    between atoms: C_7  and  N_8
REMARK    3  A    between atoms: N_8  and  C_9
REMARK    4  A    between atoms: C_9  and  C_10
REMARK    5  A    between atoms: C_10  and  C_11
REMARK    6  A    between atoms: C_15  and  O_16
REMARK    7  A    between atoms: O_16  and  C_17
REMARK                            x       y       z     vdW  Elec       q    Type
REMARK                         _______ _______ _______ _____ _____    ______ ____
ROOT
ATOM      1  C   UNL     1      44.321   5.752  10.955  0.00  0.00    +0.000 C 
ENDROOT
BRANCH   1   2
ATOM      2  N   UNL     1      43.751   4.662  10.165  0.00  0.00    +0.000 N 
ATOM      3  H   UNL     1      43.070   4.088  10.659  0.00  0.00    +0.000 HD
BRANCH   2   7
ATOM      4  C   UNL     1      46.418   2.447   7.743  0.00  0.00    +0.000 A 
ATOM      5  C   UNL     1      45.581   1.775   8.638  0.00  0.00    +0.000 A 
ATOM      6  C   UNL     1      44.688   2.496   9.438  0.00  0.00    +0.000 A 
ATOM      7  C   UNL     1      44.583   3.892   9.346  0.00  0.00    +0.000 A 
ATOM      8  C   UNL     1      45.456   4.550   8.464  0.00  0.00    +0.000 A 
ATOM      9  C   UNL     1      46.367   3.839   7.674  0.00  0.00    +0.000 A 
BRANCH   4  11
ATOM     10  N   UNL     1      48.477   2.410   6.448  0.00  0.00    +0.000 N 
ATOM     11  C   UNL     1      47.388   1.715   6.890  0.00  0.00    +0.000 C 
ATOM     12  O   UNL     1      47.245   0.528   6.623  0.00  0.00    +0.000 OA
ATOM     13  H   UNL     1      49.184   1.875   5.959  0.00  0.00    +0.000 HD
ATOM     14  H   UNL     1      48.755   3.296   6.849  0.00  0.00    +0.000 HD
ENDBRANCH   4  11
ENDBRANCH   2   7
ENDBRANCH   1   2
BRANCH   1  15
ATOM     15  C   UNL     1      45.512   5.274  11.794  0.00  0.00    +0.000 C 
BRANCH  15  16
ATOM     16  C   UNL     1      46.245   6.450  12.406  0.00  0.00    +0.000 A 
ATOM     17  C   UNL     1      45.524   7.585  12.795  0.00  0.00    +0.000 A 
ATOM     18  C   UNL     1      46.190   8.716  13.265  0.00  0.00    +0.000 A 
ATOM     19  C   UNL     1      47.582   8.718  13.373  0.00  0.00    +0.000 A 
ATOM     20  C   UNL     1      48.316   7.578  13.039  0.00  0.00    +0.000 A 
ATOM     21  C   UNL     1      47.645   6.456  12.529  0.00  0.00    +0.000 A 
BRANCH  20  22
ATOM     22  O   UNL     1      49.684   7.491  13.133  0.00  0.00    +0.000 OA
BRANCH  22  23
ATOM     23  C   UNL     1      50.397   8.684  12.765  0.00  0.00    +0.000 C 
ATOM     24  C   UNL     1      50.632   8.742  11.271  0.00  0.00    +0.000 C 
ATOM     25  C   UNL     1      51.965   8.055  11.080  0.00  0.00    +0.000 C 
ATOM     26  O   UNL     1      52.709   8.211  12.287  0.00  0.00    +0.000 OA
ATOM     27  C   UNL     1      51.816   8.638  13.327  0.00  0.00    +0.000 C 
ENDBRANCH  22  23
ENDBRANCH  20  22
ENDBRANCH  15  16
ENDBRANCH   1  15
TORSDOF 7
ENDMDL
MODEL 6
REMARK VINA RESULT:    -6.537      2.349      7.707
REMARK INTER + INTRA:         -10.146
REMARK INTER:                  -9.246
REMARK INTRA:                  -0.900
REMARK UNBOUND:                -0.935
REMARK  Name = 
REMARK  7 active torsions:
REMARK  status: ('A' for Active; 'I' for Inactive)
REMARK    1  A    between atoms: C_2  and  C_4
REMARK    2  A    between atoms: C_7  and  N_8
REMARK    3  A    between atoms: N_8  and  C_9
REMARK    4  A    between atoms: C_9  and  C_10
REMARK    5  A    between atoms: C_10  and  C_11
REMARK    6  A    between atoms: C_15  and  O_16
REMARK    7  A    between atoms: O_16  and  C_17
REMARK                            x       y       z     vdW  Elec       q    Type
REMARK                         _______ _______ _______ _____ _____    ______ ____
ROOT
ATOM      1  C   UNL     1      45.741   7.049  12.371  0.00  0.00    +0.000 C 
ENDROOT
BRANCH   1   2
ATOM      2  N   UNL     1      47.116   6.758  12.774  0.00  0.00    +0.000 N 
ATOM      3  H   UNL     1      47.761   6.594  12.004  0.00  0.00    +0.000 HD
BRANCH   2   7
ATOM      4  C   UNL     1      47.785   4.275  16.132  0.00  0.00    +0.000 A 
ATOM      5  C   UNL     1      46.985   3.814  15.083  0.00  0.00    +0.000 A 
ATOM      6  C   UNL     1      46.765   4.622  13.963  0.00  0.00    +0.000 A 
ATOM      7  C   UNL     1      47.354   5.889  13.844  0.00  0.00    +0.000 A 
ATOM      8  C   UNL     1      48.127   6.347  14.924  0.00  0.00    +0.000 A 
ATOM      9  C   UNL     1      48.339   5.553  16.058  0.00  0.00    +0.000 A 
BRANCH   4  11
ATOM     10  N   UNL     1      46.992   2.683  17.792  0.00  0.00    +0.000 N 
ATOM     11  C   UNL     1      48.029   3.450  17.342  0.00  0.00    +0.000 C 
ATOM     12  O   UNL     1      49.121   3.422  17.894  0.00  0.00    +0.000 OA
ATOM     13  H   UNL     1      47.200   2.045  18.550  0.00  0.00    +0.000 HD
ATOM     14  H   UNL     1      46.176   2.488  17.227  0.00  0.00    +0.000 HD
ENDBRANCH   4  11
ENDBRANCH   2   7
ENDBRANCH   1   2
BRANCH   1  15
ATOM     15  C   UNL     1      45.525   6.776  10.878  0.00  0.00    +0.000 C 
BRANCH  15  16
ATOM     16  C   UNL     1      44.940   5.395  10.663  0.00  0.00    +0.000 A 
ATOM     17  C   UNL     1      44.105   4.840  11.640  0.00  0.00    +0.000 A 
ATOM     18  C   UNL     1      43.640   3.533  11.510  0.00  0.00    +0.000 A 
ATOM     19  C   UNL     1      43.985   2.772  10.391  0.00  0.00    +0.000 A 
ATOM     20  C   UNL     1      44.775   3.324   9.380  0.00  0.00    +0.000 A 
ATOM     21  C   UNL     1      45.273   4.626   9.534  0.00  0.00    +0.000 A 
BRANCH  20  22
ATOM     22  O   UNL     1      45.143   2.651   8.241  0.00  0.00    +0.000 OA
BRANCH  22  23
ATOM     23  C   UNL     1      46.561   2.581   8.005  0.00  0.00    +0.000 C 
ATOM     24  C   UNL     1      46.957   3.416   6.806  0.00  0.00    +0.000 C 
ATOM     25  C   UNL     1      46.859   2.458   5.641  0.00  0.00    +0.000 C 
ATOM     26  O   UNL     1      47.070   1.140   6.145  0.00  0.00    +0.000 OA
ATOM     27  C   UNL     1      46.950   1.169   7.575  0.00  0.00    +0.000 C 
ENDBRANCH  22  23
ENDBRANCH  20  22
ENDBRANCH  15  16
ENDBRANCH   1  15
TORSDOF 7
ENDMDL
MODEL 7
REMARK VINA RESULT:    -6.348      2.867      4.444
REMARK INTER + INTRA:          -9.880
REMARK INTER:                  -8.917
REMARK INTRA:                  -0.963
REMARK UNBOUND:                -0.935
REMARK  Name = 
REMARK  7 active torsions:
REMARK  status: ('A' for Active; 'I' for Inactive)
REMARK    1  A    between atoms: C_2  and  C_4
REMARK    2  A    between atoms: C_7  and  N_8
REMARK    3  A    between atoms: N_8  and  C_9
REMARK    4  A    between atoms: C_9  and  C_10
REMARK    5  A    between atoms: C_10  and  C_11
REMARK    6  A    between atoms: C_15  and  O_16
REMARK    7  A    between atoms: O_16  and  C_17
REMARK                            x       y       z     vdW  Elec       q    Type
REMARK                         _______ _______ _______ _____ _____    ______ ____
ROOT
ATOM      1  C   UNL     1      46.634   8.655  12.355  0.00  0.00    +0.000 C 
ENDROOT
BRANCH   1   2
ATOM      2  N   UNL     1      45.805   7.830  13.233  0.00  0.00    +0.000 N 
ATOM      3  H   UNL     1      46.127   7.776  14.197  0.00  0.00    +0.000 HD
BRANCH   2   7
ATOM      4  C   UNL     1      44.410   4.156  11.669  0.00  0.00    +0.000 A 
ATOM      5  C   UNL     1      45.266   4.154  12.774  0.00  0.00    +0.000 A 
ATOM      6  C   UNL     1      45.726   5.363  13.306  0.00  0.00    +0.000 A 
ATOM      7  C   UNL     1      45.326   6.598  12.775  0.00  0.00    +0.000 A 
ATOM      8  C   UNL     1      44.492   6.578  11.645  0.00  0.00    +0.000 A 
ATOM      9  C   UNL     1      44.041   5.372  11.093  0.00  0.00    +0.000 A 
BRANCH   4  11
ATOM     10  N   UNL     1      44.642   2.362  10.042  0.00  0.00    +0.000 N 
ATOM     11  C   UNL     1      43.914   2.892  11.069  0.00  0.00    +0.000 C 
ATOM     12  O   UNL     1      42.919   2.322  11.498  0.00  0.00    +0.000 OA
ATOM     13  H   UNL     1      44.357   1.448   9.714  0.00  0.00    +0.000 HD
ATOM     14  H   UNL     1      45.586   2.659   9.836  0.00  0.00    +0.000 HD
ENDBRANCH   4  11
ENDBRANCH   2   7
ENDBRANCH   1   2
BRANCH   1  15
ATOM     15  C   UNL     1      48.127   8.440  12.630  0.00  0.00    +0.000 C 
BRANCH  15  16
ATOM     16  C   UNL     1      48.371   8.183  14.103  0.00  0.00    +0.000 A 
ATOM     17  C   UNL     1      48.210   9.228  15.021  0.00  0.00    +0.000 A 
ATOM     18  C   UNL     1      48.527   9.040  16.365  0.00  0.00    +0.000 A 
ATOM     19  C   UNL     1      48.987   7.800  16.812  0.00  0.00    +0.000 A 
ATOM     20  C   UNL     1      49.105   6.730  15.922  0.00  0.00    +0.000 A 
ATOM     21  C   UNL     1      48.823   6.934  14.563  0.00  0.00    +0.000 A 
BRANCH  20  22
ATOM     22  O   UNL     1      49.532   5.475  16.283  0.00  0.00    +0.000 OA
BRANCH  22  23
ATOM     23  C   UNL     1      48.771   4.851  17.332  0.00  0.00    +0.000 C 
ATOM     24  C   UNL     1      49.349   3.499  17.696  0.00  0.00    +0.000 C 
ATOM     25  C   UNL     1      48.624   2.532  16.788  0.00  0.00    +0.000 C 
ATOM     26  O   UNL     1      47.357   3.104  16.468  0.00  0.00    +0.000 OA
ATOM     27  C   UNL     1      47.376   4.495  16.824  0.00  0.00    +0.000 C 
ENDBRANCH  22  23
ENDBRANCH  20  22
ENDBRANCH  15  16
ENDBRANCH   1  15
TORSDOF 7
ENDMDL
MODEL 8
REMARK VINA RESULT:    -6.335      3.984      7.973
REMARK INTER + INTRA:          -9.862
REMARK INTER:                  -9.032
REMARK INTRA:                  -0.830
REMARK UNBOUND:                -0.935
REMARK  Name = 
REMARK  7 active torsions:
REMARK  status: ('A' for Active; 'I' for Inactive)
REMARK    1  A    between atoms: C_2  and  C_4
REMARK    2  A    between atoms: C_7  and  N_8
REMARK    3  A    between atoms: N_8  and  C_9
REMARK    4  A    between atoms: C_9  and  C_10
REMARK    5  A    between atoms: C_10  and  C_11
REMARK    6  A    between atoms: C_15  and  O_16
REMARK    7  A    between atoms: O_16  and  C_17
REMARK                            x       y       z     vdW  Elec       q    Type
REMARK                         _______ _______ _______ _____ _____    ______ ____
ROOT
ATOM      1  C   UNL     1      48.789   7.366  16.095  0.00  0.00    +0.000 C 
ENDROOT
BRANCH   1   2
ATOM      2  N   UNL     1      48.323   6.119  16.700  0.00  0.00    +0.000 N 
ATOM      3  H   UNL     1      47.607   6.232  17.414  0.00  0.00    +0.000 HD
BRANCH   2   7
ATOM      4  C   UNL     1      51.060   3.021  17.594  0.00  0.00    +0.000 A 
ATOM      5  C   UNL     1      51.517   4.339  17.504  0.00  0.00    +0.000 A 
ATOM      6  C   UNL     1      50.619   5.373  17.218  0.00  0.00    +0.000 A 
ATOM      7  C   UNL     1      49.249   5.129  17.046  0.00  0.00    +0.000 A 
ATOM      8  C   UNL     1      48.816   3.794  17.108  0.00  0.00    +0.000 A 
ATOM      9  C   UNL     1      49.710   2.750  17.374  0.00  0.00    +0.000 A 
BRANCH   4  11
ATOM     10  N   UNL     1      51.452   0.639  17.904  0.00  0.00    +0.000 N 
ATOM     11  C   UNL     1      51.987   1.897  17.881  0.00  0.00    +0.000 C 
ATOM     12  O   UNL     1      53.186   2.076  18.052  0.00  0.00    +0.000 OA
ATOM     13  H   UNL     1      52.108  -0.126  17.993  0.00  0.00    +0.000 HD
ATOM     14  H   UNL     1      50.539   0.431  17.523  0.00  0.00    +0.000 HD
ENDBRANCH   4  11
ENDBRANCH   2   7
ENDBRANCH   1   2
BRANCH   1  15
ATOM     15  C   UNL     1      49.087   7.188  14.601  0.00  0.00    +0.000 C 
BRANCH  15  16
ATOM     16  C   UNL     1      47.821   7.332  13.780  0.00  0.00    +0.000 A 
ATOM     17  C   UNL     1      47.207   8.586  13.674  0.00  0.00    +0.000 A 
ATOM     18  C   UNL     1      45.990   8.720  13.009  0.00  0.00    +0.000 A 
ATOM     19  C   UNL     1      45.383   7.608  12.423  0.00  0.00    +0.000 A 
ATOM     20  C   UNL     1      46.003   6.358  12.474  0.00  0.00    +0.000 A 
ATOM     21  C   UNL     1      47.209   6.219  13.177  0.00  0.00    +0.000 A 
BRANCH  20  22
ATOM     22  O   UNL     1      45.482   5.219  11.908  0.00  0.00    +0.000 OA
BRANCH  22  23
ATOM     23  C   UNL     1      44.047   5.131  11.927  0.00  0.00    +0.000 C 
ATOM     24  C   UNL     1      43.574   4.145  12.974  0.00  0.00    +0.000 C 
ATOM     25  C   UNL     1      43.505   2.828  12.236  0.00  0.00    +0.000 C 
ATOM     26  O   UNL     1      43.279   3.115  10.857  0.00  0.00    +0.000 OA
ATOM     27  C   UNL     1      43.545   4.507  10.627  0.00  0.00    +0.000 C 
ENDBRANCH  22  23
ENDBRANCH  20  22
ENDBRANCH  15  16
ENDBRANCH   1  15
TORSDOF 7
ENDMDL
MODEL 9
REMARK VINA RESULT:    -5.910      3.649      7.750
REMARK INTER + INTRA:          -9.264
REMARK INTER:                  -8.460
REMARK INTRA:                  -0.804
REMARK UNBOUND:                -0.935
REMARK  Name = 
REMARK  7 active torsions:
REMARK  status: ('A' for Active; 'I' for Inactive)
REMARK    1  A    between atoms: C_2  and  C_4
REMARK    2  A    between atoms: C_7  and  N_8
REMARK    3  A    between atoms: N_8  and  C_9
REMARK    4  A    between atoms: C_9  and  C_10
REMARK    5  A    between atoms: C_10  and  C_11
REMARK    6  A    between atoms: C_15  and  O_16
REMARK    7  A    between atoms: O_16  and  C_17
REMARK                            x       y       z     vdW  Elec       q    Type
REMARK                         _______ _______ _______ _____ _____    ______ ____
ROOT
ATOM      1  C   UNL     1      44.523   6.357  12.294  0.00  0.00    +0.000 C 
ENDROOT
BRANCH   1   2
ATOM      2  N   UNL     1      45.558   6.453  13.322  0.00  0.00    +0.000 N 
ATOM      3  H   UNL     1      45.213   6.663  14.256  0.00  0.00    +0.000 HD
BRANCH   2   7
ATOM      4  C   UNL     1      49.130   8.613  12.642  0.00  0.00    +0.000 A 
ATOM      5  C   UNL     1      49.157   7.216  12.628  0.00  0.00    +0.000 A 
ATOM      6  C   UNL     1      47.980   6.491  12.842  0.00  0.00    +0.000 A 
ATOM      7  C   UNL     1      46.749   7.132  13.044  0.00  0.00    +0.000 A 
ATOM      8  C   UNL     1      46.750   8.536  13.087  0.00  0.00    +0.000 A 
ATOM      9  C   UNL     1      47.926   9.270  12.893  0.00  0.00    +0.000 A 
BRANCH   4  11
ATOM     10  N   UNL     1      50.941   9.968  13.540  0.00  0.00    +0.000 N 
ATOM     11  C   UNL     1      50.362   9.415  12.433  0.00  0.00    +0.000 C 
ATOM     12  O   UNL     1      50.866   9.545  11.325  0.00  0.00    +0.000 OA
ATOM     13  H   UNL     1      51.836  10.420  13.402  0.00  0.00    +0.000 HD
ATOM     14  H   UNL     1      50.704   9.676  14.479  0.00  0.00    +0.000 HD
ENDBRANCH   4  11
ENDBRANCH   2   7
ENDBRANCH   1   2
BRANCH   1  15
ATOM     15  C   UNL     1      45.134   6.252  10.891  0.00  0.00    +0.000 C 
BRANCH  15  16
ATOM     16  C   UNL     1      44.863   4.889  10.288  0.00  0.00    +0.000 A 
ATOM     17  C   UNL     1      44.246   3.901  11.065  0.00  0.00    +0.000 A 
ATOM     18  C   UNL     1      44.081   2.611  10.563  0.00  0.00    +0.000 A 
ATOM     19  C   UNL     1      44.509   2.299   9.272  0.00  0.00    +0.000 A 
ATOM     20  C   UNL     1      45.080   3.283   8.461  0.00  0.00    +0.000 A 
ATOM     21  C   UNL     1      45.281   4.569   8.984  0.00  0.00    +0.000 A 
BRANCH  20  22
ATOM     22  O   UNL     1      45.510   3.063   7.175  0.00  0.00    +0.000 OA
BRANCH  22  23
ATOM     23  C   UNL     1      46.905   3.323   6.946  0.00  0.00    +0.000 C 
ATOM     24  C   UNL     1      47.180   3.576   5.478  0.00  0.00    +0.000 C 
ATOM     25  C   UNL     1      47.489   2.206   4.920  0.00  0.00    +0.000 C 
ATOM     26  O   UNL     1      48.008   1.411   5.985  0.00  0.00    +0.000 OA
ATOM     27  C   UNL     1      47.725   2.067   7.230  0.00  0.00    +0.000 C 
ENDBRANCH  22  23
ENDBRANCH  20  22
ENDBRANCH  15  16
ENDBRANCH   1  15
TORSDOF 7
ENDMDL
