MODEL 1
REMARK VINA RESULT:    -7.576      0.000      0.000
REMARK INTER + INTRA:         -10.385
REMARK INTER:                  -9.791
REMARK INTRA:                  -0.594
REMARK UNBOUND:                -0.594
REMARK  Name = 
REMARK  5 active torsions:
REMARK  status: ('A' for Active; 'I' for Inactive)
REMARK    1  A    between atoms: C_2  and  C_4
REMARK    2  A    between atoms: C_8  and  C_9
REMARK    3  A    between atoms: C_9  and  O_10
REMARK    4  A    between atoms: O_10  and  C_11
REMARK    5  A    between atoms: C_16  and  N_17
REMARK                            x       y       z     vdW  Elec       q    Type
REMARK                         _______ _______ _______ _____ _____    ______ ____
ROOT
ATOM      1  C   UNL     1      44.697   4.861  11.521  0.00  0.00    +0.000 A 
ATOM      2  C   UNL     1      45.408   3.893  12.218  0.00  0.00    +0.000 A 
ATOM      3  C   UNL     1      46.331   4.298  13.171  0.00  0.00    +0.000 A 
ATOM      4  F   UNL     1      47.004   3.375  13.872  0.00  0.00    +0.000 F 
ATOM      5  C   UNL     1      46.554   5.649  13.435  0.00  0.00    +0.000 A 
ATOM      6  C   UNL     1      45.866   6.645  12.733  0.00  0.00    +0.000 A 
ATOM      7  C   UNL     1      44.962   6.214  11.756  0.00  0.00    +0.000 A 
ENDROOT
BRANCH   6   8
ATOM      8  N   UNL     1      46.037   7.988  12.988  0.00  0.00    +0.000 N 
ATOM      9  C   UNL     1      45.073   9.003  12.553  0.00  0.00    +0.000 C 
ATOM     10  C   UNL     1      45.800  10.126  11.785  0.00  0.00    +0.000 C 
ATOM     11  N   UNL     1      46.917  10.731  12.547  0.00  0.00    +0.000 NA
ATOM     12  C   UNL     1      47.861   9.661  12.930  0.00  0.00    +0.000 C 
ATOM     13  C   UNL     1      47.206   8.503  13.721  0.00  0.00    +0.000 C 
ATOM     14  H   UNL     1      46.530  11.126  13.404  0.00  0.00    +0.000 HD
ENDBRANCH   6   8
BRANCH   1  15
ATOM     15  O   UNL     1      43.758   4.414  10.631  0.00  0.00    +0.000 OA
BRANCH  15  16
ATOM     16  C   UNL     1      44.105   4.635   9.255  0.00  0.00    +0.000 C 
BRANCH  16  21
ATOM     17  C   UNL     1      46.488   2.528   7.234  0.00  0.00    +0.000 A 
ATOM     18  C   UNL     1      46.265   1.277   7.804  0.00  0.00    +0.000 A 
ATOM     19  C   UNL     1      45.341   1.187   8.824  0.00  0.00    +0.000 A 
ATOM     20  N   UNL     1      44.639   2.242   9.290  0.00  0.00    +0.000 NA
ATOM     21  C   UNL     1      44.870   3.452   8.721  0.00  0.00    +0.000 A 
ATOM     22  C   UNL     1      45.802   3.640   7.711  0.00  0.00    +0.000 A 
BRANCH  17  24
ATOM     23  N   UNL     1      48.763   2.496   6.400  0.00  0.00    +0.000 N 
ATOM     24  C   UNL     1      47.446   2.725   6.123  0.00  0.00    +0.000 C 
ATOM     25  O   UNL     1      47.075   3.030   4.998  0.00  0.00    +0.000 OA
ATOM     26  H   UNL     1      49.385   2.484   5.601  0.00  0.00    +0.000 HD
ATOM     27  H   UNL     1      49.054   1.979   7.218  0.00  0.00    +0.000 HD
ENDBRANCH  17  24
ENDBRANCH  16  21
ENDBRANCH  15  16
ENDBRANCH   1  15
TORSDOF 5
ENDMDL
MODEL 2
REMARK VINA RESULT:    -7.212      4.203      8.060
REMARK INTER + INTRA:          -9.914
REMARK INTER:                  -9.163
REMARK INTRA:                  -0.750
REMARK UNBOUND:                -0.594
REMARK  Name = 
REMARK  5 active torsions:
REMARK  status: ('A' for Active; 'I' for Inactive)
REMARK    1  A    between atoms: C_2  and  C_4
REMARK    2  A    between atoms: C_8  and  C_9
REMARK    3  A    between atoms: C_9  and  O_10
REMARK    4  A    between atoms: O_10  and  C_11
REMARK    5  A    between atoms: C_16  and  N_17
REMARK                            x       y       z     vdW  Elec       q    Type
REMARK                         _______ _______ _______ _____ _____    ______ ____
ROOT
ATOM      1  C   UNL     1      47.427   6.731  13.098  0.00  0.00    +0.000 A 
ATOM      2  C   UNL     1      47.017   8.058  13.130  0.00  0.00    +0.000 A 
ATOM      3  C   UNL     1      45.766   8.384  12.629  0.00  0.00    +0.000 A 
ATOM      4  F   UNL     1      45.345   9.655  12.680  0.00  0.00    +0.000 F 
ATOM      5  C   UNL     1      44.923   7.409  12.096  0.00  0.00    +0.000 A 
ATOM      6  C   UNL     1      45.319   6.069  12.032  0.00  0.00    +0.000 A 
ATOM      7  C   UNL     1      46.597   5.767  12.516  0.00  0.00    +0.000 A 
ENDROOT
BRANCH   6   8
ATOM      8  N   UNL     1      44.503   5.073  11.541  0.00  0.00    +0.000 N 
ATOM      9  C   UNL     1      43.436   4.462  12.338  0.00  0.00    +0.000 C 
ATOM     10  C   UNL     1      43.569   2.925  12.306  0.00  0.00    +0.000 C 
ATOM     11  N   UNL     1      43.608   2.367  10.934  0.00  0.00    +0.000 NA
ATOM     12  C   UNL     1      44.718   3.005  10.197  0.00  0.00    +0.000 C 
ATOM     13  C   UNL     1      44.644   4.550  10.171  0.00  0.00    +0.000 C 
ATOM     14  H   UNL     1      42.737   2.624  10.469  0.00  0.00    +0.000 HD
ENDBRANCH   6   8
BRANCH   1  15
ATOM     15  O   UNL     1      48.646   6.449  13.654  0.00  0.00    +0.000 OA
BRANCH  15  16
ATOM     16  C   UNL     1      48.893   7.125  14.896  0.00  0.00    +0.000 C 
BRANCH  16  21
ATOM     17  C   UNL     1      48.772   4.327  17.418  0.00  0.00    +0.000 A 
ATOM     18  C   UNL     1      50.098   4.313  17.844  0.00  0.00    +0.000 A 
ATOM     19  C   UNL     1      50.967   5.226  17.282  0.00  0.00    +0.000 A 
ATOM     20  N   UNL     1      50.599   6.132  16.352  0.00  0.00    +0.000 NA
ATOM     21  C   UNL     1      49.302   6.130  15.950  0.00  0.00    +0.000 A 
ATOM     22  C   UNL     1      48.367   5.229  16.440  0.00  0.00    +0.000 A 
BRANCH  17  24
ATOM     23  N   UNL     1      48.042   2.837  19.184  0.00  0.00    +0.000 N 
ATOM     24  C   UNL     1      47.759   3.401  17.973  0.00  0.00    +0.000 C 
ATOM     25  O   UNL     1      46.700   3.187  17.402  0.00  0.00    +0.000 OA
ATOM     26  H   UNL     1      47.281   2.332  19.622  0.00  0.00    +0.000 HD
ATOM     27  H   UNL     1      48.757   3.211  19.793  0.00  0.00    +0.000 HD
ENDBRANCH  17  24
ENDBRANCH  16  21
ENDBRANCH  15  16
ENDBRANCH   1  15
TORSDOF 5
ENDMDL
MODEL 3
REMARK VINA RESULT:    -7.183      2.760      3.850
REMARK INTER + INTRA:          -9.876
REMARK INTER:                  -9.150
REMARK INTRA:                  -0.726
REMARK UNBOUND:                -0.594
REMARK  Name = 
REMARK  5 active torsions:
REMARK  status: ('A' for Active; 'I' for Inactive)
REMARK    1  A    between atoms: C_2  and  C_4
REMARK    2  A    between atoms: C_8  and  C_9
REMARK    3  A    between atoms: C_9  and  O_10
REMARK    4  A    between atoms: O_10  and  C_11
REMARK    5  A    between atoms: C_16  and  N_17
REMARK                            x       y       z     vdW  Elec       q    Type
REMARK                         _______ _______ _______ _____ _____    ______ ____
ROOT
ATOM      1  C   UNL     1      45.835   5.526  12.375  0.00  0.00    +0.000 A 
ATOM      2  C   UNL     1      46.537   6.546  11.748  0.00  0.00    +0.000 A 
ATOM      3  C   UNL     1      47.678   7.046  12.359  0.00  0.00    +0.000 A 
ATOM      4  F   UNL     1      48.383   8.011  11.752  0.00  0.00    +0.000 F 
ATOM      5  C   UNL     1      48.123   6.545  13.582  0.00  0.00    +0.000 A 
ATOM      6  C   UNL     1      47.422   5.533  14.246  0.00  0.00    +0.000 A 
ATOM      7  C   UNL     1      46.259   5.063  13.625  0.00  0.00    +0.000 A 
ENDROOT
BRANCH   6   8
ATOM      8  N   UNL     1      47.847   4.991  15.439  0.00  0.00    +0.000 N 
ATOM      9  C   UNL     1      47.587   3.598  15.812  0.00  0.00    +0.000 C 
ATOM     10  C   UNL     1      46.950   3.538  17.215  0.00  0.00    +0.000 C 
ATOM     11  N   UNL     1      47.745   4.236  18.252  0.00  0.00    +0.000 NA
ATOM     12  C   UNL     1      47.947   5.637  17.827  0.00  0.00    +0.000 C 
ATOM     13  C   UNL     1      48.599   5.779  16.432  0.00  0.00    +0.000 C 
ATOM     14  H   UNL     1      48.661   3.789  18.295  0.00  0.00    +0.000 HD
ENDBRANCH   6   8
BRANCH   1  15
ATOM     15  O   UNL     1      44.748   5.027  11.709  0.00  0.00    +0.000 OA
BRANCH  15  16
ATOM     16  C   UNL     1      44.770   5.263  10.293  0.00  0.00    +0.000 C 
BRANCH  16  21
ATOM     17  C   UNL     1      46.230   2.756   7.888  0.00  0.00    +0.000 A 
ATOM     18  C   UNL     1      45.551   1.604   8.280  0.00  0.00    +0.000 A 
ATOM     19  C   UNL     1      44.645   1.709   9.315  0.00  0.00    +0.000 A 
ATOM     20  N   UNL     1      44.377   2.865   9.959  0.00  0.00    +0.000 NA
ATOM     21  C   UNL     1      45.049   3.976   9.562  0.00  0.00    +0.000 A 
ATOM     22  C   UNL     1      45.999   3.956   8.550  0.00  0.00    +0.000 A 
BRANCH  17  24
ATOM     23  N   UNL     1      47.038   3.696   5.806  0.00  0.00    +0.000 N 
ATOM     24  C   UNL     1      47.208   2.751   6.777  0.00  0.00    +0.000 C 
ATOM     25  O   UNL     1      48.151   1.973   6.752  0.00  0.00    +0.000 OA
ATOM     26  H   UNL     1      47.795   3.782   5.139  0.00  0.00    +0.000 HD
ATOM     27  H   UNL     1      46.456   4.510   5.950  0.00  0.00    +0.000 HD
ENDBRANCH  17  24
ENDBRANCH  16  21
ENDBRANCH  15  16
ENDBRANCH   1  15
TORSDOF 5
ENDMDL
MODEL 4
REMARK VINA RESULT:    -7.105      4.619      8.004
REMARK INTER + INTRA:          -9.776
REMARK INTER:                  -9.034
REMARK INTRA:                  -0.742
REMARK UNBOUND:                -0.594
REMARK  Name = 
REMARK  5 active torsions:
REMARK  status: ('A' for Active; 'I' for Inactive)
REMARK    1  A    between atoms: C_2  and  C_4
REMARK    2  A    between atoms: C_8  and  C_9
REMARK    3  A    between atoms: C_9  and  O_10
REMARK    4  A    between atoms: O_10  and  C_11
REMARK    5  A    between atoms: C_16  and  N_17
REMARK                            x       y       z     vdW  Elec       q    Type
REMARK                         _______ _______ _______ _____ _____    ______ ____
ROOT
ATOM      1  C   UNL     1      48.044   6.667  13.915  0.00  0.00    +0.000 A 
ATOM      2  C   UNL     1      47.989   7.885  13.250  0.00  0.00    +0.000 A 
ATOM      3  C   UNL     1      46.921   8.135  12.401  0.00  0.00    +0.000 A 
ATOM      4  F   UNL     1      46.837   9.317  11.775  0.00  0.00    +0.000 F 
ATOM      5  C   UNL     1      45.914   7.190  12.206  0.00  0.00    +0.000 A 
ATOM      6  C   UNL     1      45.957   5.947  12.846  0.00  0.00    +0.000 A 
ATOM      7  C   UNL     1      47.059   5.705  13.675  0.00  0.00    +0.000 A 
ENDROOT
BRANCH   6   8
ATOM      8  N   UNL     1      44.967   5.000  12.702  0.00  0.00    +0.000 N 
ATOM      9  C   UNL     1      45.249   3.613  12.321  0.00  0.00    +0.000 C 
ATOM     10  C   UNL     1      44.362   3.204  11.127  0.00  0.00    +0.000 C 
ATOM     11  N   UNL     1      42.917   3.415  11.368  0.00  0.00    +0.000 NA
ATOM     12  C   UNL     1      42.700   4.834  11.721  0.00  0.00    +0.000 C 
ATOM     13  C   UNL     1      43.545   5.315  12.924  0.00  0.00    +0.000 C 
ATOM     14  H   UNL     1      42.650   2.851  12.175  0.00  0.00    +0.000 HD
ENDBRANCH   6   8
BRANCH   1  15
ATOM     15  O   UNL     1      49.087   6.487  14.784  0.00  0.00    +0.000 OA
BRANCH  15  16
ATOM     16  C   UNL     1      48.810   6.914  16.126  0.00  0.00    +0.000 C 
BRANCH  16  21
ATOM     17  C   UNL     1      49.445   3.474  17.529  0.00  0.00    +0.000 A 
ATOM     18  C   UNL     1      48.891   3.612  18.799  0.00  0.00    +0.000 A 
ATOM     19  C   UNL     1      48.334   4.830  19.131  0.00  0.00    +0.000 A 
ATOM     20  N   UNL     1      48.291   5.885  18.291  0.00  0.00    +0.000 NA
ATOM     21  C   UNL     1      48.836   5.730  17.058  0.00  0.00    +0.000 A 
ATOM     22  C   UNL     1      49.443   4.551  16.650  0.00  0.00    +0.000 A 
BRANCH  17  24
ATOM     23  N   UNL     1      50.979   1.634  17.894  0.00  0.00    +0.000 N 
ATOM     24  C   UNL     1      50.051   2.203  17.070  0.00  0.00    +0.000 C 
ATOM     25  O   UNL     1      49.704   1.662  16.031  0.00  0.00    +0.000 OA
ATOM     26  H   UNL     1      51.270   0.696  17.647  0.00  0.00    +0.000 HD
ATOM     27  H   UNL     1      51.067   1.903  18.865  0.00  0.00    +0.000 HD
ENDBRANCH  17  24
ENDBRANCH  16  21
ENDBRANCH  15  16
ENDBRANCH   1  15
TORSDOF 5
ENDMDL
MODEL 5
REMARK VINA RESULT:    -6.998      3.077      7.683
REMARK INTER + INTRA:          -9.638
REMARK INTER:                  -9.018
REMARK INTRA:                  -0.620
REMARK UNBOUND:                -0.594
REMARK  Name = 
REMARK  5 active torsions:
REMARK  status: ('A' for Active; 'I' for Inactive)
REMARK    1  A    between atoms: C_2  and  C_4
REMARK    2  A    between atoms: C_8  and  C_9
REMARK    3  A    between atoms: C_9  and  O_10
REMARK    4  A    between atoms: O_10  and  C_11
REMARK    5  A    between atoms: C_16  and  N_17
REMARK                            x       y       z     vdW  Elec       q    Type
REMARK                         _______ _______ _______ _____ _____    ______ ____
ROOT
ATOM      1  C   UNL     1      45.435   5.440  12.243  0.00  0.00    +0.000 A 
ATOM      2  C   UNL     1      44.510   4.870  13.107  0.00  0.00    +0.000 A 
ATOM      3  C   UNL     1      43.767   3.784  12.668  0.00  0.00    +0.000 A 
ATOM      4  F   UNL     1      42.891   3.204  13.500  0.00  0.00    +0.000 F 
ATOM      5  C   UNL     1      43.932   3.265  11.384  0.00  0.00    +0.000 A 
ATOM      6  C   UNL     1      44.841   3.834  10.487  0.00  0.00    +0.000 A 
ATOM      7  C   UNL     1      45.560   4.946  10.941  0.00  0.00    +0.000 A 
ENDROOT
BRANCH   6   8
ATOM      8  N   UNL     1      45.055   3.331   9.222  0.00  0.00    +0.000 N 
ATOM      9  C   UNL     1      44.973   1.900   8.917  0.00  0.00    +0.000 C 
ATOM     10  C   UNL     1      46.247   1.445   8.176  0.00  0.00    +0.000 C 
ATOM     11  N   UNL     1      46.538   2.242   6.962  0.00  0.00    +0.000 NA
ATOM     12  C   UNL     1      46.633   3.667   7.344  0.00  0.00    +0.000 C 
ATOM     13  C   UNL     1      45.381   4.202   8.079  0.00  0.00    +0.000 C 
ATOM     14  H   UNL     1      45.745   2.143   6.328  0.00  0.00    +0.000 HD
ENDBRANCH   6   8
BRANCH   1  15
ATOM     15  O   UNL     1      46.184   6.474  12.738  0.00  0.00    +0.000 OA
BRANCH  15  16
ATOM     16  C   UNL     1      47.598   6.221  12.746  0.00  0.00    +0.000 C 
BRANCH  16  21
ATOM     17  C   UNL     1      47.940   5.161  16.347  0.00  0.00    +0.000 A 
ATOM     18  C   UNL     1      49.049   5.913  16.728  0.00  0.00    +0.000 A 
ATOM     19  C   UNL     1      49.628   6.734  15.782  0.00  0.00    +0.000 A 
ATOM     20  N   UNL     1      49.174   6.851  14.516  0.00  0.00    +0.000 NA
ATOM     21  C   UNL     1      48.092   6.110  14.165  0.00  0.00    +0.000 A 
ATOM     22  C   UNL     1      47.465   5.237  15.042  0.00  0.00    +0.000 A 
BRANCH  17  24
ATOM     23  N   UNL     1      47.248   4.630  18.608  0.00  0.00    +0.000 N 
ATOM     24  C   UNL     1      47.237   4.264  17.292  0.00  0.00    +0.000 C 
ATOM     25  O   UNL     1      46.633   3.272  16.911  0.00  0.00    +0.000 OA
ATOM     26  H   UNL     1      46.640   4.098  19.217  0.00  0.00    +0.000 HD
ATOM     27  H   UNL     1      47.486   5.568  18.899  0.00  0.00    +0.000 HD
ENDBRANCH  17  24
ENDBRANCH  16  21
ENDBRANCH  15  16
ENDBRANCH   1  15
TORSDOF 5
ENDMDL
MODEL 6
REMARK VINA RESULT:    -6.956      2.450      7.315
REMARK INTER + INTRA:          -9.584
REMARK INTER:                  -9.016
REMARK INTRA:                  -0.568
REMARK UNBOUND:                -0.594
REMARK  Name = 
REMARK  5 active torsions:
REMARK  status: ('A' for Active; 'I' for Inactive)
REMARK    1  A    between atoms: C_2  and  C_4
REMARK    2  A    between atoms: C_8  and  C_9
REMARK    3  A    between atoms: C_9  and  O_10
REMARK    4  A    between atoms: O_10  and  C_11
REMARK    5  A    between atoms: C_16  and  N_17
REMARK                            x       y       z     vdW  Elec       q    Type
REMARK                         _______ _______ _______ _____ _____    ______ ____
ROOT
ATOM      1  C   UNL     1      45.074   5.279  10.280  0.00  0.00    +0.000 A 
ATOM      2  C   UNL     1      44.124   4.658  11.080  0.00  0.00    +0.000 A 
ATOM      3  C   UNL     1      43.761   3.350  10.794  0.00  0.00    +0.000 A 
ATOM      4  F   UNL     1      42.867   2.727  11.574  0.00  0.00    +0.000 F 
ATOM      5  C   UNL     1      44.329   2.658   9.725  0.00  0.00    +0.000 A 
ATOM      6  C   UNL     1      45.273   3.267   8.891  0.00  0.00    +0.000 A 
ATOM      7  C   UNL     1      45.603   4.596   9.180  0.00  0.00    +0.000 A 
ENDROOT
BRANCH   6   8
ATOM      8  N   UNL     1      45.879   2.606   7.845  0.00  0.00    +0.000 N 
ATOM      9  C   UNL     1      46.186   1.174   7.886  0.00  0.00    +0.000 C 
ATOM     10  C   UNL     1      47.666   0.941   7.516  0.00  0.00    +0.000 C 
ATOM     11  N   UNL     1      48.048   1.540   6.216  0.00  0.00    +0.000 NA
ATOM     12  C   UNL     1      47.737   2.984   6.252  0.00  0.00    +0.000 C 
ATOM     13  C   UNL     1      46.262   3.297   6.601  0.00  0.00    +0.000 C 
ATOM     14  H   UNL     1      47.465   1.114   5.495  0.00  0.00    +0.000 HD
ENDBRANCH   6   8
BRANCH   1  15
ATOM     15  O   UNL     1      45.441   6.550  10.633  0.00  0.00    +0.000 OA
BRANCH  15  16
ATOM     16  C   UNL     1      45.017   6.937  11.949  0.00  0.00    +0.000 C 
BRANCH  16  21
ATOM     17  C   UNL     1      47.468   5.513  14.432  0.00  0.00    +0.000 A 
ATOM     18  C   UNL     1      48.287   6.620  14.644  0.00  0.00    +0.000 A 
ATOM     19  C   UNL     1      47.990   7.782  13.961  0.00  0.00    +0.000 A 
ATOM     20  N   UNL     1      46.950   7.902  13.109  0.00  0.00    +0.000 NA
ATOM     21  C   UNL     1      46.165   6.812  12.917  0.00  0.00    +0.000 A 
ATOM     22  C   UNL     1      46.406   5.596  13.539  0.00  0.00    +0.000 A 
BRANCH  17  24
ATOM     23  N   UNL     1      47.215   3.104  14.516  0.00  0.00    +0.000 N 
ATOM     24  C   UNL     1      47.692   4.227  15.130  0.00  0.00    +0.000 C 
ATOM     25  O   UNL     1      48.315   4.163  16.180  0.00  0.00    +0.000 OA
ATOM     26  H   UNL     1      47.506   2.223  14.922  0.00  0.00    +0.000 HD
ATOM     27  H   UNL     1      46.960   3.099  13.538  0.00  0.00    +0.000 HD
ENDBRANCH  17  24
ENDBRANCH  16  21
ENDBRANCH  15  16
ENDBRANCH   1  15
TORSDOF 5
ENDMDL
MODEL 7
REMARK VINA RESULT:    -6.922      4.593      8.398
REMARK INTER + INTRA:          -9.540
REMARK INTER:                  -8.933
REMARK INTRA:                  -0.606
REMARK UNBOUND:                -0.594
REMARK  Name = 
REMARK  5 active torsions:
REMARK  status: ('A' for Active; 'I' for Inactive)
REMARK    1  A    between atoms: C_2  and  C_4
REMARK    2  A    between atoms: C_8  and  C_9
REMARK    3  A    between atoms: C_9  and  O_10
REMARK    4  A    between atoms: O_10  and  C_11
REMARK    5  A    between atoms: C_16  and  N_17
REMARK                            x       y       z     vdW  Elec       q    Type
REMARK                         _______ _______ _______ _____ _____    ______ ____
ROOT
ATOM      1  C   UNL     1      47.408   6.521  13.276  0.00  0.00    +0.000 A 
ATOM      2  C   UNL     1      47.067   7.867  13.272  0.00  0.00    +0.000 A 
ATOM      3  C   UNL     1      45.864   8.250  12.698  0.00  0.00    +0.000 A 
ATOM      4  F   UNL     1      45.508   9.542  12.712  0.00  0.00    +0.000 F 
ATOM      5  C   UNL     1      45.003   7.313  12.129  0.00  0.00    +0.000 A 
ATOM      6  C   UNL     1      45.331   5.954  12.101  0.00  0.00    +0.000 A 
ATOM      7  C   UNL     1      46.563   5.593  12.660  0.00  0.00    +0.000 A 
ENDROOT
BRANCH   6   8
ATOM      8  N   UNL     1      44.493   4.995  11.576  0.00  0.00    +0.000 N 
ATOM      9  C   UNL     1      43.425   4.365  12.358  0.00  0.00    +0.000 C 
ATOM     10  C   UNL     1      43.532   2.830  12.254  0.00  0.00    +0.000 C 
ATOM     11  N   UNL     1      43.546   2.334  10.859  0.00  0.00    +0.000 NA
ATOM     12  C   UNL     1      44.658   2.986  10.137  0.00  0.00    +0.000 C 
ATOM     13  C   UNL     1      44.610   4.532  10.182  0.00  0.00    +0.000 C 
ATOM     14  H   UNL     1      42.674   2.626  10.416  0.00  0.00    +0.000 HD
ENDBRANCH   6   8
BRANCH   1  15
ATOM     15  O   UNL     1      48.578   6.184  13.903  0.00  0.00    +0.000 OA
BRANCH  15  16
ATOM     16  C   UNL     1      48.690   6.684  15.244  0.00  0.00    +0.000 C 
BRANCH  16  21
ATOM     17  C   UNL     1      48.518   4.735  18.464  0.00  0.00    +0.000 A 
ATOM     18  C   UNL     1      48.054   3.508  17.993  0.00  0.00    +0.000 A 
ATOM     19  C   UNL     1      47.823   3.383  16.639  0.00  0.00    +0.000 A 
ATOM     20  N   UNL     1      48.029   4.378  15.750  0.00  0.00    +0.000 NA
ATOM     21  C   UNL     1      48.481   5.565  16.229  0.00  0.00    +0.000 A 
ATOM     22  C   UNL     1      48.712   5.789  17.579  0.00  0.00    +0.000 A 
BRANCH  17  24
ATOM     23  N   UNL     1      48.545   3.934  20.751  0.00  0.00    +0.000 N 
ATOM     24  C   UNL     1      48.813   4.965  19.896  0.00  0.00    +0.000 C 
ATOM     25  O   UNL     1      49.317   6.006  20.291  0.00  0.00    +0.000 OA
ATOM     26  H   UNL     1      48.892   4.045  21.696  0.00  0.00    +0.000 HD
ATOM     27  H   UNL     1      48.405   2.989  20.420  0.00  0.00    +0.000 HD
ENDBRANCH  17  24
ENDBRANCH  16  21
ENDBRANCH  15  16
ENDBRANCH   1  15
TORSDOF 5
ENDMDL
MODEL 8
REMARK VINA RESULT:    -6.878      5.295      8.164
REMARK INTER + INTRA:          -9.482
REMARK INTER:                  -8.825
REMARK INTRA:                  -0.657
REMARK UNBOUND:                -0.594
REMARK  Name = 
REMARK  5 active torsions:
REMARK  status: ('A' for Active; 'I' for Inactive)
REMARK    1  A    between atoms: C_2  and  C_4
REMARK    2  A    between atoms: C_8  and  C_9
REMARK    3  A    between atoms: C_9  and  O_10
REMARK    4  A    between atoms: O_10  and  C_11
REMARK    5  A    between atoms: C_16  and  N_17
REMARK                            x       y       z     vdW  Elec       q    Type
REMARK                         _______ _______ _______ _____ _____    ______ ____
ROOT
ATOM      1  C   UNL     1      48.170   6.213  14.305  0.00  0.00    +0.000 A 
ATOM      2  C   UNL     1      48.597   7.111  13.335  0.00  0.00    +0.000 A 
ATOM      3  C   UNL     1      47.867   7.222  12.161  0.00  0.00    +0.000 A 
ATOM      4  F   UNL     1      48.249   8.105  11.228  0.00  0.00    +0.000 F 
ATOM      5  C   UNL     1      46.726   6.452  11.941  0.00  0.00    +0.000 A 
ATOM      6  C   UNL     1      46.287   5.524  12.892  0.00  0.00    +0.000 A 
ATOM      7  C   UNL     1      47.054   5.408  14.057  0.00  0.00    +0.000 A 
ENDROOT
BRANCH   6   8
ATOM      8  N   UNL     1      45.148   4.767  12.724  0.00  0.00    +0.000 N 
ATOM      9  C   UNL     1      45.187   3.361  12.312  0.00  0.00    +0.000 C 
ATOM     10  C   UNL     1      44.250   3.139  11.107  0.00  0.00    +0.000 C 
ATOM     11  N   UNL     1      42.861   3.594  11.351  0.00  0.00    +0.000 NA
ATOM     12  C   UNL     1      42.892   5.020  11.736  0.00  0.00    +0.000 C 
ATOM     13  C   UNL     1      43.801   5.320  12.951  0.00  0.00    +0.000 C 
ATOM     14  H   UNL     1      42.496   3.066  12.144  0.00  0.00    +0.000 HD
ENDBRANCH   6   8
BRANCH   1  15
ATOM     15  O   UNL     1      48.889   6.178  15.470  0.00  0.00    +0.000 OA
BRANCH  15  16
ATOM     16  C   UNL     1      48.292   5.377  16.502  0.00  0.00    +0.000 C 
BRANCH  16  21
ATOM     17  C   UNL     1      51.164   3.204  17.611  0.00  0.00    +0.000 A 
ATOM     18  C   UNL     1      50.664   1.943  17.296  0.00  0.00    +0.000 A 
ATOM     19  C   UNL     1      49.407   1.870  16.731  0.00  0.00    +0.000 A 
ATOM     20  N   UNL     1      48.645   2.951  16.463  0.00  0.00    +0.000 NA
ATOM     21  C   UNL     1      49.150   4.171  16.778  0.00  0.00    +0.000 A 
ATOM     22  C   UNL     1      50.392   4.336  17.375  0.00  0.00    +0.000 A 
BRANCH  17  24
ATOM     23  N   UNL     1      52.971   2.385  19.003  0.00  0.00    +0.000 N 
ATOM     24  C   UNL     1      52.508   3.390  18.202  0.00  0.00    +0.000 C 
ATOM     25  O   UNL     1      53.194   4.370  17.950  0.00  0.00    +0.000 OA
ATOM     26  H   UNL     1      53.944   2.451  19.274  0.00  0.00    +0.000 HD
ATOM     27  H   UNL     1      52.557   1.463  18.994  0.00  0.00    +0.000 HD
ENDBRANCH  17  24
ENDBRANCH  16  21
ENDBRANCH  15  16
ENDBRANCH   1  15
TORSDOF 5
ENDMDL
MODEL 9
REMARK VINA RESULT:    -6.756      2.724      7.803
REMARK INTER + INTRA:          -9.325
REMARK INTER:                  -8.637
REMARK INTRA:                  -0.687
REMARK UNBOUND:                -0.594
REMARK  Name = 
REMARK  5 active torsions:
REMARK  status: ('A' for Active; 'I' for Inactive)
REMARK    1  A    between atoms: C_2  and  C_4
REMARK    2  A    between atoms: C_8  and  C_9
REMARK    3  A    between atoms: C_9  and  O_10
REMARK    4  A    between atoms: O_10  and  C_11
REMARK    5  A    between atoms: C_16  and  N_17
REMARK                            x       y       z     vdW  Elec       q    Type
REMARK                         _______ _______ _______ _____ _____    ______ ____
ROOT
ATOM      1  C   UNL     1      45.425   5.578  10.538  0.00  0.00    +0.000 A 
ATOM      2  C   UNL     1      44.373   5.101  11.309  0.00  0.00    +0.000 A 
ATOM      3  C   UNL     1      43.806   3.878  10.981  0.00  0.00    +0.000 A 
ATOM      4  F   UNL     1      42.809   3.389  11.732  0.00  0.00    +0.000 F 
ATOM      5  C   UNL     1      44.270   3.131   9.899  0.00  0.00    +0.000 A 
ATOM      6  C   UNL     1      45.314   3.599   9.094  0.00  0.00    +0.000 A 
ATOM      7  C   UNL     1      45.852   4.848   9.425  0.00  0.00    +0.000 A 
ENDROOT
BRANCH   6   8
ATOM      8  N   UNL     1      45.821   2.876   8.036  0.00  0.00    +0.000 N 
ATOM      9  C   UNL     1      45.752   1.414   7.973  0.00  0.00    +0.000 C 
ATOM     10  C   UNL     1      47.151   0.833   7.681  0.00  0.00    +0.000 C 
ATOM     11  N   UNL     1      47.781   1.398   6.466  0.00  0.00    +0.000 NA
ATOM     12  C   UNL     1      47.843   2.868   6.606  0.00  0.00    +0.000 C 
ATOM     13  C   UNL     1      46.470   3.527   6.884  0.00  0.00    +0.000 C 
ATOM     14  H   UNL     1      47.174   1.187   5.674  0.00  0.00    +0.000 HD
ENDBRANCH   6   8
BRANCH   1  15
ATOM     15  O   UNL     1      45.989   6.762  10.933  0.00  0.00    +0.000 OA
BRANCH  15  16
ATOM     16  C   UNL     1      45.329   7.382  12.047  0.00  0.00    +0.000 C 
BRANCH  16  21
ATOM     17  C   UNL     1      43.230  10.305  10.930  0.00  0.00    +0.000 A 
ATOM     18  C   UNL     1      44.153  11.342  11.055  0.00  0.00    +0.000 A 
ATOM     19  C   UNL     1      45.421  11.027  11.498  0.00  0.00    +0.000 A 
ATOM     20  N   UNL     1      45.814   9.774  11.808  0.00  0.00    +0.000 NA
ATOM     21  C   UNL     1      44.900   8.778  11.680  0.00  0.00    +0.000 A 
ATOM     22  C   UNL     1      43.595   9.007  11.270  0.00  0.00    +0.000 A 
BRANCH  17  24
ATOM     23  N   UNL     1      40.867   9.772  11.007  0.00  0.00    +0.000 N 
ATOM     24  C   UNL     1      41.850  10.536  10.446  0.00  0.00    +0.000 C 
ATOM     25  O   UNL     1      41.593  11.401   9.622  0.00  0.00    +0.000 OA
ATOM     26  H   UNL     1      39.918  10.043  10.784  0.00  0.00    +0.000 HD
ATOM     27  H   UNL     1      41.011   9.269  11.872  0.00  0.00    +0.000 HD
ENDBRANCH  17  24
ENDBRANCH  16  21
ENDBRANCH  15  16
ENDBRANCH   1  15
TORSDOF 5
ENDMDL
