MODEL 1
REMARK VINA RESULT:    -7.397      0.000      0.000
REMARK INTER + INTRA:         -10.281
REMARK INTER:                  -9.127
REMARK INTRA:                  -1.154
REMARK UNBOUND:                -1.154
REMARK  Name = 
REMARK  4 active torsions:
REMARK  status: ('A' for Active; 'I' for Inactive)
REMARK    1  A    between atoms: C_4  and  C_5
REMARK    2  A    between atoms: C_9  and  C_10
REMARK    3  A    between atoms: C_10  and  N_11
REMARK    4  A    between atoms: N_11  and  C_12
REMARK                            x       y       z     vdW  Elec       q    Type
REMARK                         _______ _______ _______ _____ _____    ______ ____
ROOT
ATOM      1  C   UNL     1      47.190   6.545  12.461  0.00  0.00    +0.000 A 
ATOM      2  C   UNL     1      47.597   5.570  13.384  0.00  0.00    +0.000 A 
ATOM      3  C   UNL     1      46.789   4.465  13.671  0.00  0.00    +0.000 A 
ATOM      4  C   UNL     1      45.570   4.297  13.015  0.00  0.00    +0.000 A 
ATOM      5  C   UNL     1      45.121   5.228  12.069  0.00  0.00    +0.000 A 
ATOM      6  C   UNL     1      45.940   6.352  11.840  0.00  0.00    +0.000 A 
ENDROOT
BRANCH   1  10
ATOM      7  C   UNL     1      49.610   9.967  11.436  0.00  0.00    +0.000 A 
ATOM      8  C   UNL     1      50.163   8.693  11.431  0.00  0.00    +0.000 A 
ATOM      9  C   UNL     1      49.382   7.590  11.788  0.00  0.00    +0.000 A 
ATOM     10  C   UNL     1      48.023   7.728  12.138  0.00  0.00    +0.000 A 
ATOM     11  C   UNL     1      47.493   9.030  12.145  0.00  0.00    +0.000 A 
ATOM     12  C   UNL     1      48.277  10.138  11.802  0.00  0.00    +0.000 A 
ENDBRANCH   1  10
BRANCH   5  13
ATOM     13  C   UNL     1      43.819   5.044  11.289  0.00  0.00    +0.000 C 
ATOM     14  C   UNL     1      42.951   6.261  11.041  0.00  0.00    +0.000 C 
ATOM     15  C   UNL     1      42.516   5.264  12.061  0.00  0.00    +0.000 C 
BRANCH  13  16
ATOM     16  N   UNL     1      43.784   3.846  10.433  0.00  0.00    +0.000 N 
ATOM     17  H   UNL     1      43.304   3.047  10.839  0.00  0.00    +0.000 HD
BRANCH  16  18
ATOM     18  C   UNL     1      44.740   3.466   9.476  0.00  0.00    +0.000 A 
ATOM     19  C   UNL     1      45.315   4.331   8.551  0.00  0.00    +0.000 A 
ATOM     20  C   UNL     1      46.188   3.812   7.603  0.00  0.00    +0.000 A 
ATOM     21  N   UNL     1      46.502   2.502   7.490  0.00  0.00    +0.000 NA
ATOM     22  C   UNL     1      45.910   1.673   8.370  0.00  0.00    +0.000 A 
ATOM     23  C   UNL     1      45.035   2.103   9.358  0.00  0.00    +0.000 A 
ENDBRANCH  16  18
ENDBRANCH  13  16
ENDBRANCH   5  13
TORSDOF 4
ENDMDL
MODEL 2
REMARK VINA RESULT:    -7.287      2.804      6.602
REMARK INTER + INTRA:         -10.146
REMARK INTER:                  -9.059
REMARK INTRA:                  -1.087
REMARK UNBOUND:                -1.154
REMARK  Name = 
REMARK  4 active torsions:
REMARK  status: ('A' for Active; 'I' for Inactive)
REMARK    1  A    between atoms: C_4  and  C_5
REMARK    2  A    between atoms: C_9  and  C_10
REMARK    3  A    between atoms: C_10  and  N_11
REMARK    4  A    between atoms: N_11  and  C_12
REMARK                            x       y       z     vdW  Elec       q    Type
REMARK                         _______ _______ _______ _____ _____    ______ ____
ROOT
ATOM      1  C   UNL     1      44.878   4.422   9.992  0.00  0.00    +0.000 A 
ATOM      2  C   UNL     1      43.556   4.200  10.405  0.00  0.00    +0.000 A 
ATOM      3  C   UNL     1      42.969   4.984  11.403  0.00  0.00    +0.000 A 
ATOM      4  C   UNL     1      43.685   6.029  11.987  0.00  0.00    +0.000 A 
ATOM      5  C   UNL     1      45.003   6.310  11.602  0.00  0.00    +0.000 A 
ATOM      6  C   UNL     1      45.576   5.470  10.626  0.00  0.00    +0.000 A 
ENDROOT
BRANCH   1  10
ATOM      7  C   UNL     1      46.848   2.071   6.958  0.00  0.00    +0.000 A 
ATOM      8  C   UNL     1      46.820   3.455   6.859  0.00  0.00    +0.000 A 
ATOM      9  C   UNL     1      46.159   4.212   7.832  0.00  0.00    +0.000 A 
ATOM     10  C   UNL     1      45.528   3.607   8.939  0.00  0.00    +0.000 A 
ATOM     11  C   UNL     1      45.564   2.203   9.006  0.00  0.00    +0.000 A 
ATOM     12  C   UNL     1      46.213   1.442   8.026  0.00  0.00    +0.000 A 
ENDBRANCH   1  10
BRANCH   5  13
ATOM     13  C   UNL     1      45.795   7.483  12.179  0.00  0.00    +0.000 C 
ATOM     14  C   UNL     1      47.283   7.549  11.907  0.00  0.00    +0.000 C 
ATOM     15  C   UNL     1      46.819   7.154  13.268  0.00  0.00    +0.000 C 
BRANCH  13  16
ATOM     16  N   UNL     1      44.984   8.671  12.494  0.00  0.00    +0.000 N 
ATOM     17  H   UNL     1      44.300   8.536  13.234  0.00  0.00    +0.000 HD
BRANCH  16  18
ATOM     18  C   UNL     1      44.618   9.700  11.609  0.00  0.00    +0.000 A 
ATOM     19  C   UNL     1      43.538   9.641  10.736  0.00  0.00    +0.000 A 
ATOM     20  C   UNL     1      43.332  10.694   9.853  0.00  0.00    +0.000 A 
ATOM     21  N   UNL     1      44.136  11.775   9.755  0.00  0.00    +0.000 NA
ATOM     22  C   UNL     1      45.198  11.801  10.582  0.00  0.00    +0.000 A 
ATOM     23  C   UNL     1      45.475  10.802  11.504  0.00  0.00    +0.000 A 
ENDBRANCH  16  18
ENDBRANCH  13  16
ENDBRANCH   5  13
TORSDOF 4
ENDMDL
MODEL 3
REMARK VINA RESULT:    -7.250      2.489      6.470
REMARK INTER + INTRA:         -10.099
REMARK INTER:                  -9.017
REMARK INTRA:                  -1.082
REMARK UNBOUND:                -1.154
REMARK  Name = 
REMARK  4 active torsions:
REMARK  status: ('A' for Active; 'I' for Inactive)
REMARK    1  A    between atoms: C_4  and  C_5
REMARK    2  A    between atoms: C_9  and  C_10
REMARK    3  A    between atoms: C_10  and  N_11
REMARK    4  A    between atoms: N_11  and  C_12
REMARK                            x       y       z     vdW  Elec       q    Type
REMARK                         _______ _______ _______ _____ _____    ______ ____
ROOT
ATOM      1  C   UNL     1      44.965   4.461   9.880  0.00  0.00    +0.000 A 
ATOM      2  C   UNL     1      43.582   4.489  10.114  0.00  0.00    +0.000 A 
ATOM      3  C   UNL     1      43.030   5.340  11.077  0.00  0.00    +0.000 A 
ATOM      4  C   UNL     1      43.849   6.203  11.804  0.00  0.00    +0.000 A 
ATOM      5  C   UNL     1      45.236   6.233  11.600  0.00  0.00    +0.000 A 
ATOM      6  C   UNL     1      45.761   5.329  10.654  0.00  0.00    +0.000 A 
ENDROOT
BRANCH   1  10
ATOM      7  C   UNL     1      46.834   1.885   6.966  0.00  0.00    +0.000 A 
ATOM      8  C   UNL     1      46.860   3.263   6.799  0.00  0.00    +0.000 A 
ATOM      9  C   UNL     1      46.232   4.093   7.733  0.00  0.00    +0.000 A 
ATOM     10  C   UNL     1      45.580   3.569   8.868  0.00  0.00    +0.000 A 
ATOM     11  C   UNL     1      45.560   2.170   9.005  0.00  0.00    +0.000 A 
ATOM     12  C   UNL     1      46.176   1.336   8.064  0.00  0.00    +0.000 A 
ENDBRANCH   1  10
BRANCH   5  13
ATOM     13  C   UNL     1      46.154   7.207  12.336  0.00  0.00    +0.000 C 
ATOM     14  C   UNL     1      45.538   8.441  12.963  0.00  0.00    +0.000 C 
ATOM     15  C   UNL     1      46.333   8.593  11.710  0.00  0.00    +0.000 C 
BRANCH  13  16
ATOM     16  N   UNL     1      47.422   6.620  12.800  0.00  0.00    +0.000 N 
ATOM     17  H   UNL     1      48.032   6.285  12.059  0.00  0.00    +0.000 HD
BRANCH  16  18
ATOM     18  C   UNL     1      47.647   5.957  14.019  0.00  0.00    +0.000 A 
ATOM     19  C   UNL     1      47.006   4.786  14.409  0.00  0.00    +0.000 A 
ATOM     20  C   UNL     1      47.257   4.275  15.676  0.00  0.00    +0.000 A 
ATOM     21  N   UNL     1      48.067   4.859  16.586  0.00  0.00    +0.000 NA
ATOM     22  C   UNL     1      48.653   6.010  16.208  0.00  0.00    +0.000 A 
ATOM     23  C   UNL     1      48.471   6.587  14.959  0.00  0.00    +0.000 A 
ENDBRANCH  16  18
ENDBRANCH  13  16
ENDBRANCH   5  13
TORSDOF 4
ENDMDL
MODEL 4
REMARK VINA RESULT:    -6.896      1.725      3.639
REMARK INTER + INTRA:          -9.663
REMARK INTER:                  -9.364
REMARK INTRA:                  -0.299
REMARK UNBOUND:                -1.154
REMARK  Name = 
REMARK  4 active torsions:
REMARK  status: ('A' for Active; 'I' for Inactive)
REMARK    1  A    between atoms: C_4  and  C_5
REMARK    2  A    between atoms: C_9  and  C_10
REMARK    3  A    between atoms: C_10  and  N_11
REMARK    4  A    between atoms: N_11  and  C_12
REMARK                            x       y       z     vdW  Elec       q    Type
REMARK                         _______ _______ _______ _____ _____    ______ ____
ROOT
ATOM      1  C   UNL     1      47.039   5.544  13.668  0.00  0.00    +0.000 A 
ATOM      2  C   UNL     1      47.708   6.525  12.919  0.00  0.00    +0.000 A 
ATOM      3  C   UNL     1      47.239   6.919  11.664  0.00  0.00    +0.000 A 
ATOM      4  C   UNL     1      46.070   6.363  11.144  0.00  0.00    +0.000 A 
ATOM      5  C   UNL     1      45.349   5.394  11.854  0.00  0.00    +0.000 A 
ATOM      6  C   UNL     1      45.878   4.987  13.096  0.00  0.00    +0.000 A 
ENDROOT
BRANCH   1  10
ATOM      7  C   UNL     1      48.370   4.324  17.587  0.00  0.00    +0.000 A 
ATOM      8  C   UNL     1      48.873   5.481  17.008  0.00  0.00    +0.000 A 
ATOM      9  C   UNL     1      48.457   5.860  15.727  0.00  0.00    +0.000 A 
ATOM     10  C   UNL     1      47.514   5.103  15.002  0.00  0.00    +0.000 A 
ATOM     11  C   UNL     1      47.031   3.931  15.609  0.00  0.00    +0.000 A 
ATOM     12  C   UNL     1      47.456   3.542  16.885  0.00  0.00    +0.000 A 
ENDBRANCH   1  10
BRANCH   5  13
ATOM     13  C   UNL     1      44.035   4.807  11.341  0.00  0.00    +0.000 C 
ATOM     14  C   UNL     1      42.785   5.007  12.172  0.00  0.00    +0.000 C 
ATOM     15  C   UNL     1      43.427   3.661  12.154  0.00  0.00    +0.000 C 
BRANCH  13  16
ATOM     16  N   UNL     1      44.001   4.561   9.889  0.00  0.00    +0.000 N 
ATOM     17  H   UNL     1      43.072   4.572   9.477  0.00  0.00    +0.000 HD
BRANCH  16  18
ATOM     18  C   UNL     1      44.907   3.785   9.145  0.00  0.00    +0.000 A 
ATOM     19  C   UNL     1      45.710   4.277   8.122  0.00  0.00    +0.000 A 
ATOM     20  C   UNL     1      46.504   3.387   7.408  0.00  0.00    +0.000 A 
ATOM     21  N   UNL     1      46.530   2.053   7.616  0.00  0.00    +0.000 NA
ATOM     22  C   UNL     1      45.721   1.587   8.585  0.00  0.00    +0.000 A 
ATOM     23  C   UNL     1      44.905   2.401   9.357  0.00  0.00    +0.000 A 
ENDBRANCH  16  18
ENDBRANCH  13  16
ENDBRANCH   5  13
TORSDOF 4
ENDMDL
MODEL 5
REMARK VINA RESULT:    -6.682      1.343      2.085
REMARK INTER + INTRA:          -9.398
REMARK INTER:                  -8.865
REMARK INTRA:                  -0.534
REMARK UNBOUND:                -1.154
REMARK  Name = 
REMARK  4 active torsions:
REMARK  status: ('A' for Active; 'I' for Inactive)
REMARK    1  A    between atoms: C_4  and  C_5
REMARK    2  A    between atoms: C_9  and  C_10
REMARK    3  A    between atoms: C_10  and  N_11
REMARK    4  A    between atoms: N_11  and  C_12
REMARK                            x       y       z     vdW  Elec       q    Type
REMARK                         _______ _______ _______ _____ _____    ______ ____
ROOT
ATOM      1  C   UNL     1      46.194   7.817  12.081  0.00  0.00    +0.000 A 
ATOM      2  C   UNL     1      47.178   7.033  12.703  0.00  0.00    +0.000 A 
ATOM      3  C   UNL     1      47.027   5.649  12.828  0.00  0.00    +0.000 A 
ATOM      4  C   UNL     1      45.901   5.015  12.305  0.00  0.00    +0.000 A 
ATOM      5  C   UNL     1      44.894   5.743  11.656  0.00  0.00    +0.000 A 
ATOM      6  C   UNL     1      45.059   7.142  11.589  0.00  0.00    +0.000 A 
ENDROOT
BRANCH   1  10
ATOM      7  C   UNL     1      46.546  12.103  11.738  0.00  0.00    +0.000 A 
ATOM      8  C   UNL     1      45.298  11.498  11.675  0.00  0.00    +0.000 A 
ATOM      9  C   UNL     1      45.191  10.106  11.761  0.00  0.00    +0.000 A 
ATOM     10  C   UNL     1      46.325   9.286  11.934  0.00  0.00    +0.000 A 
ATOM     11  C   UNL     1      47.576   9.926  11.984  0.00  0.00    +0.000 A 
ATOM     12  C   UNL     1      47.687  11.318  11.883  0.00  0.00    +0.000 A 
ENDBRANCH   1  10
BRANCH   5  13
ATOM     13  C   UNL     1      43.676   5.074  11.020  0.00  0.00    +0.000 C 
ATOM     14  C   UNL     1      42.326   5.257  11.683  0.00  0.00    +0.000 C 
ATOM     15  C   UNL     1      43.019   3.942  11.813  0.00  0.00    +0.000 C 
BRANCH  13  16
ATOM     16  N   UNL     1      43.830   4.757   9.590  0.00  0.00    +0.000 N 
ATOM     17  H   UNL     1      42.966   4.769   9.056  0.00  0.00    +0.000 HD
BRANCH  16  18
ATOM     18  C   UNL     1      44.805   3.926   9.012  0.00  0.00    +0.000 A 
ATOM     19  C   UNL     1      45.776   4.357   8.115  0.00  0.00    +0.000 A 
ATOM     20  C   UNL     1      46.631   3.417   7.552  0.00  0.00    +0.000 A 
ATOM     21  N   UNL     1      46.567   2.089   7.789  0.00  0.00    +0.000 NA
ATOM     22  C   UNL     1      45.599   1.683   8.631  0.00  0.00    +0.000 A 
ATOM     23  C   UNL     1      44.709   2.550   9.250  0.00  0.00    +0.000 A 
ENDBRANCH  16  18
ENDBRANCH  13  16
ENDBRANCH   5  13
TORSDOF 4
ENDMDL
MODEL 6
REMARK VINA RESULT:    -6.440      1.317      2.285
REMARK INTER + INTRA:          -9.100
REMARK INTER:                  -8.605
REMARK INTRA:                  -0.495
REMARK UNBOUND:                -1.154
REMARK  Name = 
REMARK  4 active torsions:
REMARK  status: ('A' for Active; 'I' for Inactive)
REMARK    1  A    between atoms: C_4  and  C_5
REMARK    2  A    between atoms: C_9  and  C_10
REMARK    3  A    between atoms: C_10  and  N_11
REMARK    4  A    between atoms: N_11  and  C_12
REMARK                            x       y       z     vdW  Elec       q    Type
REMARK                         _______ _______ _______ _____ _____    ______ ____
ROOT
ATOM      1  C   UNL     1      46.280   7.039  11.983  0.00  0.00    +0.000 A 
ATOM      2  C   UNL     1      45.294   8.021  11.805  0.00  0.00    +0.000 A 
ATOM      3  C   UNL     1      43.998   7.680  11.409  0.00  0.00    +0.000 A 
ATOM      4  C   UNL     1      43.652   6.343  11.212  0.00  0.00    +0.000 A 
ATOM      5  C   UNL     1      44.590   5.317  11.393  0.00  0.00    +0.000 A 
ATOM      6  C   UNL     1      45.898   5.703  11.748  0.00  0.00    +0.000 A 
ENDROOT
BRANCH   1  10
ATOM      7  C   UNL     1      50.321   7.917  13.214  0.00  0.00    +0.000 A 
ATOM      8  C   UNL     1      49.349   7.627  14.163  0.00  0.00    +0.000 A 
ATOM      9  C   UNL     1      48.035   7.368  13.761  0.00  0.00    +0.000 A 
ATOM     10  C   UNL     1      47.663   7.370  12.400  0.00  0.00    +0.000 A 
ATOM     11  C   UNL     1      48.665   7.678  11.464  0.00  0.00    +0.000 A 
ATOM     12  C   UNL     1      49.979   7.952  11.865  0.00  0.00    +0.000 A 
ENDBRANCH   1  10
BRANCH   5  13
ATOM     13  C   UNL     1      44.230   3.839  11.243  0.00  0.00    +0.000 C 
ATOM     14  C   UNL     1      43.533   3.149  12.398  0.00  0.00    +0.000 C 
ATOM     15  C   UNL     1      44.974   2.854  12.148  0.00  0.00    +0.000 C 
BRANCH  13  16
ATOM     16  N   UNL     1      44.126   3.374   9.850  0.00  0.00    +0.000 N 
ATOM     17  H   UNL     1      43.335   2.765   9.662  0.00  0.00    +0.000 HD
BRANCH  16  18
ATOM     18  C   UNL     1      45.187   3.165   8.951  0.00  0.00    +0.000 A 
ATOM     19  C   UNL     1      45.764   4.160   8.170  0.00  0.00    +0.000 A 
ATOM     20  C   UNL     1      46.752   3.806   7.259  0.00  0.00    +0.000 A 
ATOM     21  N   UNL     1      47.178   2.542   7.048  0.00  0.00    +0.000 NA
ATOM     22  C   UNL     1      46.585   1.585   7.786  0.00  0.00    +0.000 A 
ATOM     23  C   UNL     1      45.600   1.846   8.728  0.00  0.00    +0.000 A 
ENDBRANCH  16  18
ENDBRANCH  13  16
ENDBRANCH   5  13
TORSDOF 4
ENDMDL
MODEL 7
REMARK VINA RESULT:    -5.967      2.982      6.847
REMARK INTER + INTRA:          -8.516
REMARK INTER:                  -7.412
REMARK INTRA:                  -1.104
REMARK UNBOUND:                -1.154
REMARK  Name = 
REMARK  4 active torsions:
REMARK  status: ('A' for Active; 'I' for Inactive)
REMARK    1  A    between atoms: C_4  and  C_5
REMARK    2  A    between atoms: C_9  and  C_10
REMARK    3  A    between atoms: C_10  and  N_11
REMARK    4  A    between atoms: N_11  and  C_12
REMARK                            x       y       z     vdW  Elec       q    Type
REMARK                         _______ _______ _______ _____ _____    ______ ____
ROOT
ATOM      1  C   UNL     1      45.451   6.285  11.320  0.00  0.00    +0.000 A 
ATOM      2  C   UNL     1      44.545   7.356  11.350  0.00  0.00    +0.000 A 
ATOM      3  C   UNL     1      44.778   8.477  12.153  0.00  0.00    +0.000 A 
ATOM      4  C   UNL     1      45.941   8.562  12.919  0.00  0.00    +0.000 A 
ATOM      5  C   UNL     1      46.891   7.532  12.914  0.00  0.00    +0.000 A 
ATOM      6  C   UNL     1      46.600   6.398  12.128  0.00  0.00    +0.000 A 
ENDROOT
BRANCH   1  10
ATOM      7  C   UNL     1      44.723   2.809   8.869  0.00  0.00    +0.000 A 
ATOM      8  C   UNL     1      44.321   2.823  10.198  0.00  0.00    +0.000 A 
ATOM      9  C   UNL     1      44.581   3.943  10.995  0.00  0.00    +0.000 A 
ATOM     10  C   UNL     1      45.231   5.083  10.480  0.00  0.00    +0.000 A 
ATOM     11  C   UNL     1      45.636   5.036   9.135  0.00  0.00    +0.000 A 
ATOM     12  C   UNL     1      45.390   3.911   8.338  0.00  0.00    +0.000 A 
ENDBRANCH   1  10
BRANCH   5  13
ATOM     13  C   UNL     1      48.202   7.620  13.695  0.00  0.00    +0.000 C 
ATOM     14  C   UNL     1      48.633   8.971  14.226  0.00  0.00    +0.000 C 
ATOM     15  C   UNL     1      49.342   8.405  13.042  0.00  0.00    +0.000 C 
BRANCH  13  16
ATOM     16  N   UNL     1      48.647   6.347  14.286  0.00  0.00    +0.000 N 
ATOM     17  H   UNL     1      48.933   5.642  13.612  0.00  0.00    +0.000 HD
BRANCH  16  18
ATOM     18  C   UNL     1      48.212   5.783  15.498  0.00  0.00    +0.000 A 
ATOM     19  C   UNL     1      48.677   6.159  16.753  0.00  0.00    +0.000 A 
ATOM     20  C   UNL     1      48.227   5.466  17.870  0.00  0.00    +0.000 A 
ATOM     21  N   UNL     1      47.381   4.413  17.823  0.00  0.00    +0.000 NA
ATOM     22  C   UNL     1      46.968   4.037  16.599  0.00  0.00    +0.000 A 
ATOM     23  C   UNL     1      47.355   4.679  15.430  0.00  0.00    +0.000 A 
ENDBRANCH  16  18
ENDBRANCH  13  16
ENDBRANCH   5  13
TORSDOF 4
ENDMDL
MODEL 8
REMARK VINA RESULT:    -5.925      3.275      7.300
REMARK INTER + INTRA:          -8.465
REMARK INTER:                  -7.548
REMARK INTRA:                  -0.917
REMARK UNBOUND:                -1.154
REMARK  Name = 
REMARK  4 active torsions:
REMARK  status: ('A' for Active; 'I' for Inactive)
REMARK    1  A    between atoms: C_4  and  C_5
REMARK    2  A    between atoms: C_9  and  C_10
REMARK    3  A    between atoms: C_10  and  N_11
REMARK    4  A    between atoms: N_11  and  C_12
REMARK                            x       y       z     vdW  Elec       q    Type
REMARK                         _______ _______ _______ _____ _____    ______ ____
ROOT
ATOM      1  C   UNL     1      45.711   6.292  11.268  0.00  0.00    +0.000 A 
ATOM      2  C   UNL     1      44.794   7.260  11.706  0.00  0.00    +0.000 A 
ATOM      3  C   UNL     1      45.212   8.368  12.449  0.00  0.00    +0.000 A 
ATOM      4  C   UNL     1      46.564   8.547  12.743  0.00  0.00    +0.000 A 
ATOM      5  C   UNL     1      47.528   7.623  12.316  0.00  0.00    +0.000 A 
ATOM      6  C   UNL     1      47.063   6.496  11.609  0.00  0.00    +0.000 A 
ENDROOT
BRANCH   1  10
ATOM      7  C   UNL     1      44.590   2.811   8.979  0.00  0.00    +0.000 A 
ATOM      8  C   UNL     1      45.273   3.856   8.371  0.00  0.00    +0.000 A 
ATOM      9  C   UNL     1      45.612   4.994   9.111  0.00  0.00    +0.000 A 
ATOM     10  C   UNL     1      45.297   5.106  10.481  0.00  0.00    +0.000 A 
ATOM     11  C   UNL     1      44.597   4.038  11.066  0.00  0.00    +0.000 A 
ATOM     12  C   UNL     1      44.243   2.904  10.324  0.00  0.00    +0.000 A 
ENDBRANCH   1  10
BRANCH   5  13
ATOM     13  C   UNL     1      49.022   7.819  12.569  0.00  0.00    +0.000 C 
ATOM     14  C   UNL     1      49.679   9.083  12.053  0.00  0.00    +0.000 C 
ATOM     15  C   UNL     1      49.938   7.797  11.343  0.00  0.00    +0.000 C 
BRANCH  13  16
ATOM     16  N   UNL     1      49.557   7.041  13.699  0.00  0.00    +0.000 N 
ATOM     17  H   UNL     1      49.789   6.076  13.479  0.00  0.00    +0.000 HD
BRANCH  16  18
ATOM     18  C   UNL     1      49.265   7.224  15.062  0.00  0.00    +0.000 A 
ATOM     19  C   UNL     1      48.893   6.204  15.931  0.00  0.00    +0.000 A 
ATOM     20  C   UNL     1      48.551   6.530  17.237  0.00  0.00    +0.000 A 
ATOM     21  N   UNL     1      48.519   7.790  17.726  0.00  0.00    +0.000 NA
ATOM     22  C   UNL     1      48.847   8.769  16.863  0.00  0.00    +0.000 A 
ATOM     23  C   UNL     1      49.214   8.536  15.545  0.00  0.00    +0.000 A 
ENDBRANCH  16  18
ENDBRANCH  13  16
ENDBRANCH   5  13
TORSDOF 4
ENDMDL
MODEL 9
REMARK VINA RESULT:    -5.790      4.813      7.714
REMARK INTER + INTRA:          -8.298
REMARK INTER:                  -7.605
REMARK INTRA:                  -0.693
REMARK UNBOUND:                -1.154
REMARK  Name = 
REMARK  4 active torsions:
REMARK  status: ('A' for Active; 'I' for Inactive)
REMARK    1  A    between atoms: C_4  and  C_5
REMARK    2  A    between atoms: C_9  and  C_10
REMARK    3  A    between atoms: C_10  and  N_11
REMARK    4  A    between atoms: N_11  and  C_12
REMARK                            x       y       z     vdW  Elec       q    Type
REMARK                         _______ _______ _______ _____ _____    ______ ____
ROOT
ATOM      1  C   UNL     1      47.027   5.529  13.545  0.00  0.00    +0.000 A 
ATOM      2  C   UNL     1      47.749   6.716  13.344  0.00  0.00    +0.000 A 
ATOM      3  C   UNL     1      48.588   7.228  14.338  0.00  0.00    +0.000 A 
ATOM      4  C   UNL     1      48.746   6.545  15.544  0.00  0.00    +0.000 A 
ATOM      5  C   UNL     1      48.065   5.345  15.794  0.00  0.00    +0.000 A 
ATOM      6  C   UNL     1      47.193   4.884  14.787  0.00  0.00    +0.000 A 
ENDROOT
BRANCH   1  10
ATOM      7  C   UNL     1      44.341   3.901  10.586  0.00  0.00    +0.000 A 
ATOM      8  C   UNL     1      44.622   3.186  11.743  0.00  0.00    +0.000 A 
ATOM      9  C   UNL     1      45.512   3.707  12.688  0.00  0.00    +0.000 A 
ATOM     10  C   UNL     1      46.128   4.963  12.511  0.00  0.00    +0.000 A 
ATOM     11  C   UNL     1      45.833   5.659  11.325  0.00  0.00    +0.000 A 
ATOM     12  C   UNL     1      44.954   5.134  10.371  0.00  0.00    +0.000 A 
ENDBRANCH   1  10
BRANCH   5  13
ATOM     13  C   UNL     1      48.261   4.542  17.079  0.00  0.00    +0.000 C 
ATOM     14  C   UNL     1      47.296   3.412  17.375  0.00  0.00    +0.000 C 
ATOM     15  C   UNL     1      47.176   4.681  18.150  0.00  0.00    +0.000 C 
BRANCH  13  16
ATOM     16  N   UNL     1      49.624   4.597  17.633  0.00  0.00    +0.000 N 
ATOM     17  H   UNL     1      50.048   5.521  17.629  0.00  0.00    +0.000 HD
BRANCH  16  18
ATOM     18  C   UNL     1      50.583   3.569  17.616  0.00  0.00    +0.000 A 
ATOM     19  C   UNL     1      50.324   2.258  17.234  0.00  0.00    +0.000 A 
ATOM     20  C   UNL     1      51.341   1.316  17.341  0.00  0.00    +0.000 A 
ATOM     21  N   UNL     1      52.574   1.578  17.827  0.00  0.00    +0.000 NA
ATOM     22  C   UNL     1      52.798   2.844  18.225  0.00  0.00    +0.000 A 
ATOM     23  C   UNL     1      51.848   3.852  18.144  0.00  0.00    +0.000 A 
ENDBRANCH  16  18
ENDBRANCH  13  16
ENDBRANCH   5  13
TORSDOF 4
ENDMDL
