MODEL 1
REMARK VINA RESULT:    -8.293      0.000      0.000
REMARK INTER + INTRA:         -12.286
REMARK INTER:                 -11.203
REMARK INTRA:                  -1.084
REMARK UNBOUND:                -1.084
REMARK  Name = 
REMARK  7 active torsions:
REMARK  status: ('A' for Active; 'I' for Inactive)
REMARK    1  A    between atoms: C_1  and  N_2
REMARK    2  A    between atoms: N_2  and  C_3
REMARK    3  A    between atoms: C_3  and  C_4
REMARK    4  A    between atoms: C_7  and  C_8
REMARK    5  A    between atoms: C_8  and  N_9
REMARK    6  A    between atoms: C_10  and  C_12
REMARK    7  A    between atoms: C_24  and  C_26
REMARK                            x       y       z     vdW  Elec       q    Type
REMARK                         _______ _______ _______ _____ _____    ______ ____
ROOT
ATOM      1  C   UNL     1      46.580   4.618  13.508  0.00  0.00    +0.000 A 
ATOM      2  C   UNL     1      47.221   5.799  13.100  0.00  0.00    +0.000 A 
ATOM      3  C   UNL     1      48.062   6.488  13.974  0.00  0.00    +0.000 A 
ATOM      4  C   UNL     1      48.288   6.001  15.266  0.00  0.00    +0.000 A 
ATOM      5  C   UNL     1      47.606   4.852  15.690  0.00  0.00    +0.000 A 
ATOM      6  C   UNL     1      46.767   4.159  14.816  0.00  0.00    +0.000 A 
ENDROOT
BRANCH   1   7
ATOM      7  C   UNL     1      45.703   3.866  12.540  0.00  0.00    +0.000 C 
BRANCH   7   9
ATOM      8  C   UNL     1      43.569   5.188  12.927  0.00  0.00    +0.000 C 
ATOM      9  N   UNL     1      44.506   4.534  12.018  0.00  0.00    +0.000 N 
ATOM     10  C   UNL     1      44.092   4.477  10.673  0.00  0.00    +0.000 C 
ATOM     11  O   UNL     1      43.052   5.025  10.294  0.00  0.00    +0.000 OA
BRANCH  10  12
ATOM     12  C   UNL     1      44.897   3.806   9.620  0.00  0.00    +0.000 A 
ATOM     13  C   UNL     1      45.002   2.427   9.430  0.00  0.00    +0.000 A 
ATOM     14  C   UNL     1      45.828   1.920   8.426  0.00  0.00    +0.000 A 
ATOM     15  C   UNL     1      46.473   2.814   7.591  0.00  0.00    +0.000 A 
ATOM     16  N   UNL     1      46.341   4.152   7.690  0.00  0.00    +0.000 NA
ATOM     17  C   UNL     1      45.551   4.616   8.695  0.00  0.00    +0.000 A 
ENDBRANCH  10  12
ENDBRANCH   7   9
ENDBRANCH   1   7
BRANCH   4  18
ATOM     18  C   UNL     1      49.230   6.713  16.198  0.00  0.00    +0.000 C 
BRANCH  18  19
ATOM     19  N   UNL     1      50.286   5.842  16.637  0.00  0.00    +0.000 N 
ATOM     20  C   UNL     1      50.368   5.444  17.945  0.00  0.00    +0.000 C 
ATOM     21  O   UNL     1      49.521   5.763  18.776  0.00  0.00    +0.000 OA
ATOM     22  H   UNL     1      51.100   5.762  16.035  0.00  0.00    +0.000 HD
BRANCH  20  23
ATOM     23  C   UNL     1      51.488   4.564  18.293  0.00  0.00    +0.000 A 
ATOM     24  C   UNL     1      52.563   5.075  19.009  0.00  0.00    +0.000 A 
ATOM     25  S   UNL     1      53.753   3.912  19.377  0.00  0.00    +0.000 S 
ATOM     26  C   UNL     1      52.900   2.697  18.547  0.00  0.00    +0.000 A 
ATOM     27  N   UNL     1      53.397   1.433  18.459  0.00  0.00    +0.000 NA
ATOM     28  C   UNL     1      52.663   0.619  17.776  0.00  0.00    +0.000 A 
ATOM     29  N   UNL     1      51.474   0.952  17.179  0.00  0.00    +0.000 N 
ATOM     30  C   UNL     1      50.921   2.207  17.263  0.00  0.00    +0.000 A 
ATOM     31  O   UNL     1      49.837   2.460  16.749  0.00  0.00    +0.000 OA
ATOM     32  C   UNL     1      51.713   3.165  18.012  0.00  0.00    +0.000 A 
ATOM     33  H   UNL     1      50.945   0.263  16.666  0.00  0.00    +0.000 HD
ENDBRANCH  20  23
ENDBRANCH  18  19
ENDBRANCH   4  18
TORSDOF 6
ENDMDL
MODEL 2
REMARK VINA RESULT:    -8.022      2.694      3.334
REMARK INTER + INTRA:         -11.920
REMARK INTER:                 -11.078
REMARK INTRA:                  -0.841
REMARK UNBOUND:                -1.084
REMARK  Name = 
REMARK  7 active torsions:
REMARK  status: ('A' for Active; 'I' for Inactive)
REMARK    1  A    between atoms: C_1  and  N_2
REMARK    2  A    between atoms: N_2  and  C_3
REMARK    3  A    between atoms: C_3  and  C_4
REMARK    4  A    between atoms: C_7  and  C_8
REMARK    5  A    between atoms: C_8  and  N_9
REMARK    6  A    between atoms: C_10  and  C_12
REMARK    7  A    between atoms: C_24  and  C_26
REMARK                            x       y       z     vdW  Elec       q    Type
REMARK                         _______ _______ _______ _____ _____    ______ ____
ROOT
ATOM      1  C   UNL     1      45.330   6.766  11.326  0.00  0.00    +0.000 A 
ATOM      2  C   UNL     1      46.588   6.201  11.595  0.00  0.00    +0.000 A 
ATOM      3  C   UNL     1      47.451   6.798  12.513  0.00  0.00    +0.000 A 
ATOM      4  C   UNL     1      47.068   7.961  13.190  0.00  0.00    +0.000 A 
ATOM      5  C   UNL     1      45.835   8.552  12.882  0.00  0.00    +0.000 A 
ATOM      6  C   UNL     1      44.967   7.956  11.966  0.00  0.00    +0.000 A 
ENDROOT
BRANCH   1   7
ATOM      7  C   UNL     1      44.393   6.089  10.359  0.00  0.00    +0.000 C 
BRANCH   7   9
ATOM      8  C   UNL     1      42.713   4.977  11.906  0.00  0.00    +0.000 C 
ATOM      9  N   UNL     1      43.671   4.893  10.808  0.00  0.00    +0.000 N 
ATOM     10  C   UNL     1      43.937   3.589  10.346  0.00  0.00    +0.000 C 
ATOM     11  O   UNL     1      43.327   2.611  10.788  0.00  0.00    +0.000 OA
BRANCH  10  12
ATOM     12  C   UNL     1      44.923   3.312   9.269  0.00  0.00    +0.000 A 
ATOM     13  C   UNL     1      45.514   4.266   8.440  0.00  0.00    +0.000 A 
ATOM     14  C   UNL     1      46.397   3.870   7.435  0.00  0.00    +0.000 A 
ATOM     15  C   UNL     1      46.719   2.528   7.334  0.00  0.00    +0.000 A 
ATOM     16  N   UNL     1      46.230   1.582   8.161  0.00  0.00    +0.000 NA
ATOM     17  C   UNL     1      45.352   1.996   9.113  0.00  0.00    +0.000 A 
ENDBRANCH  10  12
ENDBRANCH   7   9
ENDBRANCH   1   7
BRANCH   4  18
ATOM     18  C   UNL     1      47.974   8.584  14.216  0.00  0.00    +0.000 C 
BRANCH  18  19
ATOM     19  N   UNL     1      48.160   7.713  15.344  0.00  0.00    +0.000 N 
ATOM     20  C   UNL     1      49.350   7.061  15.537  0.00  0.00    +0.000 C 
ATOM     21  O   UNL     1      50.314   7.234  14.795  0.00  0.00    +0.000 OA
ATOM     22  H   UNL     1      47.325   7.386  15.820  0.00  0.00    +0.000 HD
BRANCH  20  23
ATOM     23  C   UNL     1      49.436   6.189  16.712  0.00  0.00    +0.000 A 
ATOM     24  C   UNL     1      50.371   6.464  17.702  0.00  0.00    +0.000 A 
ATOM     25  S   UNL     1      50.304   5.388  19.021  0.00  0.00    +0.000 S 
ATOM     26  C   UNL     1      49.060   4.485  18.294  0.00  0.00    +0.000 A 
ATOM     27  N   UNL     1      48.547   3.385  18.908  0.00  0.00    +0.000 NA
ATOM     28  C   UNL     1      47.630   2.777  18.233  0.00  0.00    +0.000 A 
ATOM     29  N   UNL     1      47.173   3.174  17.001  0.00  0.00    +0.000 N 
ATOM     30  C   UNL     1      47.642   4.293  16.356  0.00  0.00    +0.000 A 
ATOM     31  O   UNL     1      47.184   4.641  15.272  0.00  0.00    +0.000 OA
ATOM     32  C   UNL     1      48.685   5.007  17.068  0.00  0.00    +0.000 A 
ATOM     33  H   UNL     1      46.446   2.658  16.530  0.00  0.00    +0.000 HD
ENDBRANCH  20  23
ENDBRANCH  18  19
ENDBRANCH   4  18
TORSDOF 6
ENDMDL
MODEL 3
REMARK VINA RESULT:    -7.582      3.185      4.287
REMARK INTER + INTRA:         -11.325
REMARK INTER:                 -10.739
REMARK INTRA:                  -0.587
REMARK UNBOUND:                -1.084
REMARK  Name = 
REMARK  7 active torsions:
REMARK  status: ('A' for Active; 'I' for Inactive)
REMARK    1  A    between atoms: C_1  and  N_2
REMARK    2  A    between atoms: N_2  and  C_3
REMARK    3  A    between atoms: C_3  and  C_4
REMARK    4  A    between atoms: C_7  and  C_8
REMARK    5  A    between atoms: C_8  and  N_9
REMARK    6  A    between atoms: C_10  and  C_12
REMARK    7  A    between atoms: C_24  and  C_26
REMARK                            x       y       z     vdW  Elec       q    Type
REMARK                         _______ _______ _______ _____ _____    ______ ____
ROOT
ATOM      1  C   UNL     1      45.374   6.711  11.648  0.00  0.00    +0.000 A 
ATOM      2  C   UNL     1      46.371   5.879  12.182  0.00  0.00    +0.000 A 
ATOM      3  C   UNL     1      47.322   6.388  13.066  0.00  0.00    +0.000 A 
ATOM      4  C   UNL     1      47.284   7.735  13.444  0.00  0.00    +0.000 A 
ATOM      5  C   UNL     1      46.321   8.576  12.871  0.00  0.00    +0.000 A 
ATOM      6  C   UNL     1      45.367   8.068  11.988  0.00  0.00    +0.000 A 
ENDROOT
BRANCH   1   7
ATOM      7  C   UNL     1      44.332   6.137  10.723  0.00  0.00    +0.000 C 
BRANCH   7   9
ATOM      8  C   UNL     1      42.663   5.049  12.299  0.00  0.00    +0.000 C 
ATOM      9  N   UNL     1      43.579   4.958  11.167  0.00  0.00    +0.000 N 
ATOM     10  C   UNL     1      43.777   3.658  10.660  0.00  0.00    +0.000 C 
ATOM     11  O   UNL     1      43.144   2.693  11.098  0.00  0.00    +0.000 OA
BRANCH  10  12
ATOM     12  C   UNL     1      44.713   3.373   9.542  0.00  0.00    +0.000 A 
ATOM     13  C   UNL     1      45.289   4.325   8.699  0.00  0.00    +0.000 A 
ATOM     14  C   UNL     1      46.123   3.922   7.656  0.00  0.00    +0.000 A 
ATOM     15  C   UNL     1      46.414   2.576   7.528  0.00  0.00    +0.000 A 
ATOM     16  N   UNL     1      45.940   1.630   8.365  0.00  0.00    +0.000 NA
ATOM     17  C   UNL     1      45.109   2.051   9.355  0.00  0.00    +0.000 A 
ENDBRANCH  10  12
ENDBRANCH   7   9
ENDBRANCH   1   7
BRANCH   4  18
ATOM     18  C   UNL     1      48.278   8.280  14.433  0.00  0.00    +0.000 C 
BRANCH  18  19
ATOM     19  N   UNL     1      48.133   7.651  15.718  0.00  0.00    +0.000 N 
ATOM     20  C   UNL     1      49.078   6.771  16.176  0.00  0.00    +0.000 C 
ATOM     21  O   UNL     1      50.103   6.529  15.543  0.00  0.00    +0.000 OA
ATOM     22  H   UNL     1      47.208   7.660  16.136  0.00  0.00    +0.000 HD
BRANCH  20  23
ATOM     23  C   UNL     1      48.834   6.177  17.494  0.00  0.00    +0.000 A 
ATOM     24  C   UNL     1      49.069   4.821  17.687  0.00  0.00    +0.000 A 
ATOM     25  S   UNL     1      48.787   4.301  19.285  0.00  0.00    +0.000 S 
ATOM     26  C   UNL     1      48.289   5.856  19.762  0.00  0.00    +0.000 A 
ATOM     27  N   UNL     1      47.882   6.096  21.038  0.00  0.00    +0.000 NA
ATOM     28  C   UNL     1      47.504   7.311  21.256  0.00  0.00    +0.000 A 
ATOM     29  N   UNL     1      47.502   8.310  20.316  0.00  0.00    +0.000 N 
ATOM     30  C   UNL     1      47.929   8.120  19.023  0.00  0.00    +0.000 A 
ATOM     31  O   UNL     1      47.951   9.045  18.218  0.00  0.00    +0.000 OA
ATOM     32  C   UNL     1      48.355   6.766  18.722  0.00  0.00    +0.000 A 
ATOM     33  H   UNL     1      47.201   9.243  20.555  0.00  0.00    +0.000 HD
ENDBRANCH  20  23
ENDBRANCH  18  19
ENDBRANCH   4  18
TORSDOF 6
ENDMDL
MODEL 4
REMARK VINA RESULT:    -7.542      3.627      8.902
REMARK INTER + INTRA:         -11.272
REMARK INTER:                  -9.692
REMARK INTRA:                  -1.579
REMARK UNBOUND:                -1.084
REMARK  Name = 
REMARK  7 active torsions:
REMARK  status: ('A' for Active; 'I' for Inactive)
REMARK    1  A    between atoms: C_1  and  N_2
REMARK    2  A    between atoms: N_2  and  C_3
REMARK    3  A    between atoms: C_3  and  C_4
REMARK    4  A    between atoms: C_7  and  C_8
REMARK    5  A    between atoms: C_8  and  N_9
REMARK    6  A    between atoms: C_10  and  C_12
REMARK    7  A    between atoms: C_24  and  C_26
REMARK                            x       y       z     vdW  Elec       q    Type
REMARK                         _______ _______ _______ _____ _____    ______ ____
ROOT
ATOM      1  C   UNL     1      49.095   7.692  16.310  0.00  0.00    +0.000 A 
ATOM      2  C   UNL     1      48.474   8.862  15.842  0.00  0.00    +0.000 A 
ATOM      3  C   UNL     1      47.949   8.919  14.551  0.00  0.00    +0.000 A 
ATOM      4  C   UNL     1      48.024   7.803  13.710  0.00  0.00    +0.000 A 
ATOM      5  C   UNL     1      48.690   6.654  14.159  0.00  0.00    +0.000 A 
ATOM      6  C   UNL     1      49.213   6.594  15.451  0.00  0.00    +0.000 A 
ENDROOT
BRANCH   1   7
ATOM      7  C   UNL     1      49.624   7.635  17.720  0.00  0.00    +0.000 C 
BRANCH   7   9
ATOM      8  C   UNL     1      48.459   8.743  19.686  0.00  0.00    +0.000 C 
ATOM      9  N   UNL     1      48.660   7.582  18.825  0.00  0.00    +0.000 N 
ATOM     10  C   UNL     1      47.985   6.413  19.229  0.00  0.00    +0.000 C 
ATOM     11  O   UNL     1      47.213   6.415  20.193  0.00  0.00    +0.000 OA
BRANCH  10  12
ATOM     12  C   UNL     1      48.115   5.126  18.499  0.00  0.00    +0.000 A 
ATOM     13  C   UNL     1      49.230   4.287  18.519  0.00  0.00    +0.000 A 
ATOM     14  C   UNL     1      49.243   3.121  17.753  0.00  0.00    +0.000 A 
ATOM     15  C   UNL     1      48.105   2.790  17.040  0.00  0.00    +0.000 A 
ATOM     16  N   UNL     1      46.979   3.532  17.050  0.00  0.00    +0.000 NA
ATOM     17  C   UNL     1      47.007   4.676  17.785  0.00  0.00    +0.000 A 
ENDBRANCH  10  12
ENDBRANCH   7   9
ENDBRANCH   1   7
BRANCH   4  18
ATOM     18  C   UNL     1      47.419   7.841  12.333  0.00  0.00    +0.000 C 
BRANCH  18  19
ATOM     19  N   UNL     1      46.783   6.593  12.008  0.00  0.00    +0.000 N 
ATOM     20  C   UNL     1      45.422   6.458  12.093  0.00  0.00    +0.000 C 
ATOM     21  O   UNL     1      44.692   7.400  12.391  0.00  0.00    +0.000 OA
ATOM     22  H   UNL     1      47.371   5.765  11.988  0.00  0.00    +0.000 HD
BRANCH  20  23
ATOM     23  C   UNL     1      44.873   5.143  11.749  0.00  0.00    +0.000 A 
ATOM     24  C   UNL     1      44.180   4.418  12.711  0.00  0.00    +0.000 A 
ATOM     25  S   UNL     1      43.563   2.937  12.136  0.00  0.00    +0.000 S 
ATOM     26  C   UNL     1      44.243   3.188  10.598  0.00  0.00    +0.000 A 
ATOM     27  N   UNL     1      44.101   2.259   9.613  0.00  0.00    +0.000 NA
ATOM     28  C   UNL     1      44.692   2.562   8.506  0.00  0.00    +0.000 A 
ATOM     29  N   UNL     1      45.406   3.713   8.291  0.00  0.00    +0.000 N 
ATOM     30  C   UNL     1      45.553   4.691   9.245  0.00  0.00    +0.000 A 
ATOM     31  O   UNL     1      46.166   5.726   9.007  0.00  0.00    +0.000 OA
ATOM     32  C   UNL     1      44.917   4.393  10.515  0.00  0.00    +0.000 A 
ATOM     33  H   UNL     1      45.836   3.893   7.396  0.00  0.00    +0.000 HD
ENDBRANCH  20  23
ENDBRANCH  18  19
ENDBRANCH   4  18
TORSDOF 6
ENDMDL
MODEL 5
REMARK VINA RESULT:    -7.174      3.264      8.861
REMARK INTER + INTRA:         -10.775
REMARK INTER:                  -9.588
REMARK INTRA:                  -1.187
REMARK UNBOUND:                -1.084
REMARK  Name = 
REMARK  7 active torsions:
REMARK  status: ('A' for Active; 'I' for Inactive)
REMARK    1  A    between atoms: C_1  and  N_2
REMARK    2  A    between atoms: N_2  and  C_3
REMARK    3  A    between atoms: C_3  and  C_4
REMARK    4  A    between atoms: C_7  and  C_8
REMARK    5  A    between atoms: C_8  and  N_9
REMARK    6  A    between atoms: C_10  and  C_12
REMARK    7  A    between atoms: C_24  and  C_26
REMARK                            x       y       z     vdW  Elec       q    Type
REMARK                         _______ _______ _______ _____ _____    ______ ____
ROOT
ATOM      1  C   UNL     1      49.936   6.994  15.863  0.00  0.00    +0.000 A 
ATOM      2  C   UNL     1      50.673   7.776  14.959  0.00  0.00    +0.000 A 
ATOM      3  C   UNL     1      50.158   8.077  13.698  0.00  0.00    +0.000 A 
ATOM      4  C   UNL     1      48.892   7.613  13.324  0.00  0.00    +0.000 A 
ATOM      5  C   UNL     1      48.181   6.789  14.206  0.00  0.00    +0.000 A 
ATOM      6  C   UNL     1      48.692   6.489  15.470  0.00  0.00    +0.000 A 
ENDROOT
BRANCH   1   7
ATOM      7  C   UNL     1      50.490   6.709  17.235  0.00  0.00    +0.000 C 
BRANCH   7   9
ATOM      8  C   UNL     1      48.840   7.379  19.046  0.00  0.00    +0.000 C 
ATOM      9  N   UNL     1      49.553   6.345  18.304  0.00  0.00    +0.000 N 
ATOM     10  C   UNL     1      49.380   5.033  18.789  0.00  0.00    +0.000 C 
ATOM     11  O   UNL     1      48.606   4.787  19.720  0.00  0.00    +0.000 OA
BRANCH  10  12
ATOM     12  C   UNL     1      50.070   3.864  18.187  0.00  0.00    +0.000 A 
ATOM     13  C   UNL     1      51.392   3.485  18.426  0.00  0.00    +0.000 A 
ATOM     14  C   UNL     1      51.936   2.385  17.762  0.00  0.00    +0.000 A 
ATOM     15  C   UNL     1      51.115   1.649  16.927  0.00  0.00    +0.000 A 
ATOM     16  N   UNL     1      49.812   1.933  16.725  0.00  0.00    +0.000 NA
ATOM     17  C   UNL     1      49.319   3.027  17.365  0.00  0.00    +0.000 A 
ENDBRANCH  10  12
ENDBRANCH   7   9
ENDBRANCH   1   7
BRANCH   4  18
ATOM     18  C   UNL     1      48.311   7.972  11.984  0.00  0.00    +0.000 C 
BRANCH  18  19
ATOM     19  N   UNL     1      47.605   6.861  11.406  0.00  0.00    +0.000 N 
ATOM     20  C   UNL     1      46.235   6.836  11.386  0.00  0.00    +0.000 C 
ATOM     21  O   UNL     1      45.561   7.776  11.802  0.00  0.00    +0.000 OA
ATOM     22  H   UNL     1      48.126   5.999  11.275  0.00  0.00    +0.000 HD
BRANCH  20  23
ATOM     23  C   UNL     1      45.611   5.655  10.783  0.00  0.00    +0.000 A 
ATOM     24  C   UNL     1      45.723   5.445   9.415  0.00  0.00    +0.000 A 
ATOM     25  S   UNL     1      44.988   4.002   8.884  0.00  0.00    +0.000 S 
ATOM     26  C   UNL     1      44.449   3.633  10.454  0.00  0.00    +0.000 A 
ATOM     27  N   UNL     1      43.718   2.511  10.694  0.00  0.00    +0.000 NA
ATOM     28  C   UNL     1      43.349   2.369  11.923  0.00  0.00    +0.000 A 
ATOM     29  N   UNL     1      43.651   3.243  12.936  0.00  0.00    +0.000 N 
ATOM     30  C   UNL     1      44.409   4.374  12.746  0.00  0.00    +0.000 A 
ATOM     31  O   UNL     1      44.693   5.114  13.682  0.00  0.00    +0.000 OA
ATOM     32  C   UNL     1      44.840   4.587  11.377  0.00  0.00    +0.000 A 
ATOM     33  H   UNL     1      43.339   3.068  13.879  0.00  0.00    +0.000 HD
ENDBRANCH  20  23
ENDBRANCH  18  19
ENDBRANCH   4  18
TORSDOF 6
ENDMDL
MODEL 6
REMARK VINA RESULT:    -7.141      2.898      3.435
REMARK INTER + INTRA:         -10.729
REMARK INTER:                  -9.504
REMARK INTRA:                  -1.225
REMARK UNBOUND:                -1.084
REMARK  Name = 
REMARK  7 active torsions:
REMARK  status: ('A' for Active; 'I' for Inactive)
REMARK    1  A    between atoms: C_1  and  N_2
REMARK    2  A    between atoms: N_2  and  C_3
REMARK    3  A    between atoms: C_3  and  C_4
REMARK    4  A    between atoms: C_7  and  C_8
REMARK    5  A    between atoms: C_8  and  N_9
REMARK    6  A    between atoms: C_10  and  C_12
REMARK    7  A    between atoms: C_24  and  C_26
REMARK                            x       y       z     vdW  Elec       q    Type
REMARK                         _______ _______ _______ _____ _____    ______ ____
ROOT
ATOM      1  C   UNL     1      46.503   4.748  13.301  0.00  0.00    +0.000 A 
ATOM      2  C   UNL     1      46.877   4.491  14.631  0.00  0.00    +0.000 A 
ATOM      3  C   UNL     1      47.795   5.314  15.282  0.00  0.00    +0.000 A 
ATOM      4  C   UNL     1      48.346   6.418  14.621  0.00  0.00    +0.000 A 
ATOM      5  C   UNL     1      48.013   6.643  13.278  0.00  0.00    +0.000 A 
ATOM      6  C   UNL     1      47.092   5.822  12.625  0.00  0.00    +0.000 A 
ENDROOT
BRANCH   1   7
ATOM      7  C   UNL     1      45.482   3.871  12.624  0.00  0.00    +0.000 C 
BRANCH   7   9
ATOM      8  C   UNL     1      43.280   5.085  12.980  0.00  0.00    +0.000 C 
ATOM      9  N   UNL     1      44.271   4.499  12.084  0.00  0.00    +0.000 N 
ATOM     10  C   UNL     1      43.901   4.460  10.725  0.00  0.00    +0.000 C 
ATOM     11  O   UNL     1      42.848   4.972  10.330  0.00  0.00    +0.000 OA
BRANCH  10  12
ATOM     12  C   UNL     1      44.766   3.855   9.681  0.00  0.00    +0.000 A 
ATOM     13  C   UNL     1      44.903   2.489   9.428  0.00  0.00    +0.000 A 
ATOM     14  C   UNL     1      45.784   2.045   8.442  0.00  0.00    +0.000 A 
ATOM     15  C   UNL     1      46.453   2.988   7.683  0.00  0.00    +0.000 A 
ATOM     16  N   UNL     1      46.294   4.318   7.843  0.00  0.00    +0.000 NA
ATOM     17  C   UNL     1      45.449   4.720   8.830  0.00  0.00    +0.000 A 
ENDBRANCH  10  12
ENDBRANCH   7   9
ENDBRANCH   1   7
BRANCH   4  18
ATOM     18  C   UNL     1      49.301   7.337  15.331  0.00  0.00    +0.000 C 
BRANCH  18  19
ATOM     19  N   UNL     1      49.044   7.363  16.745  0.00  0.00    +0.000 N 
ATOM     20  C   UNL     1      50.061   7.586  17.637  0.00  0.00    +0.000 C 
ATOM     21  O   UNL     1      51.208   7.827  17.269  0.00  0.00    +0.000 OA
ATOM     22  H   UNL     1      48.175   6.947  17.067  0.00  0.00    +0.000 HD
BRANCH  20  23
ATOM     23  C   UNL     1      49.697   7.584  19.057  0.00  0.00    +0.000 A 
ATOM     24  C   UNL     1      49.879   8.736  19.812  0.00  0.00    +0.000 A 
ATOM     25  S   UNL     1      49.359   8.583  21.427  0.00  0.00    +0.000 S 
ATOM     26  C   UNL     1      48.921   6.957  21.191  0.00  0.00    +0.000 A 
ATOM     27  N   UNL     1      48.414   6.216  22.213  0.00  0.00    +0.000 NA
ATOM     28  C   UNL     1      48.153   4.990  21.903  0.00  0.00    +0.000 A 
ATOM     29  N   UNL     1      48.345   4.440  20.662  0.00  0.00    +0.000 N 
ATOM     30  C   UNL     1      48.828   5.156  19.593  0.00  0.00    +0.000 A 
ATOM     31  O   UNL     1      48.952   4.643  18.486  0.00  0.00    +0.000 OA
ATOM     32  C   UNL     1      49.150   6.539  19.892  0.00  0.00    +0.000 A 
ATOM     33  H   UNL     1      48.111   3.475  20.483  0.00  0.00    +0.000 HD
ENDBRANCH  20  23
ENDBRANCH  18  19
ENDBRANCH   4  18
TORSDOF 6
ENDMDL
MODEL 7
REMARK VINA RESULT:    -6.917      3.884      5.137
REMARK INTER + INTRA:         -10.427
REMARK INTER:                  -9.187
REMARK INTRA:                  -1.239
REMARK UNBOUND:                -1.084
REMARK  Name = 
REMARK  7 active torsions:
REMARK  status: ('A' for Active; 'I' for Inactive)
REMARK    1  A    between atoms: C_1  and  N_2
REMARK    2  A    between atoms: N_2  and  C_3
REMARK    3  A    between atoms: C_3  and  C_4
REMARK    4  A    between atoms: C_7  and  C_8
REMARK    5  A    between atoms: C_8  and  N_9
REMARK    6  A    between atoms: C_10  and  C_12
REMARK    7  A    between atoms: C_24  and  C_26
REMARK                            x       y       z     vdW  Elec       q    Type
REMARK                         _______ _______ _______ _____ _____    ______ ____
ROOT
ATOM      1  C   UNL     1      46.424   4.659  13.360  0.00  0.00    +0.000 A 
ATOM      2  C   UNL     1      46.932   5.824  12.763  0.00  0.00    +0.000 A 
ATOM      3  C   UNL     1      47.862   6.618  13.435  0.00  0.00    +0.000 A 
ATOM      4  C   UNL     1      48.310   6.254  14.709  0.00  0.00    +0.000 A 
ATOM      5  C   UNL     1      47.764   5.120  15.325  0.00  0.00    +0.000 A 
ATOM      6  C   UNL     1      46.836   4.322  14.654  0.00  0.00    +0.000 A 
ENDROOT
BRANCH   1   7
ATOM      7  C   UNL     1      45.449   3.792  12.606  0.00  0.00    +0.000 C 
BRANCH   7   9
ATOM      8  C   UNL     1      43.241   4.998  12.961  0.00  0.00    +0.000 C 
ATOM      9  N   UNL     1      44.236   4.416  12.065  0.00  0.00    +0.000 N 
ATOM     10  C   UNL     1      43.866   4.376  10.706  0.00  0.00    +0.000 C 
ATOM     11  O   UNL     1      42.812   4.882  10.309  0.00  0.00    +0.000 OA
BRANCH  10  12
ATOM     12  C   UNL     1      44.734   3.773   9.662  0.00  0.00    +0.000 A 
ATOM     13  C   UNL     1      44.882   2.407   9.413  0.00  0.00    +0.000 A 
ATOM     14  C   UNL     1      45.764   1.967   8.427  0.00  0.00    +0.000 A 
ATOM     15  C   UNL     1      46.425   2.913   7.665  0.00  0.00    +0.000 A 
ATOM     16  N   UNL     1      46.257   4.243   7.820  0.00  0.00    +0.000 NA
ATOM     17  C   UNL     1      45.410   4.641   8.807  0.00  0.00    +0.000 A 
ENDBRANCH  10  12
ENDBRANCH   7   9
ENDBRANCH   1   7
BRANCH   4  18
ATOM     18  C   UNL     1      49.347   7.080  15.420  0.00  0.00    +0.000 C 
BRANCH  18  19
ATOM     19  N   UNL     1      50.503   7.292  14.592  0.00  0.00    +0.000 N 
ATOM     20  C   UNL     1      50.954   8.560  14.332  0.00  0.00    +0.000 C 
ATOM     21  O   UNL     1      50.433   9.552  14.835  0.00  0.00    +0.000 OA
ATOM     22  H   UNL     1      50.794   6.522  13.997  0.00  0.00    +0.000 HD
BRANCH  20  23
ATOM     23  C   UNL     1      52.134   8.670  13.468  0.00  0.00    +0.000 A 
ATOM     24  C   UNL     1      53.313   9.194  13.984  0.00  0.00    +0.000 A 
ATOM     25  S   UNL     1      54.600   9.203  12.868  0.00  0.00    +0.000 S 
ATOM     26  C   UNL     1      53.615   8.558  11.641  0.00  0.00    +0.000 A 
ATOM     27  N   UNL     1      54.111   8.334  10.394  0.00  0.00    +0.000 NA
ATOM     28  C   UNL     1      53.249   7.870   9.553  0.00  0.00    +0.000 A 
ATOM     29  N   UNL     1      51.936   7.602   9.847  0.00  0.00    +0.000 N 
ATOM     30  C   UNL     1      51.398   7.786  11.099  0.00  0.00    +0.000 A 
ATOM     31  O   UNL     1      50.230   7.500  11.337  0.00  0.00    +0.000 OA
ATOM     32  C   UNL     1      52.325   8.319  12.080  0.00  0.00    +0.000 A 
ATOM     33  H   UNL     1      51.316   7.230   9.144  0.00  0.00    +0.000 HD
ENDBRANCH  20  23
ENDBRANCH  18  19
ENDBRANCH   4  18
TORSDOF 6
ENDMDL
MODEL 8
REMARK VINA RESULT:    -6.862      1.785      2.220
REMARK INTER + INTRA:         -10.353
REMARK INTER:                  -9.494
REMARK INTRA:                  -0.858
REMARK UNBOUND:                -1.084
REMARK  Name = 
REMARK  7 active torsions:
REMARK  status: ('A' for Active; 'I' for Inactive)
REMARK    1  A    between atoms: C_1  and  N_2
REMARK    2  A    between atoms: N_2  and  C_3
REMARK    3  A    between atoms: C_3  and  C_4
REMARK    4  A    between atoms: C_7  and  C_8
REMARK    5  A    between atoms: C_8  and  N_9
REMARK    6  A    between atoms: C_10  and  C_12
REMARK    7  A    between atoms: C_24  and  C_26
REMARK                            x       y       z     vdW  Elec       q    Type
REMARK                         _______ _______ _______ _____ _____    ______ ____
ROOT
ATOM      1  C   UNL     1      46.150   4.599  12.290  0.00  0.00    +0.000 A 
ATOM      2  C   UNL     1      46.456   5.887  11.819  0.00  0.00    +0.000 A 
ATOM      3  C   UNL     1      47.190   6.774  12.605  0.00  0.00    +0.000 A 
ATOM      4  C   UNL     1      47.645   6.385  13.871  0.00  0.00    +0.000 A 
ATOM      5  C   UNL     1      47.294   5.120  14.361  0.00  0.00    +0.000 A 
ATOM      6  C   UNL     1      46.561   4.229  13.575  0.00  0.00    +0.000 A 
ENDROOT
BRANCH   1   7
ATOM      7  C   UNL     1      45.387   3.640  11.413  0.00  0.00    +0.000 C 
BRANCH   7   9
ATOM      8  C   UNL     1      43.247   4.935  10.970  0.00  0.00    +0.000 C 
ATOM      9  N   UNL     1      44.399   4.187  10.476  0.00  0.00    +0.000 N 
ATOM     10  C   UNL     1      44.391   3.920   9.093  0.00  0.00    +0.000 C 
ATOM     11  O   UNL     1      43.511   4.374   8.354  0.00  0.00    +0.000 OA
BRANCH  10  12
ATOM     12  C   UNL     1      45.457   3.129   8.428  0.00  0.00    +0.000 A 
ATOM     13  C   UNL     1      46.467   3.643   7.613  0.00  0.00    +0.000 A 
ATOM     14  C   UNL     1      47.387   2.785   7.012  0.00  0.00    +0.000 A 
ATOM     15  C   UNL     1      47.314   1.434   7.302  0.00  0.00    +0.000 A 
ATOM     16  N   UNL     1      46.403   0.903   8.142  0.00  0.00    +0.000 NA
ATOM     17  C   UNL     1      45.503   1.761   8.691  0.00  0.00    +0.000 A 
ENDBRANCH  10  12
ENDBRANCH   7   9
ENDBRANCH   1   7
BRANCH   4  18
ATOM     18  C   UNL     1      48.477   7.319  14.705  0.00  0.00    +0.000 C 
BRANCH  18  19
ATOM     19  N   UNL     1      49.641   6.656  15.226  0.00  0.00    +0.000 N 
ATOM     20  C   UNL     1      50.485   7.301  16.094  0.00  0.00    +0.000 C 
ATOM     21  O   UNL     1      50.254   8.436  16.502  0.00  0.00    +0.000 OA
ATOM     22  H   UNL     1      49.963   5.829  14.733  0.00  0.00    +0.000 HD
BRANCH  20  23
ATOM     23  C   UNL     1      51.649   6.541  16.560  0.00  0.00    +0.000 A 
ATOM     24  C   UNL     1      52.917   7.096  16.447  0.00  0.00    +0.000 A 
ATOM     25  S   UNL     1      54.152   6.109  17.082  0.00  0.00    +0.000 S 
ATOM     26  C   UNL     1      53.043   4.883  17.481  0.00  0.00    +0.000 A 
ATOM     27  N   UNL     1      53.464   3.722  18.052  0.00  0.00    +0.000 NA
ATOM     28  C   UNL     1      52.523   2.866  18.275  0.00  0.00    +0.000 A 
ATOM     29  N   UNL     1      51.197   3.069  17.985  0.00  0.00    +0.000 N 
ATOM     30  C   UNL     1      50.723   4.236  17.434  0.00  0.00    +0.000 A 
ATOM     31  O   UNL     1      49.526   4.399  17.224  0.00  0.00    +0.000 OA
ATOM     32  C   UNL     1      51.744   5.228  17.152  0.00  0.00    +0.000 A 
ATOM     33  H   UNL     1      50.510   2.362  18.194  0.00  0.00    +0.000 HD
ENDBRANCH  20  23
ENDBRANCH  18  19
ENDBRANCH   4  18
TORSDOF 6
ENDMDL
MODEL 9
REMARK VINA RESULT:    -6.618      3.448      5.406
REMARK INTER + INTRA:         -10.023
REMARK INTER:                  -8.745
REMARK INTRA:                  -1.278
REMARK UNBOUND:                -1.084
REMARK  Name = 
REMARK  7 active torsions:
REMARK  status: ('A' for Active; 'I' for Inactive)
REMARK    1  A    between atoms: C_1  and  N_2
REMARK    2  A    between atoms: N_2  and  C_3
REMARK    3  A    between atoms: C_3  and  C_4
REMARK    4  A    between atoms: C_7  and  C_8
REMARK    5  A    between atoms: C_8  and  N_9
REMARK    6  A    between atoms: C_10  and  C_12
REMARK    7  A    between atoms: C_24  and  C_26
REMARK                            x       y       z     vdW  Elec       q    Type
REMARK                         _______ _______ _______ _____ _____    ______ ____
ROOT
ATOM      1  C   UNL     1      47.085   6.097  12.894  0.00  0.00    +0.000 A 
ATOM      2  C   UNL     1      46.594   5.005  13.628  0.00  0.00    +0.000 A 
ATOM      3  C   UNL     1      47.115   4.703  14.886  0.00  0.00    +0.000 A 
ATOM      4  C   UNL     1      48.128   5.497  15.438  0.00  0.00    +0.000 A 
ATOM      5  C   UNL     1      48.653   6.554  14.683  0.00  0.00    +0.000 A 
ATOM      6  C   UNL     1      48.131   6.859  13.425  0.00  0.00    +0.000 A 
ENDROOT
BRANCH   1   7
ATOM      7  C   UNL     1      46.485   6.431  11.552  0.00  0.00    +0.000 C 
BRANCH   7   9
ATOM      8  C   UNL     1      44.729   8.179  12.111  0.00  0.00    +0.000 C 
ATOM      9  N   UNL     1      45.096   6.902  11.507  0.00  0.00    +0.000 N 
ATOM     10  C   UNL     1      44.016   6.132  11.034  0.00  0.00    +0.000 C 
ATOM     11  O   UNL     1      42.859   6.562  11.056  0.00  0.00    +0.000 OA
BRANCH  10  12
ATOM     12  C   UNL     1      44.200   4.785  10.435  0.00  0.00    +0.000 A 
ATOM     13  C   UNL     1      44.938   4.497   9.286  0.00  0.00    +0.000 A 
ATOM     14  C   UNL     1      44.999   3.191   8.802  0.00  0.00    +0.000 A 
ATOM     15  C   UNL     1      44.374   2.191   9.525  0.00  0.00    +0.000 A 
ATOM     16  N   UNL     1      43.714   2.411  10.680  0.00  0.00    +0.000 NA
ATOM     17  C   UNL     1      43.650   3.699  11.112  0.00  0.00    +0.000 A 
ENDBRANCH  10  12
ENDBRANCH   7   9
ENDBRANCH   1   7
BRANCH   4  18
ATOM     18  C   UNL     1      48.662   5.206  16.814  0.00  0.00    +0.000 C 
BRANCH  18  19
ATOM     19  N   UNL     1      48.609   6.374  17.651  0.00  0.00    +0.000 N 
ATOM     20  C   UNL     1      47.625   6.513  18.596  0.00  0.00    +0.000 C 
ATOM     21  O   UNL     1      46.793   5.634  18.803  0.00  0.00    +0.000 OA
ATOM     22  H   UNL     1      49.131   7.189  17.344  0.00  0.00    +0.000 HD
BRANCH  20  23
ATOM     23  C   UNL     1      47.653   7.744  19.392  0.00  0.00    +0.000 A 
ATOM     24  C   UNL     1      47.602   7.663  20.778  0.00  0.00    +0.000 A 
ATOM     25  S   UNL     1      47.696   9.177  21.553  0.00  0.00    +0.000 S 
ATOM     26  C   UNL     1      47.755   9.998  20.065  0.00  0.00    +0.000 A 
ATOM     27  N   UNL     1      47.822  11.356  20.020  0.00  0.00    +0.000 NA
ATOM     28  C   UNL     1      47.830  11.850  18.827  0.00  0.00    +0.000 A 
ATOM     29  N   UNL     1      47.787  11.108  17.674  0.00  0.00    +0.000 N 
ATOM     30  C   UNL     1      47.747   9.734  17.670  0.00  0.00    +0.000 A 
ATOM     31  O   UNL     1      47.747   9.101  16.620  0.00  0.00    +0.000 OA
ATOM     32  C   UNL     1      47.723   9.129  18.989  0.00  0.00    +0.000 A 
ATOM     33  H   UNL     1      47.806  11.558  16.771  0.00  0.00    +0.000 HD
ENDBRANCH  20  23
ENDBRANCH  18  19
ENDBRANCH   4  18
TORSDOF 6
ENDMDL
