MODEL 1
REMARK VINA RESULT:    -8.448      0.000      0.000
REMARK INTER + INTRA:         -12.159
REMARK INTER:                 -11.411
REMARK INTRA:                  -0.748
REMARK UNBOUND:                -0.748
REMARK  Name = 
REMARK  6 active torsions:
REMARK  status: ('A' for Active; 'I' for Inactive)
REMARK    1  A    between atoms: C_2  and  C_4
REMARK    2  A    between atoms: N_8  and  C_9
REMARK    3  A    between atoms: C_9  and  C_10
REMARK    4  A    between atoms: C_10  and  C_11
REMARK    5  A    between atoms: C_15  and  S_16
REMARK    6  A    between atoms: S_16  and  C_17
REMARK                            x       y       z     vdW  Elec       q    Type
REMARK                         _______ _______ _______ _____ _____    ______ ____
ROOT
ATOM      1  C   UNL     1      46.464   2.471   7.730  0.00  0.00    +0.000 A 
ATOM      2  C   UNL     1      45.609   1.858   8.639  0.00  0.00    +0.000 A 
ATOM      3  C   UNL     1      44.680   2.639   9.326  0.00  0.00    +0.000 A 
ATOM      4  C   UNL     1      44.636   4.014   9.110  0.00  0.00    +0.000 A 
ATOM      5  N   UNL     1      43.678   4.838   9.686  0.00  0.00    +0.000 N 
ATOM      6  N   UNL     1      45.487   4.623   8.266  0.00  0.00    +0.000 NA
ATOM      7  C   UNL     1      46.386   3.848   7.599  0.00  0.00    +0.000 A 
ATOM      8  H   UNL     1      43.962   5.796   9.489  0.00  0.00    +0.000 HD
ENDROOT
BRANCH   1  10
ATOM      9  N   UNL     1      48.520   2.404   6.446  0.00  0.00    +0.000 N 
ATOM     10  C   UNL     1      47.427   1.716   6.903  0.00  0.00    +0.000 C 
ATOM     11  O   UNL     1      47.282   0.526   6.671  0.00  0.00    +0.000 OA
ATOM     12  H   UNL     1      49.237   1.854   5.988  0.00  0.00    +0.000 HD
ATOM     13  H   UNL     1      48.798   3.296   6.830  0.00  0.00    +0.000 HD
ENDBRANCH   1  10
BRANCH   5  14
ATOM     14  C   UNL     1      43.265   4.562  11.052  0.00  0.00    +0.000 C 
BRANCH  14  15
ATOM     15  C   UNL     1      43.368   5.817  11.925  0.00  0.00    +0.000 C 
BRANCH  15  16
ATOM     16  C   UNL     1      44.768   5.939  12.478  0.00  0.00    +0.000 A 
ATOM     17  C   UNL     1      45.489   7.131  12.325  0.00  0.00    +0.000 A 
ATOM     18  C   UNL     1      46.748   7.270  12.908  0.00  0.00    +0.000 A 
ATOM     19  C   UNL     1      47.296   6.221  13.651  0.00  0.00    +0.000 A 
ATOM     20  C   UNL     1      46.592   5.025  13.812  0.00  0.00    +0.000 A 
ATOM     21  C   UNL     1      45.333   4.888  13.218  0.00  0.00    +0.000 A 
BRANCH  20  22
ATOM     22  S   UNL     1      47.338   3.645  14.655  0.00  0.00    +0.000 S 
BRANCH  22  23
ATOM     23  C   UNL     1      47.159   4.199  16.388  0.00  0.00    +0.000 C 
ATOM     24  C   UNL     1      48.489   4.817  16.900  0.00  0.00    +0.000 C 
ATOM     25  C   UNL     1      48.285   4.038  18.210  0.00  0.00    +0.000 C 
ATOM     26  C   UNL     1      47.366   3.076  17.430  0.00  0.00    +0.000 C 
ENDBRANCH  22  23
ENDBRANCH  20  22
ENDBRANCH  15  16
ENDBRANCH  14  15
ENDBRANCH   5  14
TORSDOF 6
ENDMDL
MODEL 2
REMARK VINA RESULT:    -8.316      1.957      3.516
REMARK INTER + INTRA:         -11.981
REMARK INTER:                 -11.107
REMARK INTRA:                  -0.874
REMARK UNBOUND:                -0.748
REMARK  Name = 
REMARK  6 active torsions:
REMARK  status: ('A' for Active; 'I' for Inactive)
REMARK    1  A    between atoms: C_2  and  C_4
REMARK    2  A    between atoms: N_8  and  C_9
REMARK    3  A    between atoms: C_9  and  C_10
REMARK    4  A    between atoms: C_10  and  C_11
REMARK    5  A    between atoms: C_15  and  S_16
REMARK    6  A    between atoms: S_16  and  C_17
REMARK                            x       y       z     vdW  Elec       q    Type
REMARK                         _______ _______ _______ _____ _____    ______ ____
ROOT
ATOM      1  C   UNL     1      46.478   2.490   7.703  0.00  0.00    +0.000 A 
ATOM      2  C   UNL     1      45.611   1.869   8.593  0.00  0.00    +0.000 A 
ATOM      3  C   UNL     1      44.687   2.645   9.293  0.00  0.00    +0.000 A 
ATOM      4  C   UNL     1      44.660   4.025   9.106  0.00  0.00    +0.000 A 
ATOM      5  N   UNL     1      43.708   4.848   9.694  0.00  0.00    +0.000 N 
ATOM      6  N   UNL     1      45.524   4.642   8.280  0.00  0.00    +0.000 NA
ATOM      7  C   UNL     1      46.417   3.871   7.601  0.00  0.00    +0.000 A 
ATOM      8  H   UNL     1      44.005   5.806   9.520  0.00  0.00    +0.000 HD
ENDROOT
BRANCH   1  10
ATOM      9  N   UNL     1      48.527   2.434   6.407  0.00  0.00    +0.000 N 
ATOM     10  C   UNL     1      47.437   1.743   6.866  0.00  0.00    +0.000 C 
ATOM     11  O   UNL     1      47.291   0.554   6.625  0.00  0.00    +0.000 OA
ATOM     12  H   UNL     1      49.242   1.888   5.941  0.00  0.00    +0.000 HD
ATOM     13  H   UNL     1      48.807   3.324   6.796  0.00  0.00    +0.000 HD
ENDBRANCH   1  10
BRANCH   5  14
ATOM     14  C   UNL     1      43.284   4.547  11.052  0.00  0.00    +0.000 C 
BRANCH  14  15
ATOM     15  C   UNL     1      43.450   5.766  11.965  0.00  0.00    +0.000 C 
BRANCH  15  16
ATOM     16  C   UNL     1      44.814   5.737  12.612  0.00  0.00    +0.000 A 
ATOM     17  C   UNL     1      45.377   4.521  13.025  0.00  0.00    +0.000 A 
ATOM     18  C   UNL     1      46.670   4.488  13.546  0.00  0.00    +0.000 A 
ATOM     19  C   UNL     1      47.413   5.666  13.656  0.00  0.00    +0.000 A 
ATOM     20  C   UNL     1      46.867   6.886  13.251  0.00  0.00    +0.000 A 
ATOM     21  C   UNL     1      45.566   6.916  12.737  0.00  0.00    +0.000 A 
BRANCH  20  22
ATOM     22  S   UNL     1      47.764   8.404  13.501  0.00  0.00    +0.000 S 
BRANCH  22  23
ATOM     23  C   UNL     1      48.676   8.497  11.920  0.00  0.00    +0.000 C 
ATOM     24  C   UNL     1      50.054   7.792  12.046  0.00  0.00    +0.000 C 
ATOM     25  C   UNL     1      50.671   8.978  11.285  0.00  0.00    +0.000 C 
ATOM     26  C   UNL     1      49.453   9.818  11.720  0.00  0.00    +0.000 C 
ENDBRANCH  22  23
ENDBRANCH  20  22
ENDBRANCH  15  16
ENDBRANCH  14  15
ENDBRANCH   5  14
TORSDOF 6
ENDMDL
MODEL 3
REMARK VINA RESULT:    -7.931      1.769      2.275
REMARK INTER + INTRA:         -11.462
REMARK INTER:                 -10.616
REMARK INTRA:                  -0.845
REMARK UNBOUND:                -0.748
REMARK  Name = 
REMARK  6 active torsions:
REMARK  status: ('A' for Active; 'I' for Inactive)
REMARK    1  A    between atoms: C_2  and  C_4
REMARK    2  A    between atoms: N_8  and  C_9
REMARK    3  A    between atoms: C_9  and  C_10
REMARK    4  A    between atoms: C_10  and  C_11
REMARK    5  A    between atoms: C_15  and  S_16
REMARK    6  A    between atoms: S_16  and  C_17
REMARK                            x       y       z     vdW  Elec       q    Type
REMARK                         _______ _______ _______ _____ _____    ______ ____
ROOT
ATOM      1  C   UNL     1      46.354   2.265   7.814  0.00  0.00    +0.000 A 
ATOM      2  C   UNL     1      45.474   1.759   8.763  0.00  0.00    +0.000 A 
ATOM      3  C   UNL     1      44.585   2.628   9.395  0.00  0.00    +0.000 A 
ATOM      4  C   UNL     1      44.608   3.987   9.085  0.00  0.00    +0.000 A 
ATOM      5  N   UNL     1      43.693   4.894   9.603  0.00  0.00    +0.000 N 
ATOM      6  N   UNL     1      45.485   4.494   8.200  0.00  0.00    +0.000 NA
ATOM      7  C   UNL     1      46.342   3.632   7.588  0.00  0.00    +0.000 A 
ATOM      8  H   UNL     1      44.022   5.821   9.340  0.00  0.00    +0.000 HD
ENDROOT
BRANCH   1  10
ATOM      9  N   UNL     1      48.408   2.006   6.551  0.00  0.00    +0.000 N 
ATOM     10  C   UNL     1      47.276   1.410   7.041  0.00  0.00    +0.000 C 
ATOM     11  O   UNL     1      47.066   0.217   6.879  0.00  0.00    +0.000 OA
ATOM     12  H   UNL     1      49.095   1.391   6.132  0.00  0.00    +0.000 HD
ATOM     13  H   UNL     1      48.734   2.903   6.884  0.00  0.00    +0.000 HD
ENDBRANCH   1  10
BRANCH   5  14
ATOM     14  C   UNL     1      43.271   4.732  10.985  0.00  0.00    +0.000 C 
BRANCH  14  15
ATOM     15  C   UNL     1      43.672   5.946  11.830  0.00  0.00    +0.000 C 
BRANCH  15  16
ATOM     16  C   UNL     1      44.961   5.653  12.562  0.00  0.00    +0.000 A 
ATOM     17  C   UNL     1      45.294   4.338  12.911  0.00  0.00    +0.000 A 
ATOM     18  C   UNL     1      46.521   4.061  13.514  0.00  0.00    +0.000 A 
ATOM     19  C   UNL     1      47.426   5.095  13.769  0.00  0.00    +0.000 A 
ATOM     20  C   UNL     1      47.109   6.412  13.429  0.00  0.00    +0.000 A 
ATOM     21  C   UNL     1      45.872   6.686  12.834  0.00  0.00    +0.000 A 
BRANCH  20  22
ATOM     22  S   UNL     1      48.206   7.746  13.863  0.00  0.00    +0.000 S 
BRANCH  22  23
ATOM     23  C   UNL     1      48.953   7.058  15.384  0.00  0.00    +0.000 C 
ATOM     24  C   UNL     1      48.857   8.084  16.546  0.00  0.00    +0.000 C 
ATOM     25  C   UNL     1      50.311   7.730  16.907  0.00  0.00    +0.000 C 
ATOM     26  C   UNL     1      50.488   7.226  15.460  0.00  0.00    +0.000 C 
ENDBRANCH  22  23
ENDBRANCH  20  22
ENDBRANCH  15  16
ENDBRANCH  14  15
ENDBRANCH   5  14
TORSDOF 6
ENDMDL
MODEL 4
REMARK VINA RESULT:    -7.374      2.940      5.122
REMARK INTER + INTRA:         -10.709
REMARK INTER:                  -9.868
REMARK INTRA:                  -0.840
REMARK UNBOUND:                -0.748
REMARK  Name = 
REMARK  6 active torsions:
REMARK  status: ('A' for Active; 'I' for Inactive)
REMARK    1  A    between atoms: C_2  and  C_4
REMARK    2  A    between atoms: N_8  and  C_9
REMARK    3  A    between atoms: C_9  and  C_10
REMARK    4  A    between atoms: C_10  and  C_11
REMARK    5  A    between atoms: C_15  and  S_16
REMARK    6  A    between atoms: S_16  and  C_17
REMARK                            x       y       z     vdW  Elec       q    Type
REMARK                         _______ _______ _______ _____ _____    ______ ____
ROOT
ATOM      1  C   UNL     1      46.475   2.663   7.494  0.00  0.00    +0.000 A 
ATOM      2  C   UNL     1      46.174   3.964   7.879  0.00  0.00    +0.000 A 
ATOM      3  C   UNL     1      45.381   4.171   9.008  0.00  0.00    +0.000 A 
ATOM      4  C   UNL     1      44.886   3.077   9.716  0.00  0.00    +0.000 A 
ATOM      5  N   UNL     1      44.171   3.206  10.900  0.00  0.00    +0.000 N 
ATOM      6  N   UNL     1      45.136   1.814   9.328  0.00  0.00    +0.000 NA
ATOM      7  C   UNL     1      45.915   1.629   8.227  0.00  0.00    +0.000 A 
ATOM      8  H   UNL     1      43.807   2.281  11.121  0.00  0.00    +0.000 HD
ENDROOT
BRANCH   1  10
ATOM      9  N   UNL     1      47.266   3.155   5.256  0.00  0.00    +0.000 N 
ATOM     10  C   UNL     1      47.366   2.350   6.360  0.00  0.00    +0.000 C 
ATOM     11  O   UNL     1      48.184   1.445   6.415  0.00  0.00    +0.000 OA
ATOM     12  H   UNL     1      47.963   3.015   4.534  0.00  0.00    +0.000 HD
ATOM     13  H   UNL     1      46.800   4.051   5.280  0.00  0.00    +0.000 HD
ENDBRANCH   1  10
BRANCH   5  14
ATOM     14  C   UNL     1      43.232   4.308  11.019  0.00  0.00    +0.000 C 
BRANCH  14  15
ATOM     15  C   UNL     1      43.359   4.997  12.381  0.00  0.00    +0.000 C 
BRANCH  15  16
ATOM     16  C   UNL     1      44.507   5.979  12.351  0.00  0.00    +0.000 A 
ATOM     17  C   UNL     1      45.819   5.542  12.578  0.00  0.00    +0.000 A 
ATOM     18  C   UNL     1      46.885   6.434  12.468  0.00  0.00    +0.000 A 
ATOM     19  C   UNL     1      46.650   7.768  12.127  0.00  0.00    +0.000 A 
ATOM     20  C   UNL     1      45.349   8.221  11.899  0.00  0.00    +0.000 A 
ATOM     21  C   UNL     1      44.281   7.325  12.020  0.00  0.00    +0.000 A 
BRANCH  20  22
ATOM     22  S   UNL     1      45.035   9.945  11.584  0.00  0.00    +0.000 S 
BRANCH  22  23
ATOM     23  C   UNL     1      43.462   9.817  10.662  0.00  0.00    +0.000 C 
ATOM     24  C   UNL     1      43.551  10.603   9.325  0.00  0.00    +0.000 C 
ATOM     25  C   UNL     1      42.143  11.152   9.615  0.00  0.00    +0.000 C 
ATOM     26  C   UNL     1      42.389  10.839  11.105  0.00  0.00    +0.000 C 
ENDBRANCH  22  23
ENDBRANCH  20  22
ENDBRANCH  15  16
ENDBRANCH  14  15
ENDBRANCH   5  14
TORSDOF 6
ENDMDL
MODEL 5
REMARK VINA RESULT:    -6.605      4.624      8.448
REMARK INTER + INTRA:          -9.669
REMARK INTER:                  -8.998
REMARK INTRA:                  -0.671
REMARK UNBOUND:                -0.748
REMARK  Name = 
REMARK  6 active torsions:
REMARK  status: ('A' for Active; 'I' for Inactive)
REMARK    1  A    between atoms: C_2  and  C_4
REMARK    2  A    between atoms: N_8  and  C_9
REMARK    3  A    between atoms: C_9  and  C_10
REMARK    4  A    between atoms: C_10  and  C_11
REMARK    5  A    between atoms: C_15  and  S_16
REMARK    6  A    between atoms: S_16  and  C_17
REMARK                            x       y       z     vdW  Elec       q    Type
REMARK                         _______ _______ _______ _____ _____    ______ ____
ROOT
ATOM      1  C   UNL     1      48.738   4.804  17.564  0.00  0.00    +0.000 A 
ATOM      2  C   UNL     1      47.702   4.213  16.850  0.00  0.00    +0.000 A 
ATOM      3  C   UNL     1      47.322   4.763  15.626  0.00  0.00    +0.000 A 
ATOM      4  C   UNL     1      47.967   5.902  15.149  0.00  0.00    +0.000 A 
ATOM      5  N   UNL     1      47.707   6.448  13.899  0.00  0.00    +0.000 N 
ATOM      6  N   UNL     1      48.941   6.508  15.852  0.00  0.00    +0.000 NA
ATOM      7  C   UNL     1      49.304   5.957  17.042  0.00  0.00    +0.000 A 
ATOM      8  H   UNL     1      48.193   7.343  13.866  0.00  0.00    +0.000 HD
ENDROOT
BRANCH   1  10
ATOM      9  N   UNL     1      48.474   3.321  19.464  0.00  0.00    +0.000 N 
ATOM     10  C   UNL     1      49.257   4.249  18.829  0.00  0.00    +0.000 C 
ATOM     11  O   UNL     1      50.350   4.567  19.272  0.00  0.00    +0.000 OA
ATOM     12  H   UNL     1      48.889   2.853  20.261  0.00  0.00    +0.000 HD
ATOM     13  H   UNL     1      47.708   2.852  19.001  0.00  0.00    +0.000 HD
ENDBRANCH   1  10
BRANCH   5  14
ATOM     14  C   UNL     1      46.334   6.448  13.420  0.00  0.00    +0.000 C 
BRANCH  14  15
ATOM     15  C   UNL     1      46.283   6.501  11.890  0.00  0.00    +0.000 C 
BRANCH  15  16
ATOM     16  C   UNL     1      45.610   5.257  11.359  0.00  0.00    +0.000 A 
ATOM     17  C   UNL     1      45.020   4.340  12.240  0.00  0.00    +0.000 A 
ATOM     18  C   UNL     1      44.329   3.235  11.743  0.00  0.00    +0.000 A 
ATOM     19  C   UNL     1      44.218   3.039  10.365  0.00  0.00    +0.000 A 
ATOM     20  C   UNL     1      44.800   3.943   9.473  0.00  0.00    +0.000 A 
ATOM     21  C   UNL     1      45.501   5.044   9.976  0.00  0.00    +0.000 A 
BRANCH  20  22
ATOM     22  S   UNL     1      44.764   3.631   7.720  0.00  0.00    +0.000 S 
BRANCH  22  23
ATOM     23  C   UNL     1      46.528   3.246   7.431  0.00  0.00    +0.000 C 
ATOM     24  C   UNL     1      46.808   3.093   5.911  0.00  0.00    +0.000 C 
ATOM     25  C   UNL     1      47.657   1.855   6.246  0.00  0.00    +0.000 C 
ATOM     26  C   UNL     1      46.875   1.746   7.571  0.00  0.00    +0.000 C 
ENDBRANCH  22  23
ENDBRANCH  20  22
ENDBRANCH  15  16
ENDBRANCH  14  15
ENDBRANCH   5  14
TORSDOF 6
ENDMDL
MODEL 6
REMARK VINA RESULT:    -6.467      4.181      7.653
REMARK INTER + INTRA:          -9.483
REMARK INTER:                  -8.691
REMARK INTRA:                  -0.793
REMARK UNBOUND:                -0.748
REMARK  Name = 
REMARK  6 active torsions:
REMARK  status: ('A' for Active; 'I' for Inactive)
REMARK    1  A    between atoms: C_2  and  C_4
REMARK    2  A    between atoms: N_8  and  C_9
REMARK    3  A    between atoms: C_9  and  C_10
REMARK    4  A    between atoms: C_10  and  C_11
REMARK    5  A    between atoms: C_15  and  S_16
REMARK    6  A    between atoms: S_16  and  C_17
REMARK                            x       y       z     vdW  Elec       q    Type
REMARK                         _______ _______ _______ _____ _____    ______ ____
ROOT
ATOM      1  C   UNL     1      48.096   4.330  16.759  0.00  0.00    +0.000 A 
ATOM      2  C   UNL     1      47.159   4.366  15.732  0.00  0.00    +0.000 A 
ATOM      3  C   UNL     1      47.288   5.329  14.731  0.00  0.00    +0.000 A 
ATOM      4  C   UNL     1      48.334   6.248  14.785  0.00  0.00    +0.000 A 
ATOM      5  N   UNL     1      48.580   7.172  13.777  0.00  0.00    +0.000 N 
ATOM      6  N   UNL     1      49.220   6.250  15.797  0.00  0.00    +0.000 NA
ATOM      7  C   UNL     1      49.083   5.301  16.764  0.00  0.00    +0.000 A 
ATOM      8  H   UNL     1      49.292   7.807  14.133  0.00  0.00    +0.000 HD
ENDROOT
BRANCH   1  10
ATOM      9  N   UNL     1      49.016   3.427  18.812  0.00  0.00    +0.000 N 
ATOM     10  C   UNL     1      48.082   3.302  17.817  0.00  0.00    +0.000 C 
ATOM     11  O   UNL     1      47.254   2.404  17.833  0.00  0.00    +0.000 OA
ATOM     12  H   UNL     1      48.922   2.795  19.598  0.00  0.00    +0.000 HD
ATOM     13  H   UNL     1      49.530   4.283  18.967  0.00  0.00    +0.000 HD
ENDBRANCH   1  10
BRANCH   5  14
ATOM     14  C   UNL     1      47.441   7.791  13.120  0.00  0.00    +0.000 C 
BRANCH  14  15
ATOM     15  C   UNL     1      47.288   7.282  11.683  0.00  0.00    +0.000 C 
BRANCH  15  16
ATOM     16  C   UNL     1      45.925   6.656  11.506  0.00  0.00    +0.000 A 
ATOM     17  C   UNL     1      44.773   7.453  11.516  0.00  0.00    +0.000 A 
ATOM     18  C   UNL     1      43.523   6.884  11.271  0.00  0.00    +0.000 A 
ATOM     19  C   UNL     1      43.415   5.516  11.010  0.00  0.00    +0.000 A 
ATOM     20  C   UNL     1      44.554   4.706  10.996  0.00  0.00    +0.000 A 
ATOM     21  C   UNL     1      45.804   5.280  11.253  0.00  0.00    +0.000 A 
BRANCH  20  22
ATOM     22  S   UNL     1      44.406   2.945  10.784  0.00  0.00    +0.000 S 
BRANCH  22  23
ATOM     23  C   UNL     1      44.529   2.835   8.963  0.00  0.00    +0.000 C 
ATOM     24  C   UNL     1      45.734   1.944   8.554  0.00  0.00    +0.000 C 
ATOM     25  C   UNL     1      46.078   2.993   7.483  0.00  0.00    +0.000 C 
ATOM     26  C   UNL     1      45.279   4.020   8.312  0.00  0.00    +0.000 C 
ENDBRANCH  22  23
ENDBRANCH  20  22
ENDBRANCH  15  16
ENDBRANCH  14  15
ENDBRANCH   5  14
TORSDOF 6
ENDMDL
MODEL 7
REMARK VINA RESULT:    -6.455      4.804      8.658
REMARK INTER + INTRA:          -9.467
REMARK INTER:                  -8.878
REMARK INTRA:                  -0.589
REMARK UNBOUND:                -0.748
REMARK  Name = 
REMARK  6 active torsions:
REMARK  status: ('A' for Active; 'I' for Inactive)
REMARK    1  A    between atoms: C_2  and  C_4
REMARK    2  A    between atoms: N_8  and  C_9
REMARK    3  A    between atoms: C_9  and  C_10
REMARK    4  A    between atoms: C_10  and  C_11
REMARK    5  A    between atoms: C_15  and  S_16
REMARK    6  A    between atoms: S_16  and  C_17
REMARK                            x       y       z     vdW  Elec       q    Type
REMARK                         _______ _______ _______ _____ _____    ______ ____
ROOT
ATOM      1  C   UNL     1      48.514   4.484  18.602  0.00  0.00    +0.000 A 
ATOM      2  C   UNL     1      48.707   5.446  17.617  0.00  0.00    +0.000 A 
ATOM      3  C   UNL     1      48.098   5.274  16.374  0.00  0.00    +0.000 A 
ATOM      4  C   UNL     1      47.328   4.138  16.131  0.00  0.00    +0.000 A 
ATOM      5  N   UNL     1      46.617   3.947  14.953  0.00  0.00    +0.000 N 
ATOM      6  N   UNL     1      47.171   3.181  17.062  0.00  0.00    +0.000 NA
ATOM      7  C   UNL     1      47.767   3.365  18.271  0.00  0.00    +0.000 A 
ATOM      8  H   UNL     1      46.273   2.988  14.974  0.00  0.00    +0.000 HD
ENDROOT
BRANCH   1  10
ATOM      9  N   UNL     1      50.186   5.380  20.112  0.00  0.00    +0.000 N 
ATOM     10  C   UNL     1      49.056   4.618  19.968  0.00  0.00    +0.000 C 
ATOM     11  O   UNL     1      48.505   4.111  20.933  0.00  0.00    +0.000 OA
ATOM     12  H   UNL     1      50.480   5.571  21.062  0.00  0.00    +0.000 HD
ATOM     13  H   UNL     1      50.506   6.013  19.393  0.00  0.00    +0.000 HD
ENDBRANCH   1  10
BRANCH   5  14
ATOM     14  C   UNL     1      47.223   4.382  13.706  0.00  0.00    +0.000 C 
BRANCH  14  15
ATOM     15  C   UNL     1      46.545   5.648  13.174  0.00  0.00    +0.000 C 
BRANCH  15  16
ATOM     16  C   UNL     1      45.348   5.271  12.332  0.00  0.00    +0.000 A 
ATOM     17  C   UNL     1      44.178   6.040  12.379  0.00  0.00    +0.000 A 
ATOM     18  C   UNL     1      43.106   5.738  11.541  0.00  0.00    +0.000 A 
ATOM     19  C   UNL     1      43.194   4.668  10.647  0.00  0.00    +0.000 A 
ATOM     20  C   UNL     1      44.352   3.889  10.589  0.00  0.00    +0.000 A 
ATOM     21  C   UNL     1      45.422   4.191  11.438  0.00  0.00    +0.000 A 
BRANCH  20  22
ATOM     22  S   UNL     1      44.423   2.453   9.539  0.00  0.00    +0.000 S 
BRANCH  22  23
ATOM     23  C   UNL     1      46.002   2.770   8.675  0.00  0.00    +0.000 C 
ATOM     24  C   UNL     1      45.745   3.480   7.318  0.00  0.00    +0.000 C 
ATOM     25  C   UNL     1      46.778   2.532   6.686  0.00  0.00    +0.000 C 
ATOM     26  C   UNL     1      46.526   1.564   7.860  0.00  0.00    +0.000 C 
ENDBRANCH  22  23
ENDBRANCH  20  22
ENDBRANCH  15  16
ENDBRANCH  14  15
ENDBRANCH   5  14
TORSDOF 6
ENDMDL
MODEL 8
REMARK VINA RESULT:    -6.344      4.934      8.254
REMARK INTER + INTRA:          -9.317
REMARK INTER:                  -8.726
REMARK INTRA:                  -0.591
REMARK UNBOUND:                -0.748
REMARK  Name = 
REMARK  6 active torsions:
REMARK  status: ('A' for Active; 'I' for Inactive)
REMARK    1  A    between atoms: C_2  and  C_4
REMARK    2  A    between atoms: N_8  and  C_9
REMARK    3  A    between atoms: C_9  and  C_10
REMARK    4  A    between atoms: C_10  and  C_11
REMARK    5  A    between atoms: C_15  and  S_16
REMARK    6  A    between atoms: S_16  and  C_17
REMARK                            x       y       z     vdW  Elec       q    Type
REMARK                         _______ _______ _______ _____ _____    ______ ____
ROOT
ATOM      1  C   UNL     1      51.142   2.513  17.535  0.00  0.00    +0.000 A 
ATOM      2  C   UNL     1      50.559   3.736  17.847  0.00  0.00    +0.000 A 
ATOM      3  C   UNL     1      49.293   4.031  17.341  0.00  0.00    +0.000 A 
ATOM      4  C   UNL     1      48.644   3.113  16.519  0.00  0.00    +0.000 A 
ATOM      5  N   UNL     1      47.348   3.297  16.057  0.00  0.00    +0.000 N 
ATOM      6  N   UNL     1      49.217   1.945  16.176  0.00  0.00    +0.000 NA
ATOM      7  C   UNL     1      50.451   1.669  16.681  0.00  0.00    +0.000 A 
ATOM      8  H   UNL     1      47.178   2.567  15.368  0.00  0.00    +0.000 HD
ENDROOT
BRANCH   1  10
ATOM      9  N   UNL     1      52.910   2.771  19.175  0.00  0.00    +0.000 N 
ATOM     10  C   UNL     1      52.443   2.084  18.085  0.00  0.00    +0.000 C 
ATOM     11  O   UNL     1      53.058   1.136  17.621  0.00  0.00    +0.000 OA
ATOM     12  H   UNL     1      53.737   2.394  19.623  0.00  0.00    +0.000 HD
ATOM     13  H   UNL     1      52.317   3.371  19.731  0.00  0.00    +0.000 HD
ENDBRANCH   1  10
BRANCH   5  14
ATOM     14  C   UNL     1      46.937   4.640  15.680  0.00  0.00    +0.000 C 
BRANCH  14  15
ATOM     15  C   UNL     1      47.621   5.083  14.383  0.00  0.00    +0.000 C 
BRANCH  15  16
ATOM     16  C   UNL     1      46.598   5.680  13.446  0.00  0.00    +0.000 A 
ATOM     17  C   UNL     1      46.472   7.071  13.327  0.00  0.00    +0.000 A 
ATOM     18  C   UNL     1      45.585   7.619  12.402  0.00  0.00    +0.000 A 
ATOM     19  C   UNL     1      44.819   6.783  11.585  0.00  0.00    +0.000 A 
ATOM     20  C   UNL     1      44.931   5.395  11.691  0.00  0.00    +0.000 A 
ATOM     21  C   UNL     1      45.816   4.850  12.628  0.00  0.00    +0.000 A 
BRANCH  20  22
ATOM     22  S   UNL     1      43.870   4.328  10.738  0.00  0.00    +0.000 S 
BRANCH  22  23
ATOM     23  C   UNL     1      45.122   3.454   9.732  0.00  0.00    +0.000 C 
ATOM     24  C   UNL     1      45.482   4.285   8.471  0.00  0.00    +0.000 C 
ATOM     25  C   UNL     1      45.417   2.981   7.658  0.00  0.00    +0.000 C 
ATOM     26  C   UNL     1      44.529   2.395   8.775  0.00  0.00    +0.000 C 
ENDBRANCH  22  23
ENDBRANCH  20  22
ENDBRANCH  15  16
ENDBRANCH  14  15
ENDBRANCH   5  14
TORSDOF 6
ENDMDL
MODEL 9
REMARK VINA RESULT:    -6.248      3.641      5.305
REMARK INTER + INTRA:          -9.187
REMARK INTER:                  -7.808
REMARK INTRA:                  -1.379
REMARK UNBOUND:                -0.748
REMARK  Name = 
REMARK  6 active torsions:
REMARK  status: ('A' for Active; 'I' for Inactive)
REMARK    1  A    between atoms: C_2  and  C_4
REMARK    2  A    between atoms: N_8  and  C_9
REMARK    3  A    between atoms: C_9  and  C_10
REMARK    4  A    between atoms: C_10  and  C_11
REMARK    5  A    between atoms: C_15  and  S_16
REMARK    6  A    between atoms: S_16  and  C_17
REMARK                            x       y       z     vdW  Elec       q    Type
REMARK                         _______ _______ _______ _____ _____    ______ ____
ROOT
ATOM      1  C   UNL     1      44.956   4.799  12.648  0.00  0.00    +0.000 A 
ATOM      2  C   UNL     1      45.930   4.967  13.626  0.00  0.00    +0.000 A 
ATOM      3  C   UNL     1      47.006   5.817  13.371  0.00  0.00    +0.000 A 
ATOM      4  C   UNL     1      47.101   6.464  12.141  0.00  0.00    +0.000 A 
ATOM      5  N   UNL     1      48.090   7.395  11.852  0.00  0.00    +0.000 N 
ATOM      6  N   UNL     1      46.187   6.275  11.172  0.00  0.00    +0.000 NA
ATOM      7  C   UNL     1      45.140   5.446  11.437  0.00  0.00    +0.000 A 
ATOM      8  H   UNL     1      48.020   7.594  10.856  0.00  0.00    +0.000 HD
ENDROOT
BRANCH   1  10
ATOM      9  N   UNL     1      43.855   2.639  12.596  0.00  0.00    +0.000 N 
ATOM     10  C   UNL     1      43.746   3.980  12.857  0.00  0.00    +0.000 C 
ATOM     11  O   UNL     1      42.707   4.461  13.282  0.00  0.00    +0.000 OA
ATOM     12  H   UNL     1      43.063   2.064  12.860  0.00  0.00    +0.000 HD
ATOM     13  H   UNL     1      44.748   2.177  12.500  0.00  0.00    +0.000 HD
ENDBRANCH   1  10
BRANCH   5  14
ATOM     14  C   UNL     1      49.430   7.155  12.364  0.00  0.00    +0.000 C 
BRANCH  14  15
ATOM     15  C   UNL     1      49.938   8.357  13.166  0.00  0.00    +0.000 C 
BRANCH  15  16
ATOM     16  C   UNL     1      49.541   8.206  14.616  0.00  0.00    +0.000 A 
ATOM     17  C   UNL     1      48.727   9.166  15.231  0.00  0.00    +0.000 A 
ATOM     18  C   UNL     1      48.295   8.982  16.545  0.00  0.00    +0.000 A 
ATOM     19  C   UNL     1      48.670   7.838  17.252  0.00  0.00    +0.000 A 
ATOM     20  C   UNL     1      49.483   6.872  16.655  0.00  0.00    +0.000 A 
ATOM     21  C   UNL     1      49.922   7.065  15.340  0.00  0.00    +0.000 A 
BRANCH  20  22
ATOM     22  S   UNL     1      50.062   5.473  17.593  0.00  0.00    +0.000 S 
BRANCH  22  23
ATOM     23  C   UNL     1      48.462   4.712  18.045  0.00  0.00    +0.000 C 
ATOM     24  C   UNL     1      48.628   3.181  18.247  0.00  0.00    +0.000 C 
ATOM     25  C   UNL     1      47.322   2.990  17.456  0.00  0.00    +0.000 C 
ATOM     26  C   UNL     1      47.560   4.381  16.834  0.00  0.00    +0.000 C 
ENDBRANCH  22  23
ENDBRANCH  20  22
ENDBRANCH  15  16
ENDBRANCH  14  15
ENDBRANCH   5  14
TORSDOF 6
ENDMDL
