MODEL 1
REMARK VINA RESULT:    -8.749      0.000      0.000
REMARK INTER + INTRA:         -11.603
REMARK INTER:                 -11.050
REMARK INTRA:                  -0.552
REMARK UNBOUND:                -0.552
REMARK  Name = 
REMARK  7 active torsions:
REMARK  status: ('A' for Active; 'I' for Inactive)
REMARK    1  A    between atoms: C_1  and  C_2
REMARK    2  A    between atoms: C_2  and  C_3
REMARK    3  A    between atoms: C_2  and  N_11
REMARK    4  A    between atoms: C_7  and  C_8
REMARK    5  A    between atoms: C_8  and  N_9
REMARK    6  A    between atoms: N_11  and  C_12
REMARK    7  A    between atoms: C_16  and  C_17
REMARK                            x       y       z     vdW  Elec       q    Type
REMARK                         _______ _______ _______ _____ _____    ______ ____
ROOT
ATOM      1  N   UNL     1      43.944   3.879  10.631  0.00  0.00    +0.000 N 
ATOM      2  C   UNL     1      43.347   2.776  11.378  0.00  0.00    +0.000 C 
ATOM      3  C   UNL     1      44.750   3.508   9.566  0.00  0.00    +0.000 A 
ATOM      4  C   UNL     1      45.364   4.428   8.716  0.00  0.00    +0.000 A 
ATOM      5  C   UNL     1      46.223   3.998   7.700  0.00  0.00    +0.000 A 
ATOM      6  C   UNL     1      46.456   2.640   7.514  0.00  0.00    +0.000 A 
ATOM      7  C   UNL     1      45.781   1.778   8.354  0.00  0.00    +0.000 A 
ATOM      8  N   UNL     1      44.952   2.184   9.352  0.00  0.00    +0.000 NA
ENDROOT
BRANCH   6   9
ATOM      9  C   UNL     1      47.411   2.204   6.464  0.00  0.00    +0.000 C 
ATOM     10  N   UNL     1      47.503   2.917   5.304  0.00  0.00    +0.000 N 
ATOM     11  O   UNL     1      48.111   1.208   6.625  0.00  0.00    +0.000 OA
ATOM     12  H   UNL     1      46.998   3.758   5.082  0.00  0.00    +0.000 HD
ATOM     13  H   UNL     1      48.162   2.572   4.617  0.00  0.00    +0.000 HD
ENDBRANCH   6   9
BRANCH   1  15
ATOM     14  C   UNL     1      42.405   5.387  11.812  0.00  0.00    +0.000 C 
ATOM     15  C   UNL     1      43.737   5.273  11.060  0.00  0.00    +0.000 C 
BRANCH  15  16
ATOM     16  C   UNL     1      44.952   5.826  11.806  0.00  0.00    +0.000 A 
ATOM     17  C   UNL     1      45.506   7.086  11.537  0.00  0.00    +0.000 A 
ATOM     18  C   UNL     1      46.539   7.595  12.324  0.00  0.00    +0.000 A 
ATOM     19  C   UNL     1      47.059   6.836  13.370  0.00  0.00    +0.000 A 
ATOM     20  C   UNL     1      46.581   5.544  13.624  0.00  0.00    +0.000 A 
ATOM     21  C   UNL     1      45.508   5.066  12.854  0.00  0.00    +0.000 A 
BRANCH  20  22
ATOM     22  C   UNL     1      47.134   4.691  14.741  0.00  0.00    +0.000 C 
BRANCH  22  23
ATOM     23  N   UNL     1      47.332   3.294  14.355  0.00  0.00    +0.000 NA
ATOM     24  H   UNL     1      47.884   3.272  13.496  0.00  0.00    +0.000 HD
ATOM     25  H   UNL     1      46.431   2.884  14.127  0.00  0.00    +0.000 HD
ENDBRANCH  22  23
ENDBRANCH  20  22
ENDBRANCH  15  16
ENDBRANCH   1  15
TORSDOF 5
ENDMDL
MODEL 2
REMARK VINA RESULT:    -8.282      1.537      2.288
REMARK INTER + INTRA:         -11.013
REMARK INTER:                 -10.538
REMARK INTRA:                  -0.475
REMARK UNBOUND:                -0.552
REMARK  Name = 
REMARK  7 active torsions:
REMARK  status: ('A' for Active; 'I' for Inactive)
REMARK    1  A    between atoms: C_1  and  C_2
REMARK    2  A    between atoms: C_2  and  C_3
REMARK    3  A    between atoms: C_2  and  N_11
REMARK    4  A    between atoms: C_7  and  C_8
REMARK    5  A    between atoms: C_8  and  N_9
REMARK    6  A    between atoms: N_11  and  C_12
REMARK    7  A    between atoms: C_16  and  C_17
REMARK                            x       y       z     vdW  Elec       q    Type
REMARK                         _______ _______ _______ _____ _____    ______ ____
ROOT
ATOM      1  N   UNL     1      43.958   3.908  10.638  0.00  0.00    +0.000 N 
ATOM      2  C   UNL     1      43.418   2.806  11.430  0.00  0.00    +0.000 C 
ATOM      3  C   UNL     1      44.783   3.536   9.588  0.00  0.00    +0.000 A 
ATOM      4  C   UNL     1      45.351   4.451   8.702  0.00  0.00    +0.000 A 
ATOM      5  C   UNL     1      46.232   4.025   7.703  0.00  0.00    +0.000 A 
ATOM      6  C   UNL     1      46.534   2.675   7.571  0.00  0.00    +0.000 A 
ATOM      7  C   UNL     1      45.903   1.814   8.446  0.00  0.00    +0.000 A 
ATOM      8  N   UNL     1      45.053   2.217   9.428  0.00  0.00    +0.000 NA
ENDROOT
BRANCH   6   9
ATOM      9  C   UNL     1      47.511   2.246   6.539  0.00  0.00    +0.000 C 
ATOM     10  N   UNL     1      47.692   3.016   5.427  0.00  0.00    +0.000 N 
ATOM     11  O   UNL     1      48.150   1.205   6.671  0.00  0.00    +0.000 OA
ATOM     12  H   UNL     1      47.243   3.895   5.233  0.00  0.00    +0.000 HD
ATOM     13  H   UNL     1      48.363   2.674   4.750  0.00  0.00    +0.000 HD
ENDBRANCH   6   9
BRANCH   1  15
ATOM     14  C   UNL     1      42.327   5.386  11.730  0.00  0.00    +0.000 C 
ATOM     15  C   UNL     1      43.680   5.306  11.011  0.00  0.00    +0.000 C 
BRANCH  15  16
ATOM     16  C   UNL     1      44.852   5.939  11.762  0.00  0.00    +0.000 A 
ATOM     17  C   UNL     1      45.821   5.185  12.442  0.00  0.00    +0.000 A 
ATOM     18  C   UNL     1      46.935   5.802  13.012  0.00  0.00    +0.000 A 
ATOM     19  C   UNL     1      47.078   7.186  12.943  0.00  0.00    +0.000 A 
ATOM     20  C   UNL     1      46.095   7.979  12.336  0.00  0.00    +0.000 A 
ATOM     21  C   UNL     1      45.004   7.339  11.725  0.00  0.00    +0.000 A 
BRANCH  20  22
ATOM     22  C   UNL     1      46.214   9.483  12.260  0.00  0.00    +0.000 C 
BRANCH  22  23
ATOM     23  N   UNL     1      44.940  10.172  12.458  0.00  0.00    +0.000 NA
ATOM     24  H   UNL     1      44.984  11.074  11.981  0.00  0.00    +0.000 HD
ATOM     25  H   UNL     1      44.825  10.376  13.446  0.00  0.00    +0.000 HD
ENDBRANCH  22  23
ENDBRANCH  20  22
ENDBRANCH  15  16
ENDBRANCH   1  15
TORSDOF 5
ENDMDL
MODEL 3
REMARK VINA RESULT:    -6.719      2.925      6.404
REMARK INTER + INTRA:          -9.039
REMARK INTER:                  -8.613
REMARK INTRA:                  -0.426
REMARK UNBOUND:                -0.552
REMARK  Name = 
REMARK  7 active torsions:
REMARK  status: ('A' for Active; 'I' for Inactive)
REMARK    1  A    between atoms: C_1  and  C_2
REMARK    2  A    between atoms: C_2  and  C_3
REMARK    3  A    between atoms: C_2  and  N_11
REMARK    4  A    between atoms: C_7  and  C_8
REMARK    5  A    between atoms: C_8  and  N_9
REMARK    6  A    between atoms: N_11  and  C_12
REMARK    7  A    between atoms: C_16  and  C_17
REMARK                            x       y       z     vdW  Elec       q    Type
REMARK                         _______ _______ _______ _____ _____    ______ ____
ROOT
ATOM      1  N   UNL     1      44.210   5.011  11.727  0.00  0.00    +0.000 N 
ATOM      2  C   UNL     1      42.900   5.611  11.497  0.00  0.00    +0.000 C 
ATOM      3  C   UNL     1      45.158   5.852  12.290  0.00  0.00    +0.000 A 
ATOM      4  C   UNL     1      46.448   5.437  12.620  0.00  0.00    +0.000 A 
ATOM      5  C   UNL     1      47.384   6.346  13.121  0.00  0.00    +0.000 A 
ATOM      6  C   UNL     1      47.028   7.676  13.315  0.00  0.00    +0.000 A 
ATOM      7  C   UNL     1      45.724   8.015  13.016  0.00  0.00    +0.000 A 
ATOM      8  N   UNL     1      44.808   7.142  12.519  0.00  0.00    +0.000 NA
ENDROOT
BRANCH   6   9
ATOM      9  C   UNL     1      48.049   8.639  13.797  0.00  0.00    +0.000 C 
ATOM     10  N   UNL     1      47.722   9.526  14.782  0.00  0.00    +0.000 N 
ATOM     11  O   UNL     1      49.179   8.652  13.317  0.00  0.00    +0.000 OA
ATOM     12  H   UNL     1      46.839   9.583  15.261  0.00  0.00    +0.000 HD
ATOM     13  H   UNL     1      48.452  10.167  15.069  0.00  0.00    +0.000 HD
ENDBRANCH   6   9
BRANCH   1  15
ATOM     14  C   UNL     1      43.226   2.772  11.497  0.00  0.00    +0.000 C 
ATOM     15  C   UNL     1      44.485   3.626  11.307  0.00  0.00    +0.000 C 
BRANCH  15  16
ATOM     16  C   UNL     1      45.104   3.567   9.910  0.00  0.00    +0.000 A 
ATOM     17  C   UNL     1      45.312   4.705   9.117  0.00  0.00    +0.000 A 
ATOM     18  C   UNL     1      45.987   4.615   7.900  0.00  0.00    +0.000 A 
ATOM     19  C   UNL     1      46.432   3.378   7.439  0.00  0.00    +0.000 A 
ATOM     20  C   UNL     1      46.179   2.208   8.168  0.00  0.00    +0.000 A 
ATOM     21  C   UNL     1      45.541   2.323   9.414  0.00  0.00    +0.000 A 
BRANCH  20  22
ATOM     22  C   UNL     1      46.635   0.851   7.687  0.00  0.00    +0.000 C 
BRANCH  22  23
ATOM     23  N   UNL     1      47.613   0.922   6.603  0.00  0.00    +0.000 NA
ATOM     24  H   UNL     1      47.109   0.917   5.714  0.00  0.00    +0.000 HD
ATOM     25  H   UNL     1      48.182   0.080   6.615  0.00  0.00    +0.000 HD
ENDBRANCH  22  23
ENDBRANCH  20  22
ENDBRANCH  15  16
ENDBRANCH   1  15
TORSDOF 5
ENDMDL
MODEL 4
REMARK VINA RESULT:    -6.593      2.562      6.098
REMARK INTER + INTRA:          -8.880
REMARK INTER:                  -8.837
REMARK INTRA:                  -0.043
REMARK UNBOUND:                -0.552
REMARK  Name = 
REMARK  7 active torsions:
REMARK  status: ('A' for Active; 'I' for Inactive)
REMARK    1  A    between atoms: C_1  and  C_2
REMARK    2  A    between atoms: C_2  and  C_3
REMARK    3  A    between atoms: C_2  and  N_11
REMARK    4  A    between atoms: C_7  and  C_8
REMARK    5  A    between atoms: C_8  and  N_9
REMARK    6  A    between atoms: N_11  and  C_12
REMARK    7  A    between atoms: C_16  and  C_17
REMARK                            x       y       z     vdW  Elec       q    Type
REMARK                         _______ _______ _______ _____ _____    ______ ____
ROOT
ATOM      1  N   UNL     1      44.334   3.846  11.997  0.00  0.00    +0.000 N 
ATOM      2  C   UNL     1      43.718   2.762  12.755  0.00  0.00    +0.000 C 
ATOM      3  C   UNL     1      45.398   4.479  12.622  0.00  0.00    +0.000 A 
ATOM      4  C   UNL     1      46.133   5.505  12.028  0.00  0.00    +0.000 A 
ATOM      5  C   UNL     1      47.152   6.153  12.732  0.00  0.00    +0.000 A 
ATOM      6  C   UNL     1      47.457   5.763  14.031  0.00  0.00    +0.000 A 
ATOM      7  C   UNL     1      46.728   4.710  14.546  0.00  0.00    +0.000 A 
ATOM      8  N   UNL     1      45.728   4.079  13.875  0.00  0.00    +0.000 NA
ENDROOT
BRANCH   6   9
ATOM      9  C   UNL     1      48.506   6.497  14.783  0.00  0.00    +0.000 C 
ATOM     10  N   UNL     1      48.322   6.757  16.110  0.00  0.00    +0.000 N 
ATOM     11  O   UNL     1      49.530   6.879  14.224  0.00  0.00    +0.000 OA
ATOM     12  H   UNL     1      47.536   6.468  16.669  0.00  0.00    +0.000 HD
ATOM     13  H   UNL     1      49.062   7.268  16.574  0.00  0.00    +0.000 HD
ENDBRANCH   6   9
BRANCH   1  15
ATOM     14  C   UNL     1      43.343   5.725  10.762  0.00  0.00    +0.000 C 
ATOM     15  C   UNL     1      43.784   4.257  10.694  0.00  0.00    +0.000 C 
BRANCH  15  16
ATOM     16  C   UNL     1      44.731   3.918   9.543  0.00  0.00    +0.000 A 
ATOM     17  C   UNL     1      45.399   4.895   8.790  0.00  0.00    +0.000 A 
ATOM     18  C   UNL     1      46.343   4.535   7.828  0.00  0.00    +0.000 A 
ATOM     19  C   UNL     1      46.606   3.189   7.579  0.00  0.00    +0.000 A 
ATOM     20  C   UNL     1      45.906   2.184   8.259  0.00  0.00    +0.000 A 
ATOM     21  C   UNL     1      44.994   2.564   9.257  0.00  0.00    +0.000 A 
BRANCH  20  22
ATOM     22  C   UNL     1      46.157   0.718   7.999  0.00  0.00    +0.000 C 
BRANCH  22  23
ATOM     23  N   UNL     1      47.273   0.477   7.086  0.00  0.00    +0.000 NA
ATOM     24  H   UNL     1      47.593  -0.484   7.215  0.00  0.00    +0.000 HD
ATOM     25  H   UNL     1      48.050   1.076   7.350  0.00  0.00    +0.000 HD
ENDBRANCH  22  23
ENDBRANCH  20  22
ENDBRANCH  15  16
ENDBRANCH   1  15
TORSDOF 5
ENDMDL
MODEL 5
REMARK VINA RESULT:    -6.185      3.854      5.985
REMARK INTER + INTRA:          -8.364
REMARK INTER:                  -7.755
REMARK INTRA:                  -0.609
REMARK UNBOUND:                -0.552
REMARK  Name = 
REMARK  7 active torsions:
REMARK  status: ('A' for Active; 'I' for Inactive)
REMARK    1  A    between atoms: C_1  and  C_2
REMARK    2  A    between atoms: C_2  and  C_3
REMARK    3  A    between atoms: C_2  and  N_11
REMARK    4  A    between atoms: C_7  and  C_8
REMARK    5  A    between atoms: C_8  and  N_9
REMARK    6  A    between atoms: N_11  and  C_12
REMARK    7  A    between atoms: C_16  and  C_17
REMARK                            x       y       z     vdW  Elec       q    Type
REMARK                         _______ _______ _______ _____ _____    ______ ____
ROOT
ATOM      1  N   UNL     1      47.658   7.274  13.791  0.00  0.00    +0.000 N 
ATOM      2  C   UNL     1      47.259   8.674  13.686  0.00  0.00    +0.000 C 
ATOM      3  C   UNL     1      46.738   6.356  13.304  0.00  0.00    +0.000 A 
ATOM      4  C   UNL     1      46.970   4.981  13.283  0.00  0.00    +0.000 A 
ATOM      5  C   UNL     1      45.980   4.097  12.845  0.00  0.00    +0.000 A 
ATOM      6  C   UNL     1      44.755   4.587  12.405  0.00  0.00    +0.000 A 
ATOM      7  C   UNL     1      44.604   5.959  12.404  0.00  0.00    +0.000 A 
ATOM      8  N   UNL     1      45.556   6.827  12.837  0.00  0.00    +0.000 NA
ENDROOT
BRANCH   6   9
ATOM      9  C   UNL     1      43.697   3.632  11.993  0.00  0.00    +0.000 C 
ATOM     10  N   UNL     1      43.694   2.369  12.512  0.00  0.00    +0.000 N 
ATOM     11  O   UNL     1      42.830   3.961  11.187  0.00  0.00    +0.000 OA
ATOM     12  H   UNL     1      44.337   2.006  13.195  0.00  0.00    +0.000 HD
ATOM     13  H   UNL     1      42.956   1.754  12.192  0.00  0.00    +0.000 HD
ENDBRANCH   6   9
BRANCH   1  15
ATOM     14  C   UNL     1      50.008   7.926  14.082  0.00  0.00    +0.000 C 
ATOM     15  C   UNL     1      48.924   6.902  14.443  0.00  0.00    +0.000 C 
BRANCH  15  16
ATOM     16  C   UNL     1      48.743   6.652  15.941  0.00  0.00    +0.000 A 
ATOM     17  C   UNL     1      48.799   7.676  16.899  0.00  0.00    +0.000 A 
ATOM     18  C   UNL     1      48.509   7.418  18.239  0.00  0.00    +0.000 A 
ATOM     19  C   UNL     1      48.196   6.123  18.647  0.00  0.00    +0.000 A 
ATOM     20  C   UNL     1      48.201   5.062  17.733  0.00  0.00    +0.000 A 
ATOM     21  C   UNL     1      48.447   5.347  16.380  0.00  0.00    +0.000 A 
BRANCH  20  22
ATOM     22  C   UNL     1      47.881   3.645  18.149  0.00  0.00    +0.000 C 
BRANCH  22  23
ATOM     23  N   UNL     1      46.657   3.128  17.538  0.00  0.00    +0.000 NA
ATOM     24  H   UNL     1      46.909   2.369  16.904  0.00  0.00    +0.000 HD
ATOM     25  H   UNL     1      46.242   3.856  16.964  0.00  0.00    +0.000 HD
ENDBRANCH  22  23
ENDBRANCH  20  22
ENDBRANCH  15  16
ENDBRANCH   1  15
TORSDOF 5
ENDMDL
MODEL 6
REMARK VINA RESULT:    -5.875      3.176      6.451
REMARK INTER + INTRA:          -7.973
REMARK INTER:                  -7.535
REMARK INTRA:                  -0.438
REMARK UNBOUND:                -0.552
REMARK  Name = 
REMARK  7 active torsions:
REMARK  status: ('A' for Active; 'I' for Inactive)
REMARK    1  A    between atoms: C_1  and  C_2
REMARK    2  A    between atoms: C_2  and  C_3
REMARK    3  A    between atoms: C_2  and  N_11
REMARK    4  A    between atoms: C_7  and  C_8
REMARK    5  A    between atoms: C_8  and  N_9
REMARK    6  A    between atoms: N_11  and  C_12
REMARK    7  A    between atoms: C_16  and  C_17
REMARK                            x       y       z     vdW  Elec       q    Type
REMARK                         _______ _______ _______ _____ _____    ______ ____
ROOT
ATOM      1  N   UNL     1      44.909   6.471  11.946  0.00  0.00    +0.000 N 
ATOM      2  C   UNL     1      44.431   7.745  11.417  0.00  0.00    +0.000 C 
ATOM      3  C   UNL     1      46.023   6.550  12.768  0.00  0.00    +0.000 A 
ATOM      4  C   UNL     1      46.588   5.441  13.396  0.00  0.00    +0.000 A 
ATOM      5  C   UNL     1      47.753   5.569  14.159  0.00  0.00    +0.000 A 
ATOM      6  C   UNL     1      48.348   6.816  14.316  0.00  0.00    +0.000 A 
ATOM      7  C   UNL     1      47.714   7.882  13.711  0.00  0.00    +0.000 A 
ATOM      8  N   UNL     1      46.588   7.768  12.959  0.00  0.00    +0.000 NA
ENDROOT
BRANCH   6   9
ATOM      9  C   UNL     1      49.612   6.925  15.086  0.00  0.00    +0.000 C 
ATOM     10  N   UNL     1      50.539   7.860  14.723  0.00  0.00    +0.000 N 
ATOM     11  O   UNL     1      49.837   6.182  16.037  0.00  0.00    +0.000 OA
ATOM     12  H   UNL     1      50.446   8.532  13.981  0.00  0.00    +0.000 HD
ATOM     13  H   UNL     1      51.388   7.887  15.274  0.00  0.00    +0.000 HD
ENDBRANCH   6   9
BRANCH   1  15
ATOM     14  C   UNL     1      42.746   5.385  11.528  0.00  0.00    +0.000 C 
ATOM     15  C   UNL     1      44.269   5.206  11.547  0.00  0.00    +0.000 C 
BRANCH  15  16
ATOM     16  C   UNL     1      44.871   4.644  10.259  0.00  0.00    +0.000 A 
ATOM     17  C   UNL     1      45.595   5.427   9.348  0.00  0.00    +0.000 A 
ATOM     18  C   UNL     1      46.225   4.846   8.248  0.00  0.00    +0.000 A 
ATOM     19  C   UNL     1      46.110   3.476   8.022  0.00  0.00    +0.000 A 
ATOM     20  C   UNL     1      45.336   2.672   8.869  0.00  0.00    +0.000 A 
ATOM     21  C   UNL     1      44.748   3.265   9.998  0.00  0.00    +0.000 A 
BRANCH  20  22
ATOM     22  C   UNL     1      45.179   1.187   8.641  0.00  0.00    +0.000 C 
BRANCH  22  23
ATOM     23  N   UNL     1      46.375   0.561   8.080  0.00  0.00    +0.000 NA
ATOM     24  H   UNL     1      46.095  -0.014   7.284  0.00  0.00    +0.000 HD
ATOM     25  H   UNL     1      46.769  -0.075   8.768  0.00  0.00    +0.000 HD
ENDBRANCH  22  23
ENDBRANCH  20  22
ENDBRANCH  15  16
ENDBRANCH   1  15
TORSDOF 5
ENDMDL
