MODEL 1
REMARK VINA RESULT:    -8.468      0.000      0.000
REMARK INTER + INTRA:         -14.188
REMARK INTER:                 -12.924
REMARK INTRA:                  -1.264
REMARK UNBOUND:                -1.264
REMARK  Name = 
REMARK  9 active torsions:
REMARK  status: ('A' for Active; 'I' for Inactive)
REMARK    1  A    between atoms: C_2  and  C_4
REMARK    2  A    between atoms: C_4  and  C_5
REMARK    3  A    between atoms: C_5  and  N_6
REMARK    4  A    between atoms: C_5  and  C_28
REMARK    5  A    between atoms: N_6  and  C_7
REMARK    6  A    between atoms: C_7  and  C_8
REMARK    7  A    between atoms: C_11  and  C_12
REMARK    8  A    between atoms: C_12  and  N_13
REMARK    9  A    between atoms: C_14  and  C_16
REMARK                            x       y       z     vdW  Elec       q    Type
REMARK                         _______ _______ _______ _____ _____    ______ ____
ROOT
ATOM      1  C   UNL     1      46.698   5.069  13.385  0.00  0.00    +0.000 A 
ATOM      2  C   UNL     1      46.883   4.447  14.623  0.00  0.00    +0.000 A 
ATOM      3  C   UNL     1      47.710   5.024  15.590  0.00  0.00    +0.000 A 
ATOM      4  C   UNL     1      48.370   6.233  15.335  0.00  0.00    +0.000 A 
ATOM      5  C   UNL     1      48.210   6.842  14.085  0.00  0.00    +0.000 A 
ATOM      6  C   UNL     1      47.378   6.269  13.123  0.00  0.00    +0.000 A 
ENDROOT
BRANCH   1   7
ATOM      7  C   UNL     1      45.885   4.424  12.285  0.00  0.00    +0.000 C 
BRANCH   7   8
ATOM      8  N   UNL     1      45.446   5.360  11.244  0.00  0.00    +0.000 NA
ATOM      9  H   UNL     1      45.060   6.192  11.681  0.00  0.00    +0.000 HD
BRANCH   8  10
ATOM     10  C   UNL     1      44.447   4.775  10.313  0.00  0.00    +0.000 C 
BRANCH  10  11
ATOM     11  C   UNL     1      45.115   3.855   9.297  0.00  0.00    +0.000 A 
ATOM     12  C   UNL     1      45.892   4.404   8.264  0.00  0.00    +0.000 A 
ATOM     13  C   UNL     1      46.588   3.578   7.379  0.00  0.00    +0.000 A 
ATOM     14  C   UNL     1      46.528   2.192   7.521  0.00  0.00    +0.000 A 
ATOM     15  C   UNL     1      45.760   1.635   8.538  0.00  0.00    +0.000 A 
ATOM     16  C   UNL     1      45.052   2.458   9.415  0.00  0.00    +0.000 A 
ENDBRANCH  10  11
BRANCH  10  17
ATOM     17  C   UNL     1      43.241   4.168  11.060  0.00  0.00    +0.000 C 
BRANCH  17  19
ATOM     18  N   UNL     1      42.094   6.248  11.629  0.00  0.00    +0.000 N 
ATOM     19  C   UNL     1      42.664   5.104  12.097  0.00  0.00    +0.000 C 
ATOM     20  O   UNL     1      42.722   4.880  13.302  0.00  0.00    +0.000 OA
ATOM     21  H   UNL     1      41.737   6.894  12.321  0.00  0.00    +0.000 HD
ATOM     22  H   UNL     1      42.193   6.568  10.677  0.00  0.00    +0.000 HD
ENDBRANCH  17  19
ENDBRANCH  10  17
ENDBRANCH   8  10
ENDBRANCH   7   8
ENDBRANCH   1   7
BRANCH   4  23
ATOM     23  C   UNL     1      49.283   6.845  16.361  0.00  0.00    +0.000 C 
BRANCH  23  24
ATOM     24  N   UNL     1      50.336   5.933  16.724  0.00  0.00    +0.000 N 
ATOM     25  C   UNL     1      50.563   5.609  18.036  0.00  0.00    +0.000 C 
ATOM     26  O   UNL     1      49.877   6.066  18.947  0.00  0.00    +0.000 OA
ATOM     27  H   UNL     1      51.044   5.736  16.024  0.00  0.00    +0.000 HD
BRANCH  25  28
ATOM     28  C   UNL     1      51.622   4.627  18.294  0.00  0.00    +0.000 A 
ATOM     29  C   UNL     1      52.780   5.027  18.950  0.00  0.00    +0.000 A 
ATOM     30  S   UNL     1      53.874   3.754  19.244  0.00  0.00    +0.000 S 
ATOM     31  C   UNL     1      52.865   2.633  18.457  0.00  0.00    +0.000 A 
ATOM     32  N   UNL     1      53.230   1.327  18.339  0.00  0.00    +0.000 NA
ATOM     33  C   UNL     1      52.388   0.596  17.687  0.00  0.00    +0.000 A 
ATOM     34  N   UNL     1      51.214   1.050  17.147  0.00  0.00    +0.000 N 
ATOM     35  C   UNL     1      50.790   2.352  17.267  0.00  0.00    +0.000 A 
ATOM     36  O   UNL     1      49.715   2.718  16.802  0.00  0.00    +0.000 OA
ATOM     37  C   UNL     1      51.704   3.220  17.985  0.00  0.00    +0.000 A 
ATOM     38  H   UNL     1      50.597   0.424  16.649  0.00  0.00    +0.000 HD
ENDBRANCH  25  28
ENDBRANCH  23  24
ENDBRANCH   4  23
TORSDOF 9
ENDMDL
MODEL 2
REMARK VINA RESULT:    -8.451      2.685      3.246
REMARK INTER + INTRA:         -14.161
REMARK INTER:                 -12.535
REMARK INTRA:                  -1.626
REMARK UNBOUND:                -1.264
REMARK  Name = 
REMARK  9 active torsions:
REMARK  status: ('A' for Active; 'I' for Inactive)
REMARK    1  A    between atoms: C_2  and  C_4
REMARK    2  A    between atoms: C_4  and  C_5
REMARK    3  A    between atoms: C_5  and  N_6
REMARK    4  A    between atoms: C_5  and  C_28
REMARK    5  A    between atoms: N_6  and  C_7
REMARK    6  A    between atoms: C_7  and  C_8
REMARK    7  A    between atoms: C_11  and  C_12
REMARK    8  A    between atoms: C_12  and  N_13
REMARK    9  A    between atoms: C_14  and  C_16
REMARK                            x       y       z     vdW  Elec       q    Type
REMARK                         _______ _______ _______ _____ _____    ______ ____
ROOT
ATOM      1  C   UNL     1      45.675   6.947  11.700  0.00  0.00    +0.000 A 
ATOM      2  C   UNL     1      45.379   8.054  12.502  0.00  0.00    +0.000 A 
ATOM      3  C   UNL     1      46.384   8.685  13.240  0.00  0.00    +0.000 A 
ATOM      4  C   UNL     1      47.704   8.217  13.191  0.00  0.00    +0.000 A 
ATOM      5  C   UNL     1      47.997   7.091  12.414  0.00  0.00    +0.000 A 
ATOM      6  C   UNL     1      46.994   6.467  11.671  0.00  0.00    +0.000 A 
ENDROOT
BRANCH   1   7
ATOM      7  C   UNL     1      44.595   6.188  10.965  0.00  0.00    +0.000 C 
BRANCH   7   8
ATOM      8  N   UNL     1      45.084   5.432   9.806  0.00  0.00    +0.000 NA
ATOM      9  H   UNL     1      44.680   5.817   8.957  0.00  0.00    +0.000 HD
BRANCH   8  10
ATOM     10  C   UNL     1      44.787   3.978   9.885  0.00  0.00    +0.000 C 
BRANCH  10  11
ATOM     11  C   UNL     1      45.478   3.214   8.761  0.00  0.00    +0.000 A 
ATOM     12  C   UNL     1      46.028   3.915   7.675  0.00  0.00    +0.000 A 
ATOM     13  C   UNL     1      46.744   3.245   6.682  0.00  0.00    +0.000 A 
ATOM     14  C   UNL     1      46.933   1.867   6.766  0.00  0.00    +0.000 A 
ATOM     15  C   UNL     1      46.392   1.158   7.833  0.00  0.00    +0.000 A 
ATOM     16  C   UNL     1      45.663   1.824   8.820  0.00  0.00    +0.000 A 
ENDBRANCH  10  11
BRANCH  10  17
ATOM     17  C   UNL     1      45.016   3.414  11.303  0.00  0.00    +0.000 C 
BRANCH  17  19
ATOM     18  N   UNL     1      43.560   3.526  13.261  0.00  0.00    +0.000 N 
ATOM     19  C   UNL     1      43.727   3.042  11.999  0.00  0.00    +0.000 C 
ATOM     20  O   UNL     1      42.877   2.321  11.488  0.00  0.00    +0.000 OA
ATOM     21  H   UNL     1      42.714   3.252  13.745  0.00  0.00    +0.000 HD
ATOM     22  H   UNL     1      44.302   3.954  13.794  0.00  0.00    +0.000 HD
ENDBRANCH  17  19
ENDBRANCH  10  17
ENDBRANCH   8  10
ENDBRANCH   7   8
ENDBRANCH   1   7
BRANCH   4  23
ATOM     23  C   UNL     1      48.785   8.874  14.004  0.00  0.00    +0.000 C 
BRANCH  23  24
ATOM     24  N   UNL     1      49.115   8.082  15.161  0.00  0.00    +0.000 N 
ATOM     25  C   UNL     1      48.638   8.416  16.400  0.00  0.00    +0.000 C 
ATOM     26  O   UNL     1      47.906   9.387  16.575  0.00  0.00    +0.000 OA
ATOM     27  H   UNL     1      49.890   7.432  15.074  0.00  0.00    +0.000 HD
BRANCH  25  28
ATOM     28  C   UNL     1      48.986   7.511  17.502  0.00  0.00    +0.000 A 
ATOM     29  C   UNL     1      49.504   8.036  18.679  0.00  0.00    +0.000 A 
ATOM     30  S   UNL     1      49.780   6.865  19.887  0.00  0.00    +0.000 S 
ATOM     31  C   UNL     1      49.268   5.609  18.861  0.00  0.00    +0.000 A 
ATOM     32  N   UNL     1      49.272   4.315  19.284  0.00  0.00    +0.000 NA
ATOM     33  C   UNL     1      48.895   3.461  18.392  0.00  0.00    +0.000 A 
ATOM     34  N   UNL     1      48.509   3.783  17.118  0.00  0.00    +0.000 N 
ATOM     35  C   UNL     1      48.460   5.077  16.655  0.00  0.00    +0.000 A 
ATOM     36  O   UNL     1      48.075   5.333  15.519  0.00  0.00    +0.000 OA
ATOM     37  C   UNL     1      48.883   6.077  17.617  0.00  0.00    +0.000 A 
ATOM     38  H   UNL     1      48.222   3.065  16.468  0.00  0.00    +0.000 HD
ENDBRANCH  25  28
ENDBRANCH  23  24
ENDBRANCH   4  23
TORSDOF 9
ENDMDL
MODEL 3
REMARK VINA RESULT:    -8.072      3.524      4.155
REMARK INTER + INTRA:         -13.583
REMARK INTER:                 -12.163
REMARK INTRA:                  -1.420
REMARK UNBOUND:                -1.264
REMARK  Name = 
REMARK  9 active torsions:
REMARK  status: ('A' for Active; 'I' for Inactive)
REMARK    1  A    between atoms: C_2  and  C_4
REMARK    2  A    between atoms: C_4  and  C_5
REMARK    3  A    between atoms: C_5  and  N_6
REMARK    4  A    between atoms: C_5  and  C_28
REMARK    5  A    between atoms: N_6  and  C_7
REMARK    6  A    between atoms: C_7  and  C_8
REMARK    7  A    between atoms: C_11  and  C_12
REMARK    8  A    between atoms: C_12  and  N_13
REMARK    9  A    between atoms: C_14  and  C_16
REMARK                            x       y       z     vdW  Elec       q    Type
REMARK                         _______ _______ _______ _____ _____    ______ ____
ROOT
ATOM      1  C   UNL     1      46.510   6.416  12.324  0.00  0.00    +0.000 A 
ATOM      2  C   UNL     1      47.674   6.196  13.067  0.00  0.00    +0.000 A 
ATOM      3  C   UNL     1      48.189   7.200  13.891  0.00  0.00    +0.000 A 
ATOM      4  C   UNL     1      47.551   8.443  13.984  0.00  0.00    +0.000 A 
ATOM      5  C   UNL     1      46.403   8.677  13.218  0.00  0.00    +0.000 A 
ATOM      6  C   UNL     1      45.885   7.670  12.402  0.00  0.00    +0.000 A 
ENDROOT
BRANCH   1   7
ATOM      7  C   UNL     1      45.980   5.385  11.354  0.00  0.00    +0.000 C 
BRANCH   7   8
ATOM      8  N   UNL     1      44.866   5.863  10.528  0.00  0.00    +0.000 NA
ATOM      9  H   UNL     1      44.314   6.530  11.060  0.00  0.00    +0.000 HD
BRANCH   8  10
ATOM     10  C   UNL     1      43.988   4.770  10.035  0.00  0.00    +0.000 C 
BRANCH  10  11
ATOM     11  C   UNL     1      44.766   3.794   9.160  0.00  0.00    +0.000 A 
ATOM     12  C   UNL     1      45.588   4.281   8.131  0.00  0.00    +0.000 A 
ATOM     13  C   UNL     1      46.380   3.412   7.378  0.00  0.00    +0.000 A 
ATOM     14  C   UNL     1      46.372   2.045   7.650  0.00  0.00    +0.000 A 
ATOM     15  C   UNL     1      45.561   1.547   8.664  0.00  0.00    +0.000 A 
ATOM     16  C   UNL     1      44.757   2.412   9.408  0.00  0.00    +0.000 A 
ENDBRANCH  10  11
BRANCH  10  17
ATOM     17  C   UNL     1      43.167   4.126  11.172  0.00  0.00    +0.000 C 
BRANCH  17  19
ATOM     18  N   UNL     1      42.053   6.230  11.718  0.00  0.00    +0.000 N 
ATOM     19  C   UNL     1      42.700   5.133  12.198  0.00  0.00    +0.000 C 
ATOM     20  O   UNL     1      42.909   5.005  13.400  0.00  0.00    +0.000 OA
ATOM     21  H   UNL     1      41.768   6.924  12.397  0.00  0.00    +0.000 HD
ATOM     22  H   UNL     1      42.029   6.476  10.739  0.00  0.00    +0.000 HD
ENDBRANCH  17  19
ENDBRANCH  10  17
ENDBRANCH   8  10
ENDBRANCH   7   8
ENDBRANCH   1   7
BRANCH   4  23
ATOM     23  C   UNL     1      48.116   9.537  14.848  0.00  0.00    +0.000 C 
BRANCH  23  24
ATOM     24  N   UNL     1      47.776   9.329  16.232  0.00  0.00    +0.000 N 
ATOM     25  C   UNL     1      48.729   8.952  17.140  0.00  0.00    +0.000 C 
ATOM     26  O   UNL     1      49.904   8.791  16.821  0.00  0.00    +0.000 OA
ATOM     27  H   UNL     1      46.792   9.230  16.460  0.00  0.00    +0.000 HD
BRANCH  25  28
ATOM     28  C   UNL     1      48.291   8.823  18.535  0.00  0.00    +0.000 A 
ATOM     29  C   UNL     1      48.078   9.968  19.292  0.00  0.00    +0.000 A 
ATOM     30  S   UNL     1      47.495   9.651  20.862  0.00  0.00    +0.000 S 
ATOM     31  C   UNL     1      47.559   7.970  20.604  0.00  0.00    +0.000 A 
ATOM     32  N   UNL     1      47.200   7.099  21.586  0.00  0.00    +0.000 NA
ATOM     33  C   UNL     1      47.332   5.854  21.268  0.00  0.00    +0.000 A 
ATOM     34  N   UNL     1      47.786   5.402  20.057  0.00  0.00    +0.000 N 
ATOM     35  C   UNL     1      48.133   6.243  19.026  0.00  0.00    +0.000 A 
ATOM     36  O   UNL     1      48.502   5.805  17.942  0.00  0.00    +0.000 OA
ATOM     37  C   UNL     1      48.010   7.656  19.334  0.00  0.00    +0.000 A 
ATOM     38  H   UNL     1      47.864   4.412  19.871  0.00  0.00    +0.000 HD
ENDBRANCH  25  28
ENDBRANCH  23  24
ENDBRANCH   4  23
TORSDOF 9
ENDMDL
MODEL 4
REMARK VINA RESULT:    -7.792      3.974      5.097
REMARK INTER + INTRA:         -13.156
REMARK INTER:                 -11.609
REMARK INTRA:                  -1.546
REMARK UNBOUND:                -1.264
REMARK  Name = 
REMARK  9 active torsions:
REMARK  status: ('A' for Active; 'I' for Inactive)
REMARK    1  A    between atoms: C_2  and  C_4
REMARK    2  A    between atoms: C_4  and  C_5
REMARK    3  A    between atoms: C_5  and  N_6
REMARK    4  A    between atoms: C_5  and  C_28
REMARK    5  A    between atoms: N_6  and  C_7
REMARK    6  A    between atoms: C_7  and  C_8
REMARK    7  A    between atoms: C_11  and  C_12
REMARK    8  A    between atoms: C_12  and  N_13
REMARK    9  A    between atoms: C_14  and  C_16
REMARK                            x       y       z     vdW  Elec       q    Type
REMARK                         _______ _______ _______ _____ _____    ______ ____
ROOT
ATOM      1  C   UNL     1      46.044   6.802  11.659  0.00  0.00    +0.000 A 
ATOM      2  C   UNL     1      47.274   6.420  12.204  0.00  0.00    +0.000 A 
ATOM      3  C   UNL     1      47.908   7.222  13.156  0.00  0.00    +0.000 A 
ATOM      4  C   UNL     1      47.325   8.424  13.577  0.00  0.00    +0.000 A 
ATOM      5  C   UNL     1      46.110   8.825  13.010  0.00  0.00    +0.000 A 
ATOM      6  C   UNL     1      45.474   8.018  12.066  0.00  0.00    +0.000 A 
ENDROOT
BRANCH   1   7
ATOM      7  C   UNL     1      45.380   6.004  10.561  0.00  0.00    +0.000 C 
BRANCH   7   8
ATOM      8  N   UNL     1      45.571   4.554  10.682  0.00  0.00    +0.000 NA
ATOM      9  H   UNL     1      46.544   4.326  10.500  0.00  0.00    +0.000 HD
BRANCH   8  10
ATOM     10  C   UNL     1      44.695   3.769   9.773  0.00  0.00    +0.000 C 
BRANCH  10  11
ATOM     11  C   UNL     1      45.508   3.098   8.672  0.00  0.00    +0.000 A 
ATOM     12  C   UNL     1      46.077   3.877   7.651  0.00  0.00    +0.000 A 
ATOM     13  C   UNL     1      46.901   3.296   6.685  0.00  0.00    +0.000 A 
ATOM     14  C   UNL     1      47.179   1.930   6.732  0.00  0.00    +0.000 A 
ATOM     15  C   UNL     1      46.620   1.145   7.736  0.00  0.00    +0.000 A 
ATOM     16  C   UNL     1      45.784   1.722   8.693  0.00  0.00    +0.000 A 
ENDBRANCH  10  11
BRANCH  10  17
ATOM     17  C   UNL     1      43.739   2.838  10.548  0.00  0.00    +0.000 C 
BRANCH  17  19
ATOM     18  N   UNL     1      42.541   4.476  11.907  0.00  0.00    +0.000 N 
ATOM     19  C   UNL     1      43.359   3.388  11.904  0.00  0.00    +0.000 C 
ATOM     20  O   UNL     1      43.777   2.915  12.956  0.00  0.00    +0.000 OA
ATOM     21  H   UNL     1      42.310   4.869  12.811  0.00  0.00    +0.000 HD
ATOM     22  H   UNL     1      42.330   5.015  11.080  0.00  0.00    +0.000 HD
ENDBRANCH  17  19
ENDBRANCH  10  17
ENDBRANCH   8  10
ENDBRANCH   7   8
ENDBRANCH   1   7
BRANCH   4  23
ATOM     23  C   UNL     1      48.015   9.306  14.580  0.00  0.00    +0.000 C 
BRANCH  23  24
ATOM     24  N   UNL     1      47.703   8.899  15.926  0.00  0.00    +0.000 N 
ATOM     25  C   UNL     1      48.683   8.443  16.767  0.00  0.00    +0.000 C 
ATOM     26  O   UNL     1      49.859   8.375  16.419  0.00  0.00    +0.000 OA
ATOM     27  H   UNL     1      46.727   8.729  16.147  0.00  0.00    +0.000 HD
BRANCH  25  28
ATOM     28  C   UNL     1      48.270   8.108  18.135  0.00  0.00    +0.000 A 
ATOM     29  C   UNL     1      48.419   6.806  18.594  0.00  0.00    +0.000 A 
ATOM     30  S   UNL     1      47.968   6.600  20.225  0.00  0.00    +0.000 S 
ATOM     31  C   UNL     1      47.505   8.232  20.359  0.00  0.00    +0.000 A 
ATOM     32  N   UNL     1      47.002   8.721  21.525  0.00  0.00    +0.000 NA
ATOM     33  C   UNL     1      46.658   9.965  21.475  0.00  0.00    +0.000 A 
ATOM     34  N   UNL     1      46.776  10.765  20.369  0.00  0.00    +0.000 N 
ATOM     35  C   UNL     1      47.306  10.322  19.180  0.00  0.00    +0.000 A 
ATOM     36  O   UNL     1      47.431  11.074  18.219  0.00  0.00    +0.000 OA
ATOM     37  C   UNL     1      47.702   8.926  19.179  0.00  0.00    +0.000 A 
ATOM     38  H   UNL     1      46.489  11.732  20.397  0.00  0.00    +0.000 HD
ENDBRANCH  25  28
ENDBRANCH  23  24
ENDBRANCH   4  23
TORSDOF 9
ENDMDL
MODEL 5
REMARK VINA RESULT:    -7.493      3.620      8.929
REMARK INTER + INTRA:         -12.700
REMARK INTER:                 -10.423
REMARK INTRA:                  -2.277
REMARK UNBOUND:                -1.264
REMARK  Name = 
REMARK  9 active torsions:
REMARK  status: ('A' for Active; 'I' for Inactive)
REMARK    1  A    between atoms: C_2  and  C_4
REMARK    2  A    between atoms: C_4  and  C_5
REMARK    3  A    between atoms: C_5  and  N_6
REMARK    4  A    between atoms: C_5  and  C_28
REMARK    5  A    between atoms: N_6  and  C_7
REMARK    6  A    between atoms: C_7  and  C_8
REMARK    7  A    between atoms: C_11  and  C_12
REMARK    8  A    between atoms: C_12  and  N_13
REMARK    9  A    between atoms: C_14  and  C_16
REMARK                            x       y       z     vdW  Elec       q    Type
REMARK                         _______ _______ _______ _____ _____    ______ ____
ROOT
ATOM      1  C   UNL     1      49.268   8.422  15.976  0.00  0.00    +0.000 A 
ATOM      2  C   UNL     1      49.897   7.506  15.127  0.00  0.00    +0.000 A 
ATOM      3  C   UNL     1      49.452   7.337  13.813  0.00  0.00    +0.000 A 
ATOM      4  C   UNL     1      48.367   8.078  13.326  0.00  0.00    +0.000 A 
ATOM      5  C   UNL     1      47.716   8.972  14.184  0.00  0.00    +0.000 A 
ATOM      6  C   UNL     1      48.167   9.146  15.494  0.00  0.00    +0.000 A 
ENDROOT
BRANCH   1   7
ATOM      7  C   UNL     1      49.665   8.560  17.428  0.00  0.00    +0.000 C 
BRANCH   7   8
ATOM      8  N   UNL     1      49.610   7.302  18.181  0.00  0.00    +0.000 NA
ATOM      9  H   UNL     1      50.341   6.679  17.851  0.00  0.00    +0.000 HD
BRANCH   8  10
ATOM     10  C   UNL     1      48.293   6.620  18.089  0.00  0.00    +0.000 C 
BRANCH  10  11
ATOM     11  C   UNL     1      48.453   5.177  17.622  0.00  0.00    +0.000 A 
ATOM     12  C   UNL     1      49.723   4.576  17.634  0.00  0.00    +0.000 A 
ATOM     13  C   UNL     1      49.878   3.230  17.299  0.00  0.00    +0.000 A 
ATOM     14  C   UNL     1      48.766   2.461  16.960  0.00  0.00    +0.000 A 
ATOM     15  C   UNL     1      47.503   3.042  16.941  0.00  0.00    +0.000 A 
ATOM     16  C   UNL     1      47.348   4.392  17.261  0.00  0.00    +0.000 A 
ENDBRANCH  10  11
BRANCH  10  17
ATOM     17  C   UNL     1      47.449   6.810  19.366  0.00  0.00    +0.000 C 
BRANCH  17  19
ATOM     18  N   UNL     1      47.712   5.117  21.107  0.00  0.00    +0.000 N 
ATOM     19  C   UNL     1      48.147   6.307  20.609  0.00  0.00    +0.000 C 
ATOM     20  O   UNL     1      49.038   6.934  21.173  0.00  0.00    +0.000 OA
ATOM     21  H   UNL     1      48.153   4.791  21.958  0.00  0.00    +0.000 HD
ATOM     22  H   UNL     1      46.865   4.663  20.800  0.00  0.00    +0.000 HD
ENDBRANCH  17  19
ENDBRANCH  10  17
ENDBRANCH   8  10
ENDBRANCH   7   8
ENDBRANCH   1   7
BRANCH   4  23
ATOM     23  C   UNL     1      47.866   7.880  11.923  0.00  0.00    +0.000 C 
BRANCH  23  24
ATOM     24  N   UNL     1      47.134   6.646  11.805  0.00  0.00    +0.000 N 
ATOM     25  C   UNL     1      45.765   6.633  11.858  0.00  0.00    +0.000 C 
ATOM     26  O   UNL     1      45.110   7.663  11.993  0.00  0.00    +0.000 OA
ATOM     27  H   UNL     1      47.654   5.783  11.928  0.00  0.00    +0.000 HD
BRANCH  25  28
ATOM     28  C   UNL     1      45.114   5.331  11.670  0.00  0.00    +0.000 A 
ATOM     29  C   UNL     1      44.442   4.744  12.735  0.00  0.00    +0.000 A 
ATOM     30  S   UNL     1      43.675   3.277  12.332  0.00  0.00    +0.000 S 
ATOM     31  C   UNL     1      44.259   3.346  10.736  0.00  0.00    +0.000 A 
ATOM     32  N   UNL     1      43.973   2.359   9.844  0.00  0.00    +0.000 NA
ATOM     33  C   UNL     1      44.511   2.520   8.681  0.00  0.00    +0.000 A 
ATOM     34  N   UNL     1      45.304   3.580   8.327  0.00  0.00    +0.000 N 
ATOM     35  C   UNL     1      45.596   4.614   9.185  0.00  0.00    +0.000 A 
ATOM     36  O   UNL     1      46.280   5.566   8.825  0.00  0.00    +0.000 OA
ATOM     37  C   UNL     1      45.022   4.478  10.511  0.00  0.00    +0.000 A 
ATOM     38  H   UNL     1      45.693   3.647   7.398  0.00  0.00    +0.000 HD
ENDBRANCH  25  28
ENDBRANCH  23  24
ENDBRANCH   4  23
TORSDOF 9
ENDMDL
MODEL 6
REMARK VINA RESULT:    -7.391      2.764      3.231
REMARK INTER + INTRA:         -12.544
REMARK INTER:                 -10.977
REMARK INTRA:                  -1.567
REMARK UNBOUND:                -1.264
REMARK  Name = 
REMARK  9 active torsions:
REMARK  status: ('A' for Active; 'I' for Inactive)
REMARK    1  A    between atoms: C_2  and  C_4
REMARK    2  A    between atoms: C_4  and  C_5
REMARK    3  A    between atoms: C_5  and  N_6
REMARK    4  A    between atoms: C_5  and  C_28
REMARK    5  A    between atoms: N_6  and  C_7
REMARK    6  A    between atoms: C_7  and  C_8
REMARK    7  A    between atoms: C_11  and  C_12
REMARK    8  A    between atoms: C_12  and  N_13
REMARK    9  A    between atoms: C_14  and  C_16
REMARK                            x       y       z     vdW  Elec       q    Type
REMARK                         _______ _______ _______ _____ _____    ______ ____
ROOT
ATOM      1  C   UNL     1      46.800   7.019  12.006  0.00  0.00    +0.000 A 
ATOM      2  C   UNL     1      46.364   8.282  12.417  0.00  0.00    +0.000 A 
ATOM      3  C   UNL     1      46.917   8.890  13.547  0.00  0.00    +0.000 A 
ATOM      4  C   UNL     1      47.914   8.243  14.289  0.00  0.00    +0.000 A 
ATOM      5  C   UNL     1      48.330   6.965  13.897  0.00  0.00    +0.000 A 
ATOM      6  C   UNL     1      47.783   6.363  12.764  0.00  0.00    +0.000 A 
ENDROOT
BRANCH   1   7
ATOM      7  C   UNL     1      46.158   6.296  10.844  0.00  0.00    +0.000 C 
BRANCH   7   8
ATOM      8  N   UNL     1      45.489   5.045  11.220  0.00  0.00    +0.000 NA
ATOM      9  H   UNL     1      46.187   4.326  11.384  0.00  0.00    +0.000 HD
BRANCH   8  10
ATOM     10  C   UNL     1      44.514   4.572  10.202  0.00  0.00    +0.000 C 
BRANCH  10  11
ATOM     11  C   UNL     1      45.195   3.699   9.154  0.00  0.00    +0.000 A 
ATOM     12  C   UNL     1      45.865   4.298   8.074  0.00  0.00    +0.000 A 
ATOM     13  C   UNL     1      46.573   3.523   7.155  0.00  0.00    +0.000 A 
ATOM     14  C   UNL     1      46.634   2.138   7.307  0.00  0.00    +0.000 A 
ATOM     15  C   UNL     1      45.973   1.530   8.369  0.00  0.00    +0.000 A 
ATOM     16  C   UNL     1      45.252   2.303   9.282  0.00  0.00    +0.000 A 
ENDBRANCH  10  11
BRANCH  10  17
ATOM     17  C   UNL     1      43.250   3.966  10.845  0.00  0.00    +0.000 C 
BRANCH  17  19
ATOM     18  N   UNL     1      43.912   2.512  12.692  0.00  0.00    +0.000 N 
ATOM     19  C   UNL     1      43.408   3.723  12.329  0.00  0.00    +0.000 C 
ATOM     20  O   UNL     1      43.078   4.544  13.178  0.00  0.00    +0.000 OA
ATOM     21  H   UNL     1      43.989   2.330  13.685  0.00  0.00    +0.000 HD
ATOM     22  H   UNL     1      44.015   1.737  12.053  0.00  0.00    +0.000 HD
ENDBRANCH  17  19
ENDBRANCH  10  17
ENDBRANCH   8  10
ENDBRANCH   7   8
ENDBRANCH   1   7
BRANCH   4  23
ATOM     23  C   UNL     1      48.493   8.880  15.522  0.00  0.00    +0.000 C 
BRANCH  23  24
ATOM     24  N   UNL     1      48.967   7.881  16.444  0.00  0.00    +0.000 N 
ATOM     25  C   UNL     1      49.814   8.215  17.468  0.00  0.00    +0.000 C 
ATOM     26  O   UNL     1      50.190   9.370  17.650  0.00  0.00    +0.000 OA
ATOM     27  H   UNL     1      48.858   6.908  16.174  0.00  0.00    +0.000 HD
BRANCH  25  28
ATOM     28  C   UNL     1      50.191   7.134  18.385  0.00  0.00    +0.000 A 
ATOM     29  C   UNL     1      51.516   6.719  18.444  0.00  0.00    +0.000 A 
ATOM     30  S   UNL     1      51.804   5.513  19.614  0.00  0.00    +0.000 S 
ATOM     31  C   UNL     1      50.159   5.463  20.045  0.00  0.00    +0.000 A 
ATOM     32  N   UNL     1      49.714   4.606  21.004  0.00  0.00    +0.000 NA
ATOM     33  C   UNL     1      48.439   4.647  21.204  0.00  0.00    +0.000 A 
ATOM     34  N   UNL     1      47.569   5.470  20.538  0.00  0.00    +0.000 N 
ATOM     35  C   UNL     1      47.976   6.372  19.584  0.00  0.00    +0.000 A 
ATOM     36  O   UNL     1      47.176   7.119  19.031  0.00  0.00    +0.000 OA
ATOM     37  C   UNL     1      49.402   6.361  19.313  0.00  0.00    +0.000 A 
ATOM     38  H   UNL     1      46.581   5.454  20.745  0.00  0.00    +0.000 HD
ENDBRANCH  25  28
ENDBRANCH  23  24
ENDBRANCH   4  23
TORSDOF 9
ENDMDL
MODEL 7
REMARK VINA RESULT:    -6.874      3.898      8.422
REMARK INTER + INTRA:         -11.754
REMARK INTER:                  -9.292
REMARK INTRA:                  -2.462
REMARK UNBOUND:                -1.264
REMARK  Name = 
REMARK  9 active torsions:
REMARK  status: ('A' for Active; 'I' for Inactive)
REMARK    1  A    between atoms: C_2  and  C_4
REMARK    2  A    between atoms: C_4  and  C_5
REMARK    3  A    between atoms: C_5  and  N_6
REMARK    4  A    between atoms: C_5  and  C_28
REMARK    5  A    between atoms: N_6  and  C_7
REMARK    6  A    between atoms: C_7  and  C_8
REMARK    7  A    between atoms: C_11  and  C_12
REMARK    8  A    between atoms: C_12  and  N_13
REMARK    9  A    between atoms: C_14  and  C_16
REMARK                            x       y       z     vdW  Elec       q    Type
REMARK                         _______ _______ _______ _____ _____    ______ ____
ROOT
ATOM      1  C   UNL     1      49.969   8.030  17.324  0.00  0.00    +0.000 A 
ATOM      2  C   UNL     1      50.539   7.251  16.312  0.00  0.00    +0.000 A 
ATOM      3  C   UNL     1      50.186   7.456  14.975  0.00  0.00    +0.000 A 
ATOM      4  C   UNL     1      49.253   8.442  14.628  0.00  0.00    +0.000 A 
ATOM      5  C   UNL     1      48.659   9.202  15.641  0.00  0.00    +0.000 A 
ATOM      6  C   UNL     1      49.019   9.002  16.975  0.00  0.00    +0.000 A 
ENDROOT
BRANCH   1   7
ATOM      7  C   UNL     1      50.260   7.770  18.784  0.00  0.00    +0.000 C 
BRANCH   7   8
ATOM      8  N   UNL     1      49.744   6.487  19.273  0.00  0.00    +0.000 NA
ATOM      9  H   UNL     1      50.474   5.784  19.211  0.00  0.00    +0.000 HD
BRANCH   8  10
ATOM     10  C   UNL     1      48.538   6.021  18.540  0.00  0.00    +0.000 C 
BRANCH  10  11
ATOM     11  C   UNL     1      48.754   4.629  17.956  0.00  0.00    +0.000 A 
ATOM     12  C   UNL     1      47.726   4.011  17.226  0.00  0.00    +0.000 A 
ATOM     13  C   UNL     1      47.933   2.778  16.605  0.00  0.00    +0.000 A 
ATOM     14  C   UNL     1      49.175   2.150  16.693  0.00  0.00    +0.000 A 
ATOM     15  C   UNL     1      50.202   2.749  17.415  0.00  0.00    +0.000 A 
ATOM     16  C   UNL     1      49.992   3.975  18.049  0.00  0.00    +0.000 A 
ENDBRANCH  10  11
BRANCH  10  17
ATOM     17  C   UNL     1      47.249   6.196  19.369  0.00  0.00    +0.000 C 
BRANCH  17  19
ATOM     18  N   UNL     1      47.668   5.006  21.461  0.00  0.00    +0.000 N 
ATOM     19  C   UNL     1      47.510   6.217  20.858  0.00  0.00    +0.000 C 
ATOM     20  O   UNL     1      47.551   7.253  21.513  0.00  0.00    +0.000 OA
ATOM     21  H   UNL     1      47.809   5.012  22.463  0.00  0.00    +0.000 HD
ATOM     22  H   UNL     1      47.452   4.129  21.011  0.00  0.00    +0.000 HD
ENDBRANCH  17  19
ENDBRANCH  10  17
ENDBRANCH   8  10
ENDBRANCH   7   8
ENDBRANCH   1   7
BRANCH   4  23
ATOM     23  C   UNL     1      48.849   8.649  13.195  0.00  0.00    +0.000 C 
BRANCH  23  24
ATOM     24  N   UNL     1      47.877   7.668  12.786  0.00  0.00    +0.000 N 
ATOM     25  C   UNL     1      46.535   7.930  12.869  0.00  0.00    +0.000 C 
ATOM     26  O   UNL     1      46.107   9.006  13.278  0.00  0.00    +0.000 OA
ATOM     27  H   UNL     1      48.200   6.712  12.672  0.00  0.00    +0.000 HD
BRANCH  25  28
ATOM     28  C   UNL     1      45.631   6.886  12.373  0.00  0.00    +0.000 A 
ATOM     29  C   UNL     1      44.534   7.243  11.601  0.00  0.00    +0.000 A 
ATOM     30  S   UNL     1      43.631   5.912  11.038  0.00  0.00    +0.000 S 
ATOM     31  C   UNL     1      44.643   4.813  11.851  0.00  0.00    +0.000 A 
ATOM     32  N   UNL     1      44.409   3.474  11.795  0.00  0.00    +0.000 NA
ATOM     33  C   UNL     1      45.231   2.759  12.488  0.00  0.00    +0.000 A 
ATOM     34  N   UNL     1      46.269   3.261  13.228  0.00  0.00    +0.000 N 
ATOM     35  C   UNL     1      46.562   4.603  13.292  0.00  0.00    +0.000 A 
ATOM     36  O   UNL     1      47.521   5.016  13.936  0.00  0.00    +0.000 OA
ATOM     37  C   UNL     1      45.662   5.453  12.536  0.00  0.00    +0.000 A 
ATOM     38  H   UNL     1      46.879   2.646  13.748  0.00  0.00    +0.000 HD
ENDBRANCH  25  28
ENDBRANCH  23  24
ENDBRANCH   4  23
TORSDOF 9
ENDMDL
MODEL 8
REMARK VINA RESULT:    -6.873      3.687      8.972
REMARK INTER + INTRA:         -11.754
REMARK INTER:                  -9.166
REMARK INTRA:                  -2.587
REMARK UNBOUND:                -1.264
REMARK  Name = 
REMARK  9 active torsions:
REMARK  status: ('A' for Active; 'I' for Inactive)
REMARK    1  A    between atoms: C_2  and  C_4
REMARK    2  A    between atoms: C_4  and  C_5
REMARK    3  A    between atoms: C_5  and  N_6
REMARK    4  A    between atoms: C_5  and  C_28
REMARK    5  A    between atoms: N_6  and  C_7
REMARK    6  A    between atoms: C_7  and  C_8
REMARK    7  A    between atoms: C_11  and  C_12
REMARK    8  A    between atoms: C_12  and  N_13
REMARK    9  A    between atoms: C_14  and  C_16
REMARK                            x       y       z     vdW  Elec       q    Type
REMARK                         _______ _______ _______ _____ _____    ______ ____
ROOT
ATOM      1  C   UNL     1      50.747   7.187  17.426  0.00  0.00    +0.000 A 
ATOM      2  C   UNL     1      50.021   8.313  17.826  0.00  0.00    +0.000 A 
ATOM      3  C   UNL     1      49.134   8.937  16.944  0.00  0.00    +0.000 A 
ATOM      4  C   UNL     1      48.961   8.446  15.643  0.00  0.00    +0.000 A 
ATOM      5  C   UNL     1      49.709   7.338  15.229  0.00  0.00    +0.000 A 
ATOM      6  C   UNL     1      50.588   6.712  16.115  0.00  0.00    +0.000 A 
ENDROOT
BRANCH   1   7
ATOM      7  C   UNL     1      51.781   6.548  18.324  0.00  0.00    +0.000 C 
BRANCH   7   8
ATOM      8  N   UNL     1      51.211   5.681  19.362  0.00  0.00    +0.000 NA
ATOM      9  H   UNL     1      51.761   5.767  20.212  0.00  0.00    +0.000 HD
BRANCH   8  10
ATOM     10  C   UNL     1      51.136   4.253  18.957  0.00  0.00    +0.000 C 
BRANCH  10  11
ATOM     11  C   UNL     1      49.788   3.933  18.321  0.00  0.00    +0.000 A 
ATOM     12  C   UNL     1      48.663   4.710  18.640  0.00  0.00    +0.000 A 
ATOM     13  C   UNL     1      47.441   4.494  18.001  0.00  0.00    +0.000 A 
ATOM     14  C   UNL     1      47.328   3.505  17.024  0.00  0.00    +0.000 A 
ATOM     15  C   UNL     1      48.433   2.725  16.699  0.00  0.00    +0.000 A 
ATOM     16  C   UNL     1      49.652   2.931  17.348  0.00  0.00    +0.000 A 
ENDBRANCH  10  11
BRANCH  10  17
ATOM     17  C   UNL     1      52.371   3.813  18.144  0.00  0.00    +0.000 C 
BRANCH  17  19
ATOM     18  N   UNL     1      54.035   3.128  19.794  0.00  0.00    +0.000 N 
ATOM     19  C   UNL     1      53.165   2.725  18.828  0.00  0.00    +0.000 C 
ATOM     20  O   UNL     1      53.070   1.540  18.526  0.00  0.00    +0.000 OA
ATOM     21  H   UNL     1      54.594   2.407  20.233  0.00  0.00    +0.000 HD
ATOM     22  H   UNL     1      54.291   4.093  19.944  0.00  0.00    +0.000 HD
ENDBRANCH  17  19
ENDBRANCH  10  17
ENDBRANCH   8  10
ENDBRANCH   7   8
ENDBRANCH   1   7
BRANCH   4  23
ATOM     23  C   UNL     1      48.030   9.129  14.680  0.00  0.00    +0.000 C 
BRANCH  23  24
ATOM     24  N   UNL     1      47.047   8.207  14.172  0.00  0.00    +0.000 N 
ATOM     25  C   UNL     1      46.848   8.064  12.824  0.00  0.00    +0.000 C 
ATOM     26  O   UNL     1      47.502   8.697  12.000  0.00  0.00    +0.000 OA
ATOM     27  H   UNL     1      46.352   7.861  14.826  0.00  0.00    +0.000 HD
BRANCH  25  28
ATOM     28  C   UNL     1      45.863   7.057  12.410  0.00  0.00    +0.000 A 
ATOM     29  C   UNL     1      44.733   7.456  11.708  0.00  0.00    +0.000 A 
ATOM     30  S   UNL     1      43.732   6.162  11.232  0.00  0.00    +0.000 S 
ATOM     31  C   UNL     1      44.744   5.028  11.995  0.00  0.00    +0.000 A 
ATOM     32  N   UNL     1      44.444   3.700  11.978  0.00  0.00    +0.000 NA
ATOM     33  C   UNL     1      45.277   2.957  12.627  0.00  0.00    +0.000 A 
ATOM     34  N   UNL     1      46.387   3.419  13.285  0.00  0.00    +0.000 N 
ATOM     35  C   UNL     1      46.746   4.746  13.304  0.00  0.00    +0.000 A 
ATOM     36  O   UNL     1      47.766   5.122  13.874  0.00  0.00    +0.000 OA
ATOM     37  C   UNL     1      45.837   5.627  12.596  0.00  0.00    +0.000 A 
ATOM     38  H   UNL     1      47.001   2.783  13.773  0.00  0.00    +0.000 HD
ENDBRANCH  25  28
ENDBRANCH  23  24
ENDBRANCH   4  23
TORSDOF 9
ENDMDL
MODEL 9
REMARK VINA RESULT:    -6.649      2.507      3.290
REMARK INTER + INTRA:         -11.411
REMARK INTER:                  -9.936
REMARK INTRA:                  -1.474
REMARK UNBOUND:                -1.264
REMARK  Name = 
REMARK  9 active torsions:
REMARK  status: ('A' for Active; 'I' for Inactive)
REMARK    1  A    between atoms: C_2  and  C_4
REMARK    2  A    between atoms: C_4  and  C_5
REMARK    3  A    between atoms: C_5  and  N_6
REMARK    4  A    between atoms: C_5  and  C_28
REMARK    5  A    between atoms: N_6  and  C_7
REMARK    6  A    between atoms: C_7  and  C_8
REMARK    7  A    between atoms: C_11  and  C_12
REMARK    8  A    between atoms: C_12  and  N_13
REMARK    9  A    between atoms: C_14  and  C_16
REMARK                            x       y       z     vdW  Elec       q    Type
REMARK                         _______ _______ _______ _____ _____    ______ ____
ROOT
ATOM      1  C   UNL     1      46.752   6.500  11.552  0.00  0.00    +0.000 A 
ATOM      2  C   UNL     1      47.832   7.300  11.165  0.00  0.00    +0.000 A 
ATOM      3  C   UNL     1      48.642   7.912  12.126  0.00  0.00    +0.000 A 
ATOM      4  C   UNL     1      48.384   7.736  13.491  0.00  0.00    +0.000 A 
ATOM      5  C   UNL     1      47.286   6.961  13.882  0.00  0.00    +0.000 A 
ATOM      6  C   UNL     1      46.483   6.345  12.921  0.00  0.00    +0.000 A 
ENDROOT
BRANCH   1   7
ATOM      7  C   UNL     1      45.804   5.902  10.539  0.00  0.00    +0.000 C 
BRANCH   7   8
ATOM      8  N   UNL     1      45.686   4.442  10.625  0.00  0.00    +0.000 NA
ATOM      9  H   UNL     1      46.608   4.024  10.546  0.00  0.00    +0.000 HD
BRANCH   8  10
ATOM     10  C   UNL     1      44.785   3.864   9.594  0.00  0.00    +0.000 C 
BRANCH  10  11
ATOM     11  C   UNL     1      45.574   3.082   8.551  0.00  0.00    +0.000 A 
ATOM     12  C   UNL     1      46.209   3.763   7.500  0.00  0.00    +0.000 A 
ATOM     13  C   UNL     1      47.013   3.078   6.587  0.00  0.00    +0.000 A 
ATOM     14  C   UNL     1      47.205   1.703   6.719  0.00  0.00    +0.000 A 
ATOM     15  C   UNL     1      46.581   1.014   7.754  0.00  0.00    +0.000 A 
ATOM     16  C   UNL     1      45.765   1.695   8.658  0.00  0.00    +0.000 A 
ENDBRANCH  10  11
BRANCH  10  17
ATOM     17  C   UNL     1      43.592   3.112  10.220  0.00  0.00    +0.000 C 
BRANCH  17  19
ATOM     18  N   UNL     1      43.882   2.477  12.561  0.00  0.00    +0.000 N 
ATOM     19  C   UNL     1      43.416   3.415  11.690  0.00  0.00    +0.000 C 
ATOM     20  O   UNL     1      42.859   4.428  12.100  0.00  0.00    +0.000 OA
ATOM     21  H   UNL     1      43.737   2.659  13.546  0.00  0.00    +0.000 HD
ATOM     22  H   UNL     1      44.167   1.551  12.279  0.00  0.00    +0.000 HD
ENDBRANCH  17  19
ENDBRANCH  10  17
ENDBRANCH   8  10
ENDBRANCH   7   8
ENDBRANCH   1   7
BRANCH   4  23
ATOM     23  C   UNL     1      49.235   8.414  14.530  0.00  0.00    +0.000 C 
BRANCH  23  24
ATOM     24  N   UNL     1      49.792   7.454  15.447  0.00  0.00    +0.000 N 
ATOM     25  C   UNL     1      49.328   7.359  16.733  0.00  0.00    +0.000 C 
ATOM     26  O   UNL     1      48.418   8.071  17.149  0.00  0.00    +0.000 OA
ATOM     27  H   UNL     1      50.682   7.033  15.198  0.00  0.00    +0.000 HD
BRANCH  25  28
ATOM     28  C   UNL     1      49.924   6.310  17.569  0.00  0.00    +0.000 A 
ATOM     29  C   UNL     1      49.676   4.977  17.269  0.00  0.00    +0.000 A 
ATOM     30  S   UNL     1      50.503   3.884  18.283  0.00  0.00    +0.000 S 
ATOM     31  C   UNL     1      51.177   5.154  19.193  0.00  0.00    +0.000 A 
ATOM     32  N   UNL     1      51.993   4.898  20.251  0.00  0.00    +0.000 NA
ATOM     33  C   UNL     1      52.404   5.953  20.874  0.00  0.00    +0.000 A 
ATOM     34  N   UNL     1      52.077   7.239  20.532  0.00  0.00    +0.000 N 
ATOM     35  C   UNL     1      51.280   7.546  19.454  0.00  0.00    +0.000 A 
ATOM     36  O   UNL     1      51.036   8.710  19.154  0.00  0.00    +0.000 OA
ATOM     37  C   UNL     1      50.784   6.395  18.723  0.00  0.00    +0.000 A 
ATOM     38  H   UNL     1      52.434   8.021  21.061  0.00  0.00    +0.000 HD
ENDBRANCH  25  28
ENDBRANCH  23  24
ENDBRANCH   4  23
TORSDOF 9
ENDMDL
