MODEL 1
REMARK VINA RESULT:    -8.070      0.000      0.000
REMARK INTER + INTRA:         -11.840
REMARK INTER:                 -10.900
REMARK INTRA:                  -0.940
REMARK UNBOUND:                -0.940
REMARK  Name = 
REMARK  6 active torsions:
REMARK  status: ('A' for Active; 'I' for Inactive)
REMARK    1  A    between atoms: C_2  and  C_4
REMARK    2  A    between atoms: C_7  and  O_8
REMARK    3  A    between atoms: O_8  and  C_9
REMARK    4  A    between atoms: C_9  and  C_10
REMARK    5  A    between atoms: C_10  and  C_11
REMARK    6  A    between atoms: C_15  and  N_16
REMARK                            x       y       z     vdW  Elec       q    Type
REMARK                         _______ _______ _______ _____ _____    ______ ____
ROOT
ATOM      1  C   UNL     1      43.450   4.923  10.661  0.00  0.00    +0.000 C 
ENDROOT
BRANCH   1   2
ATOM      2  O   UNL     1      43.595   3.506  10.472  0.00  0.00    +0.000 OA
BRANCH   2   6
ATOM      3  C   UNL     1      46.411   2.674   7.573  0.00  0.00    +0.000 A 
ATOM      4  C   UNL     1      45.980   3.990   7.763  0.00  0.00    +0.000 A 
ATOM      5  C   UNL     1      45.021   4.262   8.740  0.00  0.00    +0.000 A 
ATOM      6  C   UNL     1      44.529   3.207   9.498  0.00  0.00    +0.000 A 
ATOM      7  N   UNL     1      44.921   1.926   9.324  0.00  0.00    +0.000 NA
ATOM      8  C   UNL     1      45.841   1.686   8.362  0.00  0.00    +0.000 A 
BRANCH   3  10
ATOM      9  N   UNL     1      47.555   3.055   5.465  0.00  0.00    +0.000 N 
ATOM     10  C   UNL     1      47.427   2.274   6.579  0.00  0.00    +0.000 C 
ATOM     11  O   UNL     1      48.158   1.310   6.762  0.00  0.00    +0.000 OA
ATOM     12  H   UNL     1      48.343   2.841   4.863  0.00  0.00    +0.000 HD
ATOM     13  H   UNL     1      47.169   3.987   5.408  0.00  0.00    +0.000 HD
ENDBRANCH   3  10
ENDBRANCH   2   6
ENDBRANCH   1   2
BRANCH   1  14
ATOM     14  C   UNL     1      43.702   5.277  12.127  0.00  0.00    +0.000 C 
BRANCH  14  15
ATOM     15  C   UNL     1      45.157   5.599  12.374  0.00  0.00    +0.000 A 
ATOM     16  C   UNL     1      45.858   6.440  11.506  0.00  0.00    +0.000 A 
ATOM     17  C   UNL     1      47.187   6.766  11.773  0.00  0.00    +0.000 A 
ATOM     18  C   UNL     1      47.813   6.274  12.920  0.00  0.00    +0.000 A 
ATOM     19  C   UNL     1      47.129   5.464  13.837  0.00  0.00    +0.000 A 
ATOM     20  C   UNL     1      45.803   5.120  13.529  0.00  0.00    +0.000 A 
BRANCH  19  21
ATOM     21  N   UNL     1      47.738   5.131  15.040  0.00  0.00    +0.000 N 
ATOM     22  C   UNL     1      48.417   6.175  15.823  0.00  0.00    +0.000 C 
ATOM     23  C   UNL     1      49.441   5.499  16.747  0.00  0.00    +0.000 C 
ATOM     24  O   UNL     1      48.810   4.542  17.617  0.00  0.00    +0.000 OA
ATOM     25  C   UNL     1      48.150   3.522  16.842  0.00  0.00    +0.000 C 
ATOM     26  C   UNL     1      47.092   4.115  15.891  0.00  0.00    +0.000 C 
ENDBRANCH  19  21
ENDBRANCH  14  15
ENDBRANCH   1  14
TORSDOF 6
ENDMDL
MODEL 2
REMARK VINA RESULT:    -7.741      2.581      3.856
REMARK INTER + INTRA:         -11.395
REMARK INTER:                 -10.617
REMARK INTRA:                  -0.778
REMARK UNBOUND:                -0.940
REMARK  Name = 
REMARK  6 active torsions:
REMARK  status: ('A' for Active; 'I' for Inactive)
REMARK    1  A    between atoms: C_2  and  C_4
REMARK    2  A    between atoms: C_7  and  O_8
REMARK    3  A    between atoms: O_8  and  C_9
REMARK    4  A    between atoms: C_9  and  C_10
REMARK    5  A    between atoms: C_10  and  C_11
REMARK    6  A    between atoms: C_15  and  N_16
REMARK                            x       y       z     vdW  Elec       q    Type
REMARK                         _______ _______ _______ _____ _____    ______ ____
ROOT
ATOM      1  C   UNL     1      43.828   3.243  11.745  0.00  0.00    +0.000 C 
ENDROOT
BRANCH   1   2
ATOM      2  O   UNL     1      43.470   3.587  10.397  0.00  0.00    +0.000 OA
BRANCH   2   6
ATOM      3  C   UNL     1      46.403   2.509   7.702  0.00  0.00    +0.000 A 
ATOM      4  C   UNL     1      46.011   3.846   7.802  0.00  0.00    +0.000 A 
ATOM      5  C   UNL     1      45.013   4.202   8.710  0.00  0.00    +0.000 A 
ATOM      6  C   UNL     1      44.442   3.205   9.491  0.00  0.00    +0.000 A 
ATOM      7  N   UNL     1      44.796   1.904   9.405  0.00  0.00    +0.000 NA
ATOM      8  C   UNL     1      45.756   1.583   8.507  0.00  0.00    +0.000 A 
BRANCH   3  10
ATOM      9  N   UNL     1      48.506   2.859   6.540  0.00  0.00    +0.000 N 
ATOM     10  C   UNL     1      47.455   2.023   6.787  0.00  0.00    +0.000 C 
ATOM     11  O   UNL     1      47.413   0.899   6.302  0.00  0.00    +0.000 OA
ATOM     12  H   UNL     1      49.278   2.457   6.017  0.00  0.00    +0.000 HD
ATOM     13  H   UNL     1      48.708   3.663   7.118  0.00  0.00    +0.000 HD
ENDBRANCH   3  10
ENDBRANCH   2   6
ENDBRANCH   1   2
BRANCH   1  14
ATOM     14  C   UNL     1      43.552   4.430  12.670  0.00  0.00    +0.000 C 
BRANCH  14  15
ATOM     15  C   UNL     1      44.816   5.200  12.971  0.00  0.00    +0.000 A 
ATOM     16  C   UNL     1      45.946   4.548  13.472  0.00  0.00    +0.000 A 
ATOM     17  C   UNL     1      47.121   5.263  13.700  0.00  0.00    +0.000 A 
ATOM     18  C   UNL     1      47.179   6.627  13.405  0.00  0.00    +0.000 A 
ATOM     19  C   UNL     1      46.080   7.306  12.860  0.00  0.00    +0.000 A 
ATOM     20  C   UNL     1      44.898   6.573  12.673  0.00  0.00    +0.000 A 
BRANCH  19  21
ATOM     21  N   UNL     1      46.233   8.619  12.434  0.00  0.00    +0.000 N 
ATOM     22  C   UNL     1      45.054   9.495  12.344  0.00  0.00    +0.000 C 
ATOM     23  C   UNL     1      45.369  10.632  11.361  0.00  0.00    +0.000 C 
ATOM     24  O   UNL     1      46.526  11.380  11.778  0.00  0.00    +0.000 OA
ATOM     25  C   UNL     1      47.677  10.515  11.860  0.00  0.00    +0.000 C 
ATOM     26  C   UNL     1      47.450   9.346  12.839  0.00  0.00    +0.000 C 
ENDBRANCH  19  21
ENDBRANCH  14  15
ENDBRANCH   1  14
TORSDOF 6
ENDMDL
MODEL 3
REMARK VINA RESULT:    -7.120      1.733      2.155
REMARK INTER + INTRA:         -10.558
REMARK INTER:                  -9.890
REMARK INTRA:                  -0.667
REMARK UNBOUND:                -0.940
REMARK  Name = 
REMARK  6 active torsions:
REMARK  status: ('A' for Active; 'I' for Inactive)
REMARK    1  A    between atoms: C_2  and  C_4
REMARK    2  A    between atoms: C_7  and  O_8
REMARK    3  A    between atoms: O_8  and  C_9
REMARK    4  A    between atoms: C_9  and  C_10
REMARK    5  A    between atoms: C_10  and  C_11
REMARK    6  A    between atoms: C_15  and  N_16
REMARK                            x       y       z     vdW  Elec       q    Type
REMARK                         _______ _______ _______ _____ _____    ______ ____
ROOT
ATOM      1  C   UNL     1      43.756   4.764  10.854  0.00  0.00    +0.000 C 
ENDROOT
BRANCH   1   2
ATOM      2  O   UNL     1      43.641   3.427  10.341  0.00  0.00    +0.000 OA
BRANCH   2   6
ATOM      3  C   UNL     1      46.505   2.696   7.462  0.00  0.00    +0.000 A 
ATOM      4  C   UNL     1      46.022   3.994   7.645  0.00  0.00    +0.000 A 
ATOM      5  C   UNL     1      45.047   4.232   8.615  0.00  0.00    +0.000 A 
ATOM      6  C   UNL     1      44.591   3.161   9.373  0.00  0.00    +0.000 A 
ATOM      7  N   UNL     1      45.034   1.896   9.207  0.00  0.00    +0.000 NA
ATOM      8  C   UNL     1      45.969   1.689   8.251  0.00  0.00    +0.000 A 
BRANCH   3  10
ATOM      9  N   UNL     1      47.507   2.968   5.267  0.00  0.00    +0.000 N 
ATOM     10  C   UNL     1      47.541   2.332   6.475  0.00  0.00    +0.000 C 
ATOM     11  O   UNL     1      48.425   1.527   6.741  0.00  0.00    +0.000 OA
ATOM     12  H   UNL     1      48.301   2.802   4.657  0.00  0.00    +0.000 HD
ATOM     13  H   UNL     1      46.973   3.812   5.112  0.00  0.00    +0.000 HD
ENDBRANCH   3  10
ENDBRANCH   2   6
ENDBRANCH   1   2
BRANCH   1  14
ATOM     14  C   UNL     1      44.710   4.777  12.049  0.00  0.00    +0.000 C 
BRANCH  14  15
ATOM     15  C   UNL     1      45.415   6.108  12.177  0.00  0.00    +0.000 A 
ATOM     16  C   UNL     1      44.783   7.290  11.782  0.00  0.00    +0.000 A 
ATOM     17  C   UNL     1      45.427   8.515  11.950  0.00  0.00    +0.000 A 
ATOM     18  C   UNL     1      46.694   8.567  12.535  0.00  0.00    +0.000 A 
ATOM     19  C   UNL     1      47.340   7.406  12.984  0.00  0.00    +0.000 A 
ATOM     20  C   UNL     1      46.688   6.182  12.772  0.00  0.00    +0.000 A 
BRANCH  19  21
ATOM     21  N   UNL     1      48.524   7.520  13.703  0.00  0.00    +0.000 N 
ATOM     22  C   UNL     1      49.464   8.607  13.386  0.00  0.00    +0.000 C 
ATOM     23  C   UNL     1      50.860   8.199  13.881  0.00  0.00    +0.000 C 
ATOM     24  O   UNL     1      50.857   7.926  15.293  0.00  0.00    +0.000 OA
ATOM     25  C   UNL     1      49.936   6.859  15.594  0.00  0.00    +0.000 C 
ATOM     26  C   UNL     1      48.501   7.191  15.140  0.00  0.00    +0.000 C 
ENDBRANCH  19  21
ENDBRANCH  14  15
ENDBRANCH   1  14
TORSDOF 6
ENDMDL
MODEL 4
REMARK VINA RESULT:    -6.849      1.649      7.654
REMARK INTER + INTRA:         -10.191
REMARK INTER:                  -9.202
REMARK INTRA:                  -0.989
REMARK UNBOUND:                -0.940
REMARK  Name = 
REMARK  6 active torsions:
REMARK  status: ('A' for Active; 'I' for Inactive)
REMARK    1  A    between atoms: C_2  and  C_4
REMARK    2  A    between atoms: C_7  and  O_8
REMARK    3  A    between atoms: O_8  and  C_9
REMARK    4  A    between atoms: C_9  and  C_10
REMARK    5  A    between atoms: C_10  and  C_11
REMARK    6  A    between atoms: C_15  and  N_16
REMARK                            x       y       z     vdW  Elec       q    Type
REMARK                         _______ _______ _______ _____ _____    ______ ____
ROOT
ATOM      1  C   UNL     1      45.732   7.390  12.674  0.00  0.00    +0.000 C 
ENDROOT
BRANCH   1   2
ATOM      2  O   UNL     1      47.034   6.783  12.653  0.00  0.00    +0.000 OA
BRANCH   2   6
ATOM      3  C   UNL     1      47.685   4.392  15.953  0.00  0.00    +0.000 A 
ATOM      4  C   UNL     1      46.701   4.040  15.025  0.00  0.00    +0.000 A 
ATOM      5  C   UNL     1      46.481   4.858  13.916  0.00  0.00    +0.000 A 
ATOM      6  C   UNL     1      47.258   6.000  13.771  0.00  0.00    +0.000 A 
ATOM      7  N   UNL     1      48.206   6.368  14.660  0.00  0.00    +0.000 NA
ATOM      8  C   UNL     1      48.391   5.566  15.734  0.00  0.00    +0.000 A 
BRANCH   3  10
ATOM      9  N   UNL     1      47.038   2.766  17.637  0.00  0.00    +0.000 N 
ATOM     10  C   UNL     1      48.009   3.596  17.154  0.00  0.00    +0.000 C 
ATOM     11  O   UNL     1      49.118   3.641  17.672  0.00  0.00    +0.000 OA
ATOM     12  H   UNL     1      47.324   2.134  18.377  0.00  0.00    +0.000 HD
ATOM     13  H   UNL     1      46.228   2.504  17.093  0.00  0.00    +0.000 HD
ENDBRANCH   3  10
ENDBRANCH   2   6
ENDBRANCH   1   2
BRANCH   1  14
ATOM     14  C   UNL     1      45.065   7.227  11.308  0.00  0.00    +0.000 C 
BRANCH  14  15
ATOM     15  C   UNL     1      44.716   5.783  11.033  0.00  0.00    +0.000 A 
ATOM     16  C   UNL     1      43.585   5.200  11.610  0.00  0.00    +0.000 A 
ATOM     17  C   UNL     1      43.250   3.881  11.310  0.00  0.00    +0.000 A 
ATOM     18  C   UNL     1      44.028   3.146  10.414  0.00  0.00    +0.000 A 
ATOM     19  C   UNL     1      45.145   3.711   9.781  0.00  0.00    +0.000 A 
ATOM     20  C   UNL     1      45.483   5.029  10.126  0.00  0.00    +0.000 A 
BRANCH  19  21
ATOM     21  N   UNL     1      45.793   3.000   8.779  0.00  0.00    +0.000 N 
ATOM     22  C   UNL     1      45.430   1.595   8.536  0.00  0.00    +0.000 C 
ATOM     23  C   UNL     1      46.607   0.906   7.829  0.00  0.00    +0.000 C 
ATOM     24  O   UNL     1      46.936   1.566   6.593  0.00  0.00    +0.000 OA
ATOM     25  C   UNL     1      47.293   2.941   6.841  0.00  0.00    +0.000 C 
ATOM     26  C   UNL     1      46.157   3.714   7.541  0.00  0.00    +0.000 C 
ENDBRANCH  19  21
ENDBRANCH  14  15
ENDBRANCH   1  14
TORSDOF 6
ENDMDL
MODEL 5
REMARK VINA RESULT:    -6.534      2.245      8.441
REMARK INTER + INTRA:          -9.765
REMARK INTER:                  -9.292
REMARK INTRA:                  -0.473
REMARK UNBOUND:                -0.940
REMARK  Name = 
REMARK  6 active torsions:
REMARK  status: ('A' for Active; 'I' for Inactive)
REMARK    1  A    between atoms: C_2  and  C_4
REMARK    2  A    between atoms: C_7  and  O_8
REMARK    3  A    between atoms: O_8  and  C_9
REMARK    4  A    between atoms: C_9  and  C_10
REMARK    5  A    between atoms: C_10  and  C_11
REMARK    6  A    between atoms: C_15  and  N_16
REMARK                            x       y       z     vdW  Elec       q    Type
REMARK                         _______ _______ _______ _____ _____    ______ ____
ROOT
ATOM      1  C   UNL     1      46.957   3.969  14.497  0.00  0.00    +0.000 C 
ENDROOT
BRANCH   1   2
ATOM      2  O   UNL     1      46.921   3.874  15.930  0.00  0.00    +0.000 OA
BRANCH   2   6
ATOM      3  C   UNL     1      50.690   3.266  17.496  0.00  0.00    +0.000 A 
ATOM      4  C   UNL     1      49.912   2.169  17.115  0.00  0.00    +0.000 A 
ATOM      5  C   UNL     1      48.636   2.382  16.594  0.00  0.00    +0.000 A 
ATOM      6  C   UNL     1      48.181   3.689  16.467  0.00  0.00    +0.000 A 
ATOM      7  N   UNL     1      48.909   4.764  16.839  0.00  0.00    +0.000 NA
ATOM      8  C   UNL     1      50.138   4.531  17.354  0.00  0.00    +0.000 A 
BRANCH   3  10
ATOM      9  N   UNL     1      52.480   1.918  18.432  0.00  0.00    +0.000 N 
ATOM     10  C   UNL     1      52.055   3.158  18.047  0.00  0.00    +0.000 C 
ATOM     11  O   UNL     1      52.798   4.130  18.115  0.00  0.00    +0.000 OA
ATOM     12  H   UNL     1      53.461   1.844  18.682  0.00  0.00    +0.000 HD
ATOM     13  H   UNL     1      52.010   1.071  18.147  0.00  0.00    +0.000 HD
ENDBRANCH   3  10
ENDBRANCH   2   6
ENDBRANCH   1   2
BRANCH   1  14
ATOM     14  C   UNL     1      46.121   5.165  14.038  0.00  0.00    +0.000 C 
BRANCH  14  15
ATOM     15  C   UNL     1      45.200   4.789  12.900  0.00  0.00    +0.000 A 
ATOM     16  C   UNL     1      43.851   5.153  12.925  0.00  0.00    +0.000 A 
ATOM     17  C   UNL     1      43.025   4.841  11.847  0.00  0.00    +0.000 A 
ATOM     18  C   UNL     1      43.547   4.187  10.729  0.00  0.00    +0.000 A 
ATOM     19  C   UNL     1      44.905   3.846  10.649  0.00  0.00    +0.000 A 
ATOM     20  C   UNL     1      45.710   4.138  11.762  0.00  0.00    +0.000 A 
BRANCH  19  21
ATOM     21  N   UNL     1      45.412   3.344   9.458  0.00  0.00    +0.000 N 
ATOM     22  C   UNL     1      45.113   1.957   9.069  0.00  0.00    +0.000 C 
ATOM     23  C   UNL     1      46.190   1.487   8.080  0.00  0.00    +0.000 C 
ATOM     24  O   UNL     1      46.245   2.338   6.921  0.00  0.00    +0.000 OA
ATOM     25  C   UNL     1      46.542   3.694   7.311  0.00  0.00    +0.000 C 
ATOM     26  C   UNL     1      45.498   4.251   8.299  0.00  0.00    +0.000 C 
ENDBRANCH  19  21
ENDBRANCH  14  15
ENDBRANCH   1  14
TORSDOF 6
ENDMDL
MODEL 6
REMARK VINA RESULT:    -6.481      2.623      7.640
REMARK INTER + INTRA:          -9.693
REMARK INTER:                  -8.962
REMARK INTRA:                  -0.731
REMARK UNBOUND:                -0.940
REMARK  Name = 
REMARK  6 active torsions:
REMARK  status: ('A' for Active; 'I' for Inactive)
REMARK    1  A    between atoms: C_2  and  C_4
REMARK    2  A    between atoms: C_7  and  O_8
REMARK    3  A    between atoms: O_8  and  C_9
REMARK    4  A    between atoms: C_9  and  C_10
REMARK    5  A    between atoms: C_10  and  C_11
REMARK    6  A    between atoms: C_15  and  N_16
REMARK                            x       y       z     vdW  Elec       q    Type
REMARK                         _______ _______ _______ _____ _____    ______ ____
ROOT
ATOM      1  C   UNL     1      49.570   7.263  13.285  0.00  0.00    +0.000 C 
ENDROOT
BRANCH   1   2
ATOM      2  O   UNL     1      48.841   7.685  14.450  0.00  0.00    +0.000 OA
BRANCH   2   6
ATOM      3  C   UNL     1      47.988   4.571  17.019  0.00  0.00    +0.000 A 
ATOM      4  C   UNL     1      48.657   5.700  17.497  0.00  0.00    +0.000 A 
ATOM      5  C   UNL     1      48.949   6.746  16.621  0.00  0.00    +0.000 A 
ATOM      6  C   UNL     1      48.558   6.627  15.293  0.00  0.00    +0.000 A 
ATOM      7  N   UNL     1      47.920   5.540  14.805  0.00  0.00    +0.000 NA
ATOM      8  C   UNL     1      47.660   4.535  15.672  0.00  0.00    +0.000 A 
BRANCH   3  10
ATOM      9  N   UNL     1      48.382   3.171  18.964  0.00  0.00    +0.000 N 
ATOM     10  C   UNL     1      47.618   3.413  17.858  0.00  0.00    +0.000 C 
ATOM     11  O   UNL     1      46.639   2.723  17.603  0.00  0.00    +0.000 OA
ATOM     12  H   UNL     1      48.034   2.457  19.595  0.00  0.00    +0.000 HD
ATOM     13  H   UNL     1      49.015   3.859  19.348  0.00  0.00    +0.000 HD
ENDBRANCH   3  10
ENDBRANCH   2   6
ENDBRANCH   1   2
BRANCH   1  14
ATOM     14  C   UNL     1      48.966   7.909  12.037  0.00  0.00    +0.000 C 
BRANCH  14  15
ATOM     15  C   UNL     1      47.462   7.761  12.013  0.00  0.00    +0.000 A 
ATOM     16  C   UNL     1      46.635   8.883  12.115  0.00  0.00    +0.000 A 
ATOM     17  C   UNL     1      45.250   8.736  12.043  0.00  0.00    +0.000 A 
ATOM     18  C   UNL     1      44.688   7.473  11.844  0.00  0.00    +0.000 A 
ATOM     19  C   UNL     1      45.488   6.332  11.693  0.00  0.00    +0.000 A 
ATOM     20  C   UNL     1      46.878   6.499  11.804  0.00  0.00    +0.000 A 
BRANCH  19  21
ATOM     21  N   UNL     1      44.896   5.127  11.338  0.00  0.00    +0.000 N 
ATOM     22  C   UNL     1      43.595   4.759  11.917  0.00  0.00    +0.000 C 
ATOM     23  C   UNL     1      43.440   3.233  11.832  0.00  0.00    +0.000 C 
ATOM     24  O   UNL     1      43.539   2.771  10.473  0.00  0.00    +0.000 OA
ATOM     25  C   UNL     1      44.818   3.132   9.914  0.00  0.00    +0.000 C 
ATOM     26  C   UNL     1      45.051   4.656   9.949  0.00  0.00    +0.000 C 
ENDBRANCH  19  21
ENDBRANCH  14  15
ENDBRANCH   1  14
TORSDOF 6
ENDMDL
MODEL 7
REMARK VINA RESULT:    -6.299      3.843      6.394
REMARK INTER + INTRA:          -9.448
REMARK INTER:                  -8.905
REMARK INTRA:                  -0.543
REMARK UNBOUND:                -0.940
REMARK  Name = 
REMARK  6 active torsions:
REMARK  status: ('A' for Active; 'I' for Inactive)
REMARK    1  A    between atoms: C_2  and  C_4
REMARK    2  A    between atoms: C_7  and  O_8
REMARK    3  A    between atoms: O_8  and  C_9
REMARK    4  A    between atoms: C_9  and  C_10
REMARK    5  A    between atoms: C_10  and  C_11
REMARK    6  A    between atoms: C_15  and  N_16
REMARK                            x       y       z     vdW  Elec       q    Type
REMARK                         _______ _______ _______ _____ _____    ______ ____
ROOT
ATOM      1  C   UNL     1      47.382   3.988  15.831  0.00  0.00    +0.000 C 
ENDROOT
BRANCH   1   2
ATOM      2  O   UNL     1      47.437   3.338  14.551  0.00  0.00    +0.000 OA
BRANCH   2   6
ATOM      3  C   UNL     1      44.683   4.924  11.918  0.00  0.00    +0.000 A 
ATOM      4  C   UNL     1      45.393   5.772  12.772  0.00  0.00    +0.000 A 
ATOM      5  C   UNL     1      46.317   5.227  13.665  0.00  0.00    +0.000 A 
ATOM      6  C   UNL     1      46.501   3.850  13.671  0.00  0.00    +0.000 A 
ATOM      7  N   UNL     1      45.819   3.010  12.864  0.00  0.00    +0.000 NA
ATOM      8  C   UNL     1      44.919   3.561  12.016  0.00  0.00    +0.000 A 
BRANCH   3  10
ATOM      9  N   UNL     1      43.064   6.577  11.181  0.00  0.00    +0.000 N 
ATOM     10  C   UNL     1      43.692   5.391  10.928  0.00  0.00    +0.000 C 
ATOM     11  O   UNL     1      43.473   4.768   9.897  0.00  0.00    +0.000 OA
ATOM     12  H   UNL     1      42.489   6.943  10.429  0.00  0.00    +0.000 HD
ATOM     13  H   UNL     1      43.406   7.238  11.866  0.00  0.00    +0.000 HD
ENDBRANCH   3  10
ENDBRANCH   2   6
ENDBRANCH   1   2
BRANCH   1  14
ATOM     14  C   UNL     1      48.066   3.114  16.883  0.00  0.00    +0.000 C 
BRANCH  14  15
ATOM     15  C   UNL     1      49.460   3.611  17.191  0.00  0.00    +0.000 A 
ATOM     16  C   UNL     1      49.697   4.969  17.421  0.00  0.00    +0.000 A 
ATOM     17  C   UNL     1      50.979   5.407  17.751  0.00  0.00    +0.000 A 
ATOM     18  C   UNL     1      52.023   4.488  17.876  0.00  0.00    +0.000 A 
ATOM     19  C   UNL     1      51.813   3.113  17.696  0.00  0.00    +0.000 A 
ATOM     20  C   UNL     1      50.523   2.700  17.330  0.00  0.00    +0.000 A 
BRANCH  19  21
ATOM     21  N   UNL     1      52.840   2.223  17.987  0.00  0.00    +0.000 N 
ATOM     22  C   UNL     1      53.727   2.487  19.131  0.00  0.00    +0.000 C 
ATOM     23  C   UNL     1      55.044   1.730  18.907  0.00  0.00    +0.000 C 
ATOM     24  O   UNL     1      54.818   0.317  18.756  0.00  0.00    +0.000 OA
ATOM     25  C   UNL     1      53.951   0.068  17.632  0.00  0.00    +0.000 C 
ATOM     26  C   UNL     1      52.594   0.784  17.780  0.00  0.00    +0.000 C 
ENDBRANCH  19  21
ENDBRANCH  14  15
ENDBRANCH   1  14
TORSDOF 6
ENDMDL
MODEL 8
REMARK VINA RESULT:    -6.287      3.132      8.216
REMARK INTER + INTRA:          -9.433
REMARK INTER:                  -8.829
REMARK INTRA:                  -0.604
REMARK UNBOUND:                -0.940
REMARK  Name = 
REMARK  6 active torsions:
REMARK  status: ('A' for Active; 'I' for Inactive)
REMARK    1  A    between atoms: C_2  and  C_4
REMARK    2  A    between atoms: C_7  and  O_8
REMARK    3  A    between atoms: O_8  and  C_9
REMARK    4  A    between atoms: C_9  and  C_10
REMARK    5  A    between atoms: C_10  and  C_11
REMARK    6  A    between atoms: C_15  and  N_16
REMARK                            x       y       z     vdW  Elec       q    Type
REMARK                         _______ _______ _______ _____ _____    ______ ____
ROOT
ATOM      1  C   UNL     1      47.914   4.887  16.199  0.00  0.00    +0.000 C 
ENDROOT
BRANCH   1   2
ATOM      2  O   UNL     1      48.456   4.747  17.522  0.00  0.00    +0.000 OA
BRANCH   2   6
ATOM      3  C   UNL     1      51.714   2.219  17.660  0.00  0.00    +0.000 A 
ATOM      4  C   UNL     1      51.802   3.495  18.223  0.00  0.00    +0.000 A 
ATOM      5  C   UNL     1      50.699   4.347  18.165  0.00  0.00    +0.000 A 
ATOM      6  C   UNL     1      49.541   3.891  17.548  0.00  0.00    +0.000 A 
ATOM      7  N   UNL     1      49.435   2.667  16.987  0.00  0.00    +0.000 NA
ATOM      8  C   UNL     1      50.522   1.864  17.044  0.00  0.00    +0.000 A 
BRANCH   3  10
ATOM      9  N   UNL     1      52.527  -0.017  18.148  0.00  0.00    +0.000 N 
ATOM     10  C   UNL     1      52.812   1.232  17.674  0.00  0.00    +0.000 C 
ATOM     11  O   UNL     1      53.923   1.504  17.237  0.00  0.00    +0.000 OA
ATOM     12  H   UNL     1      53.255  -0.713  18.026  0.00  0.00    +0.000 HD
ATOM     13  H   UNL     1      51.581  -0.352  18.260  0.00  0.00    +0.000 HD
ENDBRANCH   3  10
ENDBRANCH   2   6
ENDBRANCH   1   2
BRANCH   1  14
ATOM     14  C   UNL     1      48.568   6.078  15.496  0.00  0.00    +0.000 C 
BRANCH  14  15
ATOM     15  C   UNL     1      47.961   6.315  14.133  0.00  0.00    +0.000 A 
ATOM     16  C   UNL     1      48.605   7.130  13.198  0.00  0.00    +0.000 A 
ATOM     17  C   UNL     1      48.057   7.302  11.928  0.00  0.00    +0.000 A 
ATOM     18  C   UNL     1      46.877   6.641  11.578  0.00  0.00    +0.000 A 
ATOM     19  C   UNL     1      46.227   5.781  12.474  0.00  0.00    +0.000 A 
ATOM     20  C   UNL     1      46.778   5.652  13.759  0.00  0.00    +0.000 A 
BRANCH  19  21
ATOM     21  N   UNL     1      45.150   5.023  12.032  0.00  0.00    +0.000 N 
ATOM     22  C   UNL     1      45.219   3.555  12.100  0.00  0.00    +0.000 C 
ATOM     23  C   UNL     1      44.224   2.975  11.084  0.00  0.00    +0.000 C 
ATOM     24  O   UNL     1      42.885   3.433  11.343  0.00  0.00    +0.000 OA
ATOM     25  C   UNL     1      42.825   4.871  11.271  0.00  0.00    +0.000 C 
ATOM     26  C   UNL     1      43.790   5.538  12.271  0.00  0.00    +0.000 C 
ENDBRANCH  19  21
ENDBRANCH  14  15
ENDBRANCH   1  14
TORSDOF 6
ENDMDL
MODEL 9
REMARK VINA RESULT:    -6.063      3.380      6.081
REMARK INTER + INTRA:          -9.129
REMARK INTER:                  -8.559
REMARK INTRA:                  -0.570
REMARK UNBOUND:                -0.940
REMARK  Name = 
REMARK  6 active torsions:
REMARK  status: ('A' for Active; 'I' for Inactive)
REMARK    1  A    between atoms: C_2  and  C_4
REMARK    2  A    between atoms: C_7  and  O_8
REMARK    3  A    between atoms: O_8  and  C_9
REMARK    4  A    between atoms: C_9  and  C_10
REMARK    5  A    between atoms: C_10  and  C_11
REMARK    6  A    between atoms: C_15  and  N_16
REMARK                            x       y       z     vdW  Elec       q    Type
REMARK                         _______ _______ _______ _____ _____    ______ ____
ROOT
ATOM      1  C   UNL     1      47.327   4.103  15.814  0.00  0.00    +0.000 C 
ENDROOT
BRANCH   1   2
ATOM      2  O   UNL     1      47.465   3.495  14.520  0.00  0.00    +0.000 OA
BRANCH   2   6
ATOM      3  C   UNL     1      44.648   4.907  11.855  0.00  0.00    +0.000 A 
ATOM      4  C   UNL     1      45.377   5.808  12.636  0.00  0.00    +0.000 A 
ATOM      5  C   UNL     1      46.322   5.323  13.540  0.00  0.00    +0.000 A 
ATOM      6  C   UNL     1      46.508   3.949  13.630  0.00  0.00    +0.000 A 
ATOM      7  N   UNL     1      45.808   3.058  12.896  0.00  0.00    +0.000 NA
ATOM      8  C   UNL     1      44.888   3.553  12.036  0.00  0.00    +0.000 A 
BRANCH   3  10
ATOM      9  N   UNL     1      42.875   6.408  11.147  0.00  0.00    +0.000 N 
ATOM     10  C   UNL     1      43.634   5.309  10.860  0.00  0.00    +0.000 C 
ATOM     11  O   UNL     1      43.505   4.712   9.799  0.00  0.00    +0.000 OA
ATOM     12  H   UNL     1      42.280   6.744  10.397  0.00  0.00    +0.000 HD
ATOM     13  H   UNL     1      43.129   7.070  11.868  0.00  0.00    +0.000 HD
ENDBRANCH   3  10
ENDBRANCH   2   6
ENDBRANCH   1   2
BRANCH   1  14
ATOM     14  C   UNL     1      47.622   3.071  16.903  0.00  0.00    +0.000 C 
BRANCH  14  15
ATOM     15  C   UNL     1      49.092   3.043  17.252  0.00  0.00    +0.000 A 
ATOM     16  C   UNL     1      49.861   1.901  17.010  0.00  0.00    +0.000 A 
ATOM     17  C   UNL     1      51.225   1.906  17.293  0.00  0.00    +0.000 A 
ATOM     18  C   UNL     1      51.833   3.059  17.795  0.00  0.00    +0.000 A 
ATOM     19  C   UNL     1      51.103   4.237  18.009  0.00  0.00    +0.000 A 
ATOM     20  C   UNL     1      49.724   4.197  17.750  0.00  0.00    +0.000 A 
BRANCH  19  21
ATOM     21  N   UNL     1      51.776   5.402  18.355  0.00  0.00    +0.000 N 
ATOM     22  C   UNL     1      51.091   6.422  19.164  0.00  0.00    +0.000 C 
ATOM     23  C   UNL     1      51.788   7.772  18.933  0.00  0.00    +0.000 C 
ATOM     24  O   UNL     1      53.184   7.706  19.275  0.00  0.00    +0.000 OA
ATOM     25  C   UNL     1      53.847   6.707  18.476  0.00  0.00    +0.000 C 
ATOM     26  C   UNL     1      53.217   5.312  18.657  0.00  0.00    +0.000 C 
ENDBRANCH  19  21
ENDBRANCH  14  15
ENDBRANCH   1  14
TORSDOF 6
ENDMDL
