MODEL 1
REMARK VINA RESULT:    -7.500      0.000      0.000
REMARK INTER + INTRA:         -11.448
REMARK INTER:                 -10.788
REMARK INTRA:                  -0.660
REMARK UNBOUND:                -0.660
REMARK  Name = 
REMARK  9 active torsions:
REMARK  status: ('A' for Active; 'I' for Inactive)
REMARK    1  A    between atoms: C_1  and  C_2
REMARK    2  A    between atoms: C_2  and  N_3
REMARK    3  A    between atoms: N_3  and  C_4
REMARK    4  A    between atoms: N_3  and  C_14
REMARK    5  A    between atoms: C_4  and  C_5
REMARK    6  A    between atoms: C_5  and  C_6
REMARK    7  A    between atoms: C_10  and  C_11
REMARK    8  A    between atoms: C_11  and  N_12
REMARK    9  A    between atoms: C_18  and  C_19
REMARK                            x       y       z     vdW  Elec       q    Type
REMARK                         _______ _______ _______ _____ _____    ______ ____
ROOT
ATOM      1  N   UNL     1      44.729   5.397  11.445  0.00  0.00    +0.000 N 
ENDROOT
BRANCH   1   2
ATOM      2  C   UNL     1      45.763   5.658  12.362  0.00  0.00    +0.000 A 
ATOM      3  C   UNL     1      46.576   6.797  12.298  0.00  0.00    +0.000 A 
ATOM      4  C   UNL     1      47.571   7.049  13.248  0.00  0.00    +0.000 A 
ATOM      5  C   UNL     1      47.788   6.148  14.285  0.00  0.00    +0.000 A 
ATOM      6  C   UNL     1      47.019   4.984  14.371  0.00  0.00    +0.000 A 
ATOM      7  C   UNL     1      46.024   4.749  13.406  0.00  0.00    +0.000 A 
BRANCH   6   8
ATOM      8  C   UNL     1      47.303   4.052  15.499  0.00  0.00    +0.000 C 
ATOM      9  N   UNL     1      47.054   4.463  16.778  0.00  0.00    +0.000 N 
ATOM     10  O   UNL     1      47.765   2.930  15.304  0.00  0.00    +0.000 OA
ATOM     11  H   UNL     1      46.700   5.367  17.043  0.00  0.00    +0.000 HD
ATOM     12  H   UNL     1      47.281   3.807  17.514  0.00  0.00    +0.000 HD
ENDBRANCH   6   8
ENDBRANCH   1   2
BRANCH   1  14
ATOM     13  C   UNL     1      42.250   5.721  11.824  0.00  0.00    +0.000 C 
ATOM     14  C   UNL     1      43.468   4.816  11.930  0.00  0.00    +0.000 C 
ENDBRANCH   1  14
BRANCH   1  15
ATOM     15  C   UNL     1      45.170   5.247  10.036  0.00  0.00    +0.000 C 
BRANCH  15  16
ATOM     16  C   UNL     1      44.316   4.321   9.160  0.00  0.00    +0.000 C 
BRANCH  16  17
ATOM     17  C   UNL     1      45.154   3.250   8.487  0.00  0.00    +0.000 A 
ATOM     18  C   UNL     1      45.222   1.960   9.026  0.00  0.00    +0.000 A 
ATOM     19  C   UNL     1      45.965   0.964   8.390  0.00  0.00    +0.000 A 
ATOM     20  C   UNL     1      46.646   1.245   7.205  0.00  0.00    +0.000 A 
ATOM     21  C   UNL     1      46.623   2.536   6.655  0.00  0.00    +0.000 A 
ATOM     22  C   UNL     1      45.873   3.530   7.311  0.00  0.00    +0.000 A 
BRANCH  21  23
ATOM     23  C   UNL     1      47.275   2.852   5.328  0.00  0.00    +0.000 C 
BRANCH  23  24
ATOM     24  N   UNL     1      48.427   2.009   5.019  0.00  0.00    +0.000 NA
ATOM     25  H   UNL     1      49.243   2.604   4.888  0.00  0.00    +0.000 HD
ATOM     26  H   UNL     1      48.265   1.542   4.130  0.00  0.00    +0.000 HD
ENDBRANCH  23  24
ENDBRANCH  21  23
ENDBRANCH  16  17
ENDBRANCH  15  16
ENDBRANCH   1  15
TORSDOF 8
ENDMDL
MODEL 2
REMARK VINA RESULT:    -7.426      2.116      3.025
REMARK INTER + INTRA:         -11.342
REMARK INTER:                 -10.353
REMARK INTRA:                  -0.989
REMARK UNBOUND:                -0.660
REMARK  Name = 
REMARK  9 active torsions:
REMARK  status: ('A' for Active; 'I' for Inactive)
REMARK    1  A    between atoms: C_1  and  C_2
REMARK    2  A    between atoms: C_2  and  N_3
REMARK    3  A    between atoms: N_3  and  C_4
REMARK    4  A    between atoms: N_3  and  C_14
REMARK    5  A    between atoms: C_4  and  C_5
REMARK    6  A    between atoms: C_5  and  C_6
REMARK    7  A    between atoms: C_10  and  C_11
REMARK    8  A    between atoms: C_11  and  N_12
REMARK    9  A    between atoms: C_18  and  C_19
REMARK                            x       y       z     vdW  Elec       q    Type
REMARK                         _______ _______ _______ _____ _____    ______ ____
ROOT
ATOM      1  N   UNL     1      44.406   4.420  12.367  0.00  0.00    +0.000 N 
ENDROOT
BRANCH   1   2
ATOM      2  C   UNL     1      45.550   5.063  12.873  0.00  0.00    +0.000 A 
ATOM      3  C   UNL     1      46.254   4.606  13.995  0.00  0.00    +0.000 A 
ATOM      4  C   UNL     1      47.412   5.244  14.451  0.00  0.00    +0.000 A 
ATOM      5  C   UNL     1      47.886   6.376  13.798  0.00  0.00    +0.000 A 
ATOM      6  C   UNL     1      47.199   6.884  12.691  0.00  0.00    +0.000 A 
ATOM      7  C   UNL     1      46.036   6.228  12.249  0.00  0.00    +0.000 A 
BRANCH   6   8
ATOM      8  C   UNL     1      47.750   8.105  12.038  0.00  0.00    +0.000 C 
ATOM      9  N   UNL     1      48.952   8.027  11.394  0.00  0.00    +0.000 N 
ATOM     10  O   UNL     1      47.154   9.178  12.076  0.00  0.00    +0.000 OA
ATOM     11  H   UNL     1      49.527   7.204  11.327  0.00  0.00    +0.000 HD
ATOM     12  H   UNL     1      49.299   8.884  10.982  0.00  0.00    +0.000 HD
ENDBRANCH   6   8
ENDBRANCH   1   2
BRANCH   1  14
ATOM     13  C   UNL     1      42.294   5.646  11.712  0.00  0.00    +0.000 C 
ATOM     14  C   UNL     1      43.075   4.892  12.777  0.00  0.00    +0.000 C 
ENDBRANCH   1  14
BRANCH   1  15
ATOM     15  C   UNL     1      44.632   3.033  11.888  0.00  0.00    +0.000 C 
BRANCH  15  16
ATOM     16  C   UNL     1      44.029   2.687  10.521  0.00  0.00    +0.000 C 
BRANCH  16  17
ATOM     17  C   UNL     1      44.984   3.003   9.387  0.00  0.00    +0.000 A 
ATOM     18  C   UNL     1      45.239   4.330   9.022  0.00  0.00    +0.000 A 
ATOM     19  C   UNL     1      46.144   4.624   8.001  0.00  0.00    +0.000 A 
ATOM     20  C   UNL     1      46.808   3.594   7.334  0.00  0.00    +0.000 A 
ATOM     21  C   UNL     1      46.552   2.252   7.655  0.00  0.00    +0.000 A 
ATOM     22  C   UNL     1      45.634   1.973   8.684  0.00  0.00    +0.000 A 
BRANCH  21  23
ATOM     23  C   UNL     1      47.320   1.117   7.014  0.00  0.00    +0.000 C 
BRANCH  23  24
ATOM     24  N   UNL     1      48.192   1.535   5.920  0.00  0.00    +0.000 NA
ATOM     25  H   UNL     1      48.743   2.335   6.227  0.00  0.00    +0.000 HD
ATOM     26  H   UNL     1      47.618   1.860   5.146  0.00  0.00    +0.000 HD
ENDBRANCH  23  24
ENDBRANCH  21  23
ENDBRANCH  16  17
ENDBRANCH  15  16
ENDBRANCH   1  15
TORSDOF 8
ENDMDL
MODEL 3
REMARK VINA RESULT:    -7.235      1.977      2.210
REMARK INTER + INTRA:         -11.067
REMARK INTER:                 -10.362
REMARK INTRA:                  -0.705
REMARK UNBOUND:                -0.660
REMARK  Name = 
REMARK  9 active torsions:
REMARK  status: ('A' for Active; 'I' for Inactive)
REMARK    1  A    between atoms: C_1  and  C_2
REMARK    2  A    between atoms: C_2  and  N_3
REMARK    3  A    between atoms: N_3  and  C_4
REMARK    4  A    between atoms: N_3  and  C_14
REMARK    5  A    between atoms: C_4  and  C_5
REMARK    6  A    between atoms: C_5  and  C_6
REMARK    7  A    between atoms: C_10  and  C_11
REMARK    8  A    between atoms: C_11  and  N_12
REMARK    9  A    between atoms: C_18  and  C_19
REMARK                            x       y       z     vdW  Elec       q    Type
REMARK                         _______ _______ _______ _____ _____    ______ ____
ROOT
ATOM      1  N   UNL     1      44.379   5.923  11.157  0.00  0.00    +0.000 N 
ENDROOT
BRANCH   1   2
ATOM      2  C   UNL     1      45.262   6.862  11.719  0.00  0.00    +0.000 A 
ATOM      3  C   UNL     1      44.932   8.210  11.908  0.00  0.00    +0.000 A 
ATOM      4  C   UNL     1      45.818   9.111  12.508  0.00  0.00    +0.000 A 
ATOM      5  C   UNL     1      47.074   8.682  12.919  0.00  0.00    +0.000 A 
ATOM      6  C   UNL     1      47.457   7.352  12.725  0.00  0.00    +0.000 A 
ATOM      7  C   UNL     1      46.552   6.462  12.120  0.00  0.00    +0.000 A 
BRANCH   6   8
ATOM      8  C   UNL     1      48.820   6.953  13.179  0.00  0.00    +0.000 C 
ATOM      9  N   UNL     1      49.878   7.125  12.333  0.00  0.00    +0.000 N 
ATOM     10  O   UNL     1      49.009   6.464  14.290  0.00  0.00    +0.000 OA
ATOM     11  H   UNL     1      49.824   7.493  11.397  0.00  0.00    +0.000 HD
ATOM     12  H   UNL     1      50.781   6.822  12.673  0.00  0.00    +0.000 HD
ENDBRANCH   6   8
ENDBRANCH   1   2
BRANCH   1  14
ATOM     13  C   UNL     1      42.839   5.050  12.962  0.00  0.00    +0.000 C 
ATOM     14  C   UNL     1      43.004   5.833  11.669  0.00  0.00    +0.000 C 
ENDBRANCH   1  14
BRANCH   1  15
ATOM     15  C   UNL     1      45.036   4.781  10.474  0.00  0.00    +0.000 C 
BRANCH  15  16
ATOM     16  C   UNL     1      44.377   4.307   9.172  0.00  0.00    +0.000 C 
BRANCH  16  17
ATOM     17  C   UNL     1      45.211   3.252   8.470  0.00  0.00    +0.000 A 
ATOM     18  C   UNL     1      45.297   1.955   8.988  0.00  0.00    +0.000 A 
ATOM     19  C   UNL     1      46.036   0.973   8.325  0.00  0.00    +0.000 A 
ATOM     20  C   UNL     1      46.695   1.277   7.133  0.00  0.00    +0.000 A 
ATOM     21  C   UNL     1      46.653   2.576   6.603  0.00  0.00    +0.000 A 
ATOM     22  C   UNL     1      45.908   3.555   7.286  0.00  0.00    +0.000 A 
BRANCH  21  23
ATOM     23  C   UNL     1      47.281   2.915   5.270  0.00  0.00    +0.000 C 
BRANCH  23  24
ATOM     24  N   UNL     1      48.518   2.190   4.996  0.00  0.00    +0.000 NA
ATOM     25  H   UNL     1      48.310   1.194   4.944  0.00  0.00    +0.000 HD
ATOM     26  H   UNL     1      49.153   2.311   5.782  0.00  0.00    +0.000 HD
ENDBRANCH  23  24
ENDBRANCH  21  23
ENDBRANCH  16  17
ENDBRANCH  15  16
ENDBRANCH   1  15
TORSDOF 8
ENDMDL
MODEL 4
REMARK VINA RESULT:    -6.837      2.901      3.839
REMARK INTER + INTRA:         -10.494
REMARK INTER:                  -9.854
REMARK INTRA:                  -0.640
REMARK UNBOUND:                -0.660
REMARK  Name = 
REMARK  9 active torsions:
REMARK  status: ('A' for Active; 'I' for Inactive)
REMARK    1  A    between atoms: C_1  and  C_2
REMARK    2  A    between atoms: C_2  and  N_3
REMARK    3  A    between atoms: N_3  and  C_4
REMARK    4  A    between atoms: N_3  and  C_14
REMARK    5  A    between atoms: C_4  and  C_5
REMARK    6  A    between atoms: C_5  and  C_6
REMARK    7  A    between atoms: C_10  and  C_11
REMARK    8  A    between atoms: C_11  and  N_12
REMARK    9  A    between atoms: C_18  and  C_19
REMARK                            x       y       z     vdW  Elec       q    Type
REMARK                         _______ _______ _______ _____ _____    ______ ____
ROOT
ATOM      1  N   UNL     1      44.342   5.815  11.362  0.00  0.00    +0.000 N 
ENDROOT
BRANCH   1   2
ATOM      2  C   UNL     1      45.001   6.963  11.834  0.00  0.00    +0.000 A 
ATOM      3  C   UNL     1      46.085   6.916  12.721  0.00  0.00    +0.000 A 
ATOM      4  C   UNL     1      46.746   8.075  13.142  0.00  0.00    +0.000 A 
ATOM      5  C   UNL     1      46.321   9.320  12.694  0.00  0.00    +0.000 A 
ATOM      6  C   UNL     1      45.226   9.416  11.831  0.00  0.00    +0.000 A 
ATOM      7  C   UNL     1      44.575   8.240  11.420  0.00  0.00    +0.000 A 
BRANCH   6   8
ATOM      8  C   UNL     1      44.812  10.779  11.392  0.00  0.00    +0.000 C 
ATOM      9  N   UNL     1      43.633  11.295  11.851  0.00  0.00    +0.000 N 
ATOM     10  O   UNL     1      45.500  11.441  10.618  0.00  0.00    +0.000 OA
ATOM     11  H   UNL     1      42.990  10.824  12.466  0.00  0.00    +0.000 HD
ATOM     12  H   UNL     1      43.381  12.214  11.512  0.00  0.00    +0.000 HD
ENDBRANCH   6   8
ENDBRANCH   1   2
BRANCH   1  14
ATOM     13  C   UNL     1      43.482   3.957  12.846  0.00  0.00    +0.000 C 
ATOM     14  C   UNL     1      43.210   5.269  12.126  0.00  0.00    +0.000 C 
ENDBRANCH   1  14
BRANCH   1  15
ATOM     15  C   UNL     1      45.144   4.971  10.441  0.00  0.00    +0.000 C 
BRANCH  15  16
ATOM     16  C   UNL     1      44.399   4.405   9.226  0.00  0.00    +0.000 C 
BRANCH  16  17
ATOM     17  C   UNL     1      45.192   3.311   8.537  0.00  0.00    +0.000 A 
ATOM     18  C   UNL     1      45.187   2.005   9.041  0.00  0.00    +0.000 A 
ATOM     19  C   UNL     1      45.888   0.990   8.390  0.00  0.00    +0.000 A 
ATOM     20  C   UNL     1      46.602   1.267   7.223  0.00  0.00    +0.000 A 
ATOM     21  C   UNL     1      46.652   2.571   6.708  0.00  0.00    +0.000 A 
ATOM     22  C   UNL     1      45.943   3.585   7.379  0.00  0.00    +0.000 A 
BRANCH  21  23
ATOM     23  C   UNL     1      47.340   2.888   5.399  0.00  0.00    +0.000 C 
BRANCH  23  24
ATOM     24  N   UNL     1      48.455   1.998   5.086  0.00  0.00    +0.000 NA
ATOM     25  H   UNL     1      49.326   2.466   5.332  0.00  0.00    +0.000 HD
ATOM     26  H   UNL     1      48.484   1.846   4.081  0.00  0.00    +0.000 HD
ENDBRANCH  23  24
ENDBRANCH  21  23
ENDBRANCH  16  17
ENDBRANCH  15  16
ENDBRANCH   1  15
TORSDOF 8
ENDMDL
MODEL 5
REMARK VINA RESULT:    -6.813      2.571      6.592
REMARK INTER + INTRA:         -10.459
REMARK INTER:                  -9.644
REMARK INTRA:                  -0.815
REMARK UNBOUND:                -0.660
REMARK  Name = 
REMARK  9 active torsions:
REMARK  status: ('A' for Active; 'I' for Inactive)
REMARK    1  A    between atoms: C_1  and  C_2
REMARK    2  A    between atoms: C_2  and  N_3
REMARK    3  A    between atoms: N_3  and  C_4
REMARK    4  A    between atoms: N_3  and  C_14
REMARK    5  A    between atoms: C_4  and  C_5
REMARK    6  A    between atoms: C_5  and  C_6
REMARK    7  A    between atoms: C_10  and  C_11
REMARK    8  A    between atoms: C_11  and  N_12
REMARK    9  A    between atoms: C_18  and  C_19
REMARK                            x       y       z     vdW  Elec       q    Type
REMARK                         _______ _______ _______ _____ _____    ______ ____
ROOT
ATOM      1  N   UNL     1      44.550   3.280  11.372  0.00  0.00    +0.000 N 
ENDROOT
BRANCH   1   2
ATOM      2  C   UNL     1      45.141   3.420  10.104  0.00  0.00    +0.000 A 
ATOM      3  C   UNL     1      45.244   4.648   9.437  0.00  0.00    +0.000 A 
ATOM      4  C   UNL     1      45.873   4.762   8.193  0.00  0.00    +0.000 A 
ATOM      5  C   UNL     1      46.403   3.636   7.575  0.00  0.00    +0.000 A 
ATOM      6  C   UNL     1      46.298   2.386   8.191  0.00  0.00    +0.000 A 
ATOM      7  C   UNL     1      45.661   2.292   9.441  0.00  0.00    +0.000 A 
BRANCH   6   8
ATOM      8  C   UNL     1      46.878   1.213   7.476  0.00  0.00    +0.000 C 
ATOM      9  N   UNL     1      47.741   1.429   6.439  0.00  0.00    +0.000 N 
ATOM     10  O   UNL     1      46.588   0.061   7.791  0.00  0.00    +0.000 OA
ATOM     11  H   UNL     1      48.021   2.330   6.091  0.00  0.00    +0.000 HD
ATOM     12  H   UNL     1      48.094   0.606   5.969  0.00  0.00    +0.000 HD
ENDBRANCH   6   8
ENDBRANCH   1   2
BRANCH   1  14
ATOM     13  C   UNL     1      42.681   4.983  11.357  0.00  0.00    +0.000 C 
ATOM     14  C   UNL     1      43.110   3.534  11.527  0.00  0.00    +0.000 C 
ENDBRANCH   1  14
BRANCH   1  15
ATOM     15  C   UNL     1      45.492   3.393  12.514  0.00  0.00    +0.000 C 
BRANCH  15  16
ATOM     16  C   UNL     1      45.260   4.576  13.462  0.00  0.00    +0.000 C 
BRANCH  16  17
ATOM     17  C   UNL     1      45.934   5.840  12.962  0.00  0.00    +0.000 A 
ATOM     18  C   UNL     1      47.325   5.890  12.811  0.00  0.00    +0.000 A 
ATOM     19  C   UNL     1      47.944   7.040  12.319  0.00  0.00    +0.000 A 
ATOM     20  C   UNL     1      47.179   8.154  11.969  0.00  0.00    +0.000 A 
ATOM     21  C   UNL     1      45.786   8.146  12.136  0.00  0.00    +0.000 A 
ATOM     22  C   UNL     1      45.177   6.980  12.638  0.00  0.00    +0.000 A 
BRANCH  21  23
ATOM     23  C   UNL     1      44.920   9.300  11.683  0.00  0.00    +0.000 C 
BRANCH  23  24
ATOM     24  N   UNL     1      43.685   8.889  11.019  0.00  0.00    +0.000 NA
ATOM     25  H   UNL     1      43.138   9.720  10.802  0.00  0.00    +0.000 HD
ATOM     26  H   UNL     1      43.128   8.339  11.669  0.00  0.00    +0.000 HD
ENDBRANCH  23  24
ENDBRANCH  21  23
ENDBRANCH  16  17
ENDBRANCH  15  16
ENDBRANCH   1  15
TORSDOF 8
ENDMDL
MODEL 6
REMARK VINA RESULT:    -6.748      1.434      2.174
REMARK INTER + INTRA:         -10.366
REMARK INTER:                  -9.614
REMARK INTRA:                  -0.752
REMARK UNBOUND:                -0.660
REMARK  Name = 
REMARK  9 active torsions:
REMARK  status: ('A' for Active; 'I' for Inactive)
REMARK    1  A    between atoms: C_1  and  C_2
REMARK    2  A    between atoms: C_2  and  N_3
REMARK    3  A    between atoms: N_3  and  C_4
REMARK    4  A    between atoms: N_3  and  C_14
REMARK    5  A    between atoms: C_4  and  C_5
REMARK    6  A    between atoms: C_5  and  C_6
REMARK    7  A    between atoms: C_10  and  C_11
REMARK    8  A    between atoms: C_11  and  N_12
REMARK    9  A    between atoms: C_18  and  C_19
REMARK                            x       y       z     vdW  Elec       q    Type
REMARK                         _______ _______ _______ _____ _____    ______ ____
ROOT
ATOM      1  N   UNL     1      45.497   4.926  12.863  0.00  0.00    +0.000 N 
ENDROOT
BRANCH   1   2
ATOM      2  C   UNL     1      46.508   5.159  13.812  0.00  0.00    +0.000 A 
ATOM      3  C   UNL     1      47.342   6.284  13.785  0.00  0.00    +0.000 A 
ATOM      4  C   UNL     1      48.312   6.509  14.766  0.00  0.00    +0.000 A 
ATOM      5  C   UNL     1      48.483   5.594  15.799  0.00  0.00    +0.000 A 
ATOM      6  C   UNL     1      47.692   4.443  15.850  0.00  0.00    +0.000 A 
ATOM      7  C   UNL     1      46.722   4.235  14.854  0.00  0.00    +0.000 A 
BRANCH   6   8
ATOM      8  C   UNL     1      47.927   3.495  16.976  0.00  0.00    +0.000 C 
ATOM      9  N   UNL     1      46.853   2.933  17.606  0.00  0.00    +0.000 N 
ATOM     10  O   UNL     1      49.062   3.217  17.356  0.00  0.00    +0.000 OA
ATOM     11  H   UNL     1      45.887   3.113  17.386  0.00  0.00    +0.000 HD
ATOM     12  H   UNL     1      47.057   2.312  18.377  0.00  0.00    +0.000 HD
ENDBRANCH   6   8
ENDBRANCH   1   2
BRANCH   1  14
ATOM     13  C   UNL     1      44.518   6.978  11.758  0.00  0.00    +0.000 C 
ATOM     14  C   UNL     1      44.364   5.859  12.775  0.00  0.00    +0.000 C 
ENDBRANCH   1  14
BRANCH   1  15
ATOM     15  C   UNL     1      45.391   3.520  12.399  0.00  0.00    +0.000 C 
BRANCH  15  16
ATOM     16  C   UNL     1      44.398   3.261  11.259  0.00  0.00    +0.000 C 
BRANCH  16  17
ATOM     17  C   UNL     1      45.068   3.333   9.900  0.00  0.00    +0.000 A 
ATOM     18  C   UNL     1      45.247   4.567   9.262  0.00  0.00    +0.000 A 
ATOM     19  C   UNL     1      45.893   4.640   8.028  0.00  0.00    +0.000 A 
ATOM     20  C   UNL     1      46.371   3.480   7.416  0.00  0.00    +0.000 A 
ATOM     21  C   UNL     1      46.181   2.225   8.015  0.00  0.00    +0.000 A 
ATOM     22  C   UNL     1      45.524   2.169   9.258  0.00  0.00    +0.000 A 
BRANCH  21  23
ATOM     23  C   UNL     1      46.765   0.961   7.425  0.00  0.00    +0.000 C 
BRANCH  23  24
ATOM     24  N   UNL     1      48.062   1.153   6.781  0.00  0.00    +0.000 NA
ATOM     25  H   UNL     1      48.518   0.247   6.687  0.00  0.00    +0.000 HD
ATOM     26  H   UNL     1      48.655   1.711   7.392  0.00  0.00    +0.000 HD
ENDBRANCH  23  24
ENDBRANCH  21  23
ENDBRANCH  16  17
ENDBRANCH  15  16
ENDBRANCH   1  15
TORSDOF 8
ENDMDL
MODEL 7
REMARK VINA RESULT:    -6.448      1.665      3.156
REMARK INTER + INTRA:          -9.935
REMARK INTER:                  -9.148
REMARK INTRA:                  -0.787
REMARK UNBOUND:                -0.660
REMARK  Name = 
REMARK  9 active torsions:
REMARK  status: ('A' for Active; 'I' for Inactive)
REMARK    1  A    between atoms: C_1  and  C_2
REMARK    2  A    between atoms: C_2  and  N_3
REMARK    3  A    between atoms: N_3  and  C_4
REMARK    4  A    between atoms: N_3  and  C_14
REMARK    5  A    between atoms: C_4  and  C_5
REMARK    6  A    between atoms: C_5  and  C_6
REMARK    7  A    between atoms: C_10  and  C_11
REMARK    8  A    between atoms: C_11  and  N_12
REMARK    9  A    between atoms: C_18  and  C_19
REMARK                            x       y       z     vdW  Elec       q    Type
REMARK                         _______ _______ _______ _____ _____    ______ ____
ROOT
ATOM      1  N   UNL     1      47.136   6.754  12.888  0.00  0.00    +0.000 N 
ENDROOT
BRANCH   1   2
ATOM      2  C   UNL     1      47.687   6.378  14.126  0.00  0.00    +0.000 A 
ATOM      3  C   UNL     1      48.422   7.253  14.936  0.00  0.00    +0.000 A 
ATOM      4  C   UNL     1      48.923   6.861  16.182  0.00  0.00    +0.000 A 
ATOM      5  C   UNL     1      48.713   5.566  16.641  0.00  0.00    +0.000 A 
ATOM      6  C   UNL     1      48.009   4.651  15.852  0.00  0.00    +0.000 A 
ATOM      7  C   UNL     1      47.514   5.064  14.603  0.00  0.00    +0.000 A 
BRANCH   6   8
ATOM      8  C   UNL     1      47.823   3.274  16.393  0.00  0.00    +0.000 C 
ATOM      9  N   UNL     1      46.933   3.076  17.411  0.00  0.00    +0.000 N 
ATOM     10  O   UNL     1      48.459   2.320  15.953  0.00  0.00    +0.000 OA
ATOM     11  H   UNL     1      46.384   3.793  17.854  0.00  0.00    +0.000 HD
ATOM     12  H   UNL     1      46.854   2.130  17.761  0.00  0.00    +0.000 HD
ENDBRANCH   6   8
ENDBRANCH   1   2
BRANCH   1  14
ATOM     13  C   UNL     1      48.950   7.730  11.422  0.00  0.00    +0.000 C 
ATOM     14  C   UNL     1      47.660   7.942  12.199  0.00  0.00    +0.000 C 
ENDBRANCH   1  14
BRANCH   1  15
ATOM     15  C   UNL     1      45.765   6.243  12.636  0.00  0.00    +0.000 C 
BRANCH  15  16
ATOM     16  C   UNL     1      45.244   6.398  11.201  0.00  0.00    +0.000 C 
BRANCH  16  17
ATOM     17  C   UNL     1      45.022   5.054  10.534  0.00  0.00    +0.000 A 
ATOM     18  C   UNL     1      44.273   4.059  11.174  0.00  0.00    +0.000 A 
ATOM     19  C   UNL     1      44.038   2.834  10.548  0.00  0.00    +0.000 A 
ATOM     20  C   UNL     1      44.548   2.590   9.271  0.00  0.00    +0.000 A 
ATOM     21  C   UNL     1      45.328   3.555   8.616  0.00  0.00    +0.000 A 
ATOM     22  C   UNL     1      45.559   4.783   9.263  0.00  0.00    +0.000 A 
BRANCH  21  23
ATOM     23  C   UNL     1      45.819   3.357   7.199  0.00  0.00    +0.000 C 
BRANCH  23  24
ATOM     24  N   UNL     1      46.951   4.208   6.840  0.00  0.00    +0.000 NA
ATOM     25  H   UNL     1      47.610   3.661   6.289  0.00  0.00    +0.000 HD
ATOM     26  H   UNL     1      47.441   4.480   7.689  0.00  0.00    +0.000 HD
ENDBRANCH  23  24
ENDBRANCH  21  23
ENDBRANCH  16  17
ENDBRANCH  15  16
ENDBRANCH   1  15
TORSDOF 8
ENDMDL
MODEL 8
REMARK VINA RESULT:    -6.300      3.179      4.522
REMARK INTER + INTRA:          -9.721
REMARK INTER:                  -9.044
REMARK INTRA:                  -0.677
REMARK UNBOUND:                -0.660
REMARK  Name = 
REMARK  9 active torsions:
REMARK  status: ('A' for Active; 'I' for Inactive)
REMARK    1  A    between atoms: C_1  and  C_2
REMARK    2  A    between atoms: C_2  and  N_3
REMARK    3  A    between atoms: N_3  and  C_4
REMARK    4  A    between atoms: N_3  and  C_14
REMARK    5  A    between atoms: C_4  and  C_5
REMARK    6  A    between atoms: C_5  and  C_6
REMARK    7  A    between atoms: C_10  and  C_11
REMARK    8  A    between atoms: C_11  and  N_12
REMARK    9  A    between atoms: C_18  and  C_19
REMARK                            x       y       z     vdW  Elec       q    Type
REMARK                         _______ _______ _______ _____ _____    ______ ____
ROOT
ATOM      1  N   UNL     1      45.931   6.280  13.017  0.00  0.00    +0.000 N 
ENDROOT
BRANCH   1   2
ATOM      2  C   UNL     1      46.240   7.604  12.659  0.00  0.00    +0.000 A 
ATOM      3  C   UNL     1      47.551   8.064  12.481  0.00  0.00    +0.000 A 
ATOM      4  C   UNL     1      47.825   9.377  12.085  0.00  0.00    +0.000 A 
ATOM      5  C   UNL     1      46.784  10.273  11.874  0.00  0.00    +0.000 A 
ATOM      6  C   UNL     1      45.461   9.865  12.068  0.00  0.00    +0.000 A 
ATOM      7  C   UNL     1      45.206   8.541  12.467  0.00  0.00    +0.000 A 
BRANCH   6   8
ATOM      8  C   UNL     1      44.387  10.872  11.835  0.00  0.00    +0.000 C 
ATOM      9  N   UNL     1      43.118  10.440  11.575  0.00  0.00    +0.000 N 
ATOM     10  O   UNL     1      44.621  12.078  11.861  0.00  0.00    +0.000 OA
ATOM     11  H   UNL     1      42.830   9.477  11.510  0.00  0.00    +0.000 HD
ATOM     12  H   UNL     1      42.425  11.156  11.403  0.00  0.00    +0.000 HD
ENDBRANCH   6   8
ENDBRANCH   1   2
BRANCH   1  14
ATOM     13  C   UNL     1      46.594   3.905  13.575  0.00  0.00    +0.000 C 
ATOM     14  C   UNL     1      47.024   5.338  13.302  0.00  0.00    +0.000 C 
ENDBRANCH   1  14
BRANCH   1  15
ATOM     15  C   UNL     1      44.589   5.815  12.585  0.00  0.00    +0.000 C 
BRANCH  15  16
ATOM     16  C   UNL     1      44.290   5.927  11.084  0.00  0.00    +0.000 C 
BRANCH  16  17
ATOM     17  C   UNL     1      44.501   4.607  10.367  0.00  0.00    +0.000 A 
ATOM     18  C   UNL     1      43.980   3.421  10.897  0.00  0.00    +0.000 A 
ATOM     19  C   UNL     1      44.142   2.210  10.222  0.00  0.00    +0.000 A 
ATOM     20  C   UNL     1      44.825   2.172   9.005  0.00  0.00    +0.000 A 
ATOM     21  C   UNL     1      45.385   3.338   8.462  0.00  0.00    +0.000 A 
ATOM     22  C   UNL     1      45.216   4.550   9.158  0.00  0.00    +0.000 A 
BRANCH  21  23
ATOM     23  C   UNL     1      46.052   3.347   7.105  0.00  0.00    +0.000 C 
BRANCH  23  24
ATOM     24  N   UNL     1      47.125   4.330   6.979  0.00  0.00    +0.000 NA
ATOM     25  H   UNL     1      47.012   5.033   7.707  0.00  0.00    +0.000 HD
ATOM     26  H   UNL     1      47.024   4.816   6.090  0.00  0.00    +0.000 HD
ENDBRANCH  23  24
ENDBRANCH  21  23
ENDBRANCH  16  17
ENDBRANCH  15  16
ENDBRANCH   1  15
TORSDOF 8
ENDMDL
MODEL 9
REMARK VINA RESULT:    -6.240      4.336      8.132
REMARK INTER + INTRA:          -9.636
REMARK INTER:                  -8.238
REMARK INTRA:                  -1.398
REMARK UNBOUND:                -0.660
REMARK  Name = 
REMARK  9 active torsions:
REMARK  status: ('A' for Active; 'I' for Inactive)
REMARK    1  A    between atoms: C_1  and  C_2
REMARK    2  A    between atoms: C_2  and  N_3
REMARK    3  A    between atoms: N_3  and  C_4
REMARK    4  A    between atoms: N_3  and  C_14
REMARK    5  A    between atoms: C_4  and  C_5
REMARK    6  A    between atoms: C_5  and  C_6
REMARK    7  A    between atoms: C_10  and  C_11
REMARK    8  A    between atoms: C_11  and  N_12
REMARK    9  A    between atoms: C_18  and  C_19
REMARK                            x       y       z     vdW  Elec       q    Type
REMARK                         _______ _______ _______ _____ _____    ______ ____
ROOT
ATOM      1  N   UNL     1      48.577   8.194  13.785  0.00  0.00    +0.000 N 
ENDROOT
BRANCH   1   2
ATOM      2  C   UNL     1      47.474   7.373  13.493  0.00  0.00    +0.000 A 
ATOM      3  C   UNL     1      46.255   7.869  13.011  0.00  0.00    +0.000 A 
ATOM      4  C   UNL     1      45.188   7.023  12.691  0.00  0.00    +0.000 A 
ATOM      5  C   UNL     1      45.312   5.649  12.865  0.00  0.00    +0.000 A 
ATOM      6  C   UNL     1      46.500   5.114  13.370  0.00  0.00    +0.000 A 
ATOM      7  C   UNL     1      47.561   5.981  13.686  0.00  0.00    +0.000 A 
BRANCH   6   8
ATOM      8  C   UNL     1      46.572   3.634  13.543  0.00  0.00    +0.000 C 
ATOM      9  N   UNL     1      45.730   2.841  12.817  0.00  0.00    +0.000 N 
ATOM     10  O   UNL     1      47.360   3.117  14.330  0.00  0.00    +0.000 OA
ATOM     11  H   UNL     1      45.035   3.167  12.166  0.00  0.00    +0.000 HD
ATOM     12  H   UNL     1      45.798   1.845  12.980  0.00  0.00    +0.000 HD
ENDBRANCH   6   8
ENDBRANCH   1   2
BRANCH   1  14
ATOM     13  C   UNL     1      49.580   8.574  11.495  0.00  0.00    +0.000 C 
ATOM     14  C   UNL     1      49.774   8.120  12.933  0.00  0.00    +0.000 C 
ENDBRANCH   1  14
BRANCH   1  15
ATOM     15  C   UNL     1      48.644   8.671  15.188  0.00  0.00    +0.000 C 
BRANCH  15  16
ATOM     16  C   UNL     1      49.598   7.907  16.115  0.00  0.00    +0.000 C 
BRANCH  16  17
ATOM     17  C   UNL     1      48.848   7.135  17.184  0.00  0.00    +0.000 A 
ATOM     18  C   UNL     1      48.217   7.811  18.235  0.00  0.00    +0.000 A 
ATOM     19  C   UNL     1      47.498   7.107  19.202  0.00  0.00    +0.000 A 
ATOM     20  C   UNL     1      47.398   5.716  19.127  0.00  0.00    +0.000 A 
ATOM     21  C   UNL     1      48.044   5.007  18.103  0.00  0.00    +0.000 A 
ATOM     22  C   UNL     1      48.769   5.732  17.139  0.00  0.00    +0.000 A 
BRANCH  21  23
ATOM     23  C   UNL     1      47.883   3.512  17.942  0.00  0.00    +0.000 C 
BRANCH  23  24
ATOM     24  N   UNL     1      46.583   3.111  17.411  0.00  0.00    +0.000 NA
ATOM     25  H   UNL     1      46.308   3.770  16.686  0.00  0.00    +0.000 HD
ATOM     26  H   UNL     1      45.887   3.187  18.149  0.00  0.00    +0.000 HD
ENDBRANCH  23  24
ENDBRANCH  21  23
ENDBRANCH  16  17
ENDBRANCH  15  16
ENDBRANCH   1  15
TORSDOF 8
ENDMDL
