MODEL 1
REMARK VINA RESULT:    -7.995      0.000      0.000
REMARK INTER + INTRA:         -12.490
REMARK INTER:                 -11.501
REMARK INTRA:                  -0.989
REMARK UNBOUND:                -0.989
REMARK  Name = 
REMARK  9 active torsions:
REMARK  status: ('A' for Active; 'I' for Inactive)
REMARK    1  A    between atoms: C_1  and  N_2
REMARK    2  A    between atoms: C_4  and  C_5
REMARK    3  A    between atoms: N_7  and  C_8
REMARK    4  A    between atoms: C_8  and  C_9
REMARK    5  A    between atoms: C_12  and  C_13
REMARK    6  A    between atoms: C_13  and  S_14
REMARK    7  A    between atoms: S_14  and  C_15
REMARK    8  A    between atoms: C_15  and  C_16
REMARK    9  A    between atoms: C_25  and  O_26
REMARK                            x       y       z     vdW  Elec       q    Type
REMARK                         _______ _______ _______ _____ _____    ______ ____
ROOT
ATOM      1  C   UNL     1      48.936   7.196  15.260  0.00  0.00    +0.000 C 
ATOM      2  O   UNL     1      49.871   6.882  14.528  0.00  0.00    +0.000 OA
ATOM      3  N   UNL     1      47.739   7.669  14.788  0.00  0.00    +0.000 N 
ATOM      4  H   UNL     1      47.006   7.928  15.430  0.00  0.00    +0.000 HD
ENDROOT
BRANCH   1   8
ATOM      5  C   UNL     1      49.576   8.267  20.105  0.00  0.00    +0.000 C 
ATOM      6  N   UNL     1      49.321   7.543  18.882  0.00  0.00    +0.000 N 
ATOM      7  C   UNL     1      49.330   8.088  17.626  0.00  0.00    +0.000 A 
ATOM      8  C   UNL     1      49.038   7.080  16.706  0.00  0.00    +0.000 A 
ATOM      9  C   UNL     1      48.850   5.882  17.470  0.00  0.00    +0.000 A 
ATOM     10  C   UNL     1      48.544   4.541  17.208  0.00  0.00    +0.000 A 
ATOM     11  N   UNL     1      48.442   3.659  18.217  0.00  0.00    +0.000 NA
ATOM     12  C   UNL     1      48.647   4.115  19.464  0.00  0.00    +0.000 A 
ATOM     13  N   UNL     1      48.946   5.367  19.853  0.00  0.00    +0.000 NA
ATOM     14  C   UNL     1      49.034   6.205  18.807  0.00  0.00    +0.000 A 
BRANCH  10  15
ATOM     15  O   UNL     1      48.327   4.025  15.955  0.00  0.00    +0.000 OA
ATOM     16  H   UNL     1      49.023   3.360  15.779  0.00  0.00    +0.000 HD
ENDBRANCH  10  15
ENDBRANCH   1   8
BRANCH   3  17
ATOM     17  C   UNL     1      47.513   7.843  13.379  0.00  0.00    +0.000 C 
BRANCH  17  18
ATOM     18  C   UNL     1      46.458   6.898  12.869  0.00  0.00    +0.000 A 
ATOM     19  C   UNL     1      45.388   7.406  12.129  0.00  0.00    +0.000 A 
ATOM     20  C   UNL     1      44.402   6.553  11.626  0.00  0.00    +0.000 A 
ATOM     21  C   UNL     1      44.469   5.173  11.853  0.00  0.00    +0.000 A 
ATOM     22  C   UNL     1      45.520   4.670  12.627  0.00  0.00    +0.000 A 
ATOM     23  C   UNL     1      46.506   5.521  13.137  0.00  0.00    +0.000 A 
BRANCH  21  24
ATOM     24  C   UNL     1      43.432   4.232  11.292  0.00  0.00    +0.000 C 
BRANCH  24  25
ATOM     25  S   UNL     1      44.109   2.904  10.245  0.00  0.00    +0.000 S 
BRANCH  25  26
ATOM     26  C   UNL     1      44.736   3.854   8.810  0.00  0.00    +0.000 C 
BRANCH  26  27
ATOM     27  C   UNL     1      45.698   3.002   8.005  0.00  0.00    +0.000 A 
ATOM     28  C   UNL     1      45.987   1.677   8.371  0.00  0.00    +0.000 A 
ATOM     29  C   UNL     1      46.909   0.919   7.642  0.00  0.00    +0.000 A 
ATOM     30  C   UNL     1      47.559   1.477   6.543  0.00  0.00    +0.000 A 
ATOM     31  C   UNL     1      47.285   2.791   6.171  0.00  0.00    +0.000 A 
ATOM     32  C   UNL     1      46.363   3.549   6.897  0.00  0.00    +0.000 A 
ENDBRANCH  26  27
ENDBRANCH  25  26
ENDBRANCH  24  25
ENDBRANCH  21  24
ENDBRANCH  17  18
ENDBRANCH   3  17
TORSDOF 8
ENDMDL
MODEL 2
REMARK VINA RESULT:    -7.818      1.486      2.501
REMARK INTER + INTRA:         -12.235
REMARK INTER:                 -11.235
REMARK INTRA:                  -1.000
REMARK UNBOUND:                -0.989
REMARK  Name = 
REMARK  9 active torsions:
REMARK  status: ('A' for Active; 'I' for Inactive)
REMARK    1  A    between atoms: C_1  and  N_2
REMARK    2  A    between atoms: C_4  and  C_5
REMARK    3  A    between atoms: N_7  and  C_8
REMARK    4  A    between atoms: C_8  and  C_9
REMARK    5  A    between atoms: C_12  and  C_13
REMARK    6  A    between atoms: C_13  and  S_14
REMARK    7  A    between atoms: S_14  and  C_15
REMARK    8  A    between atoms: C_15  and  C_16
REMARK    9  A    between atoms: C_25  and  O_26
REMARK                            x       y       z     vdW  Elec       q    Type
REMARK                         _______ _______ _______ _____ _____    ______ ____
ROOT
ATOM      1  C   UNL     1      49.226   6.431  16.234  0.00  0.00    +0.000 C 
ATOM      2  O   UNL     1      50.378   6.496  15.815  0.00  0.00    +0.000 OA
ATOM      3  N   UNL     1      48.127   6.455  15.415  0.00  0.00    +0.000 N 
ATOM      4  H   UNL     1      47.199   6.415  15.808  0.00  0.00    +0.000 HD
ENDROOT
BRANCH   1   8
ATOM      5  C   UNL     1      48.938   4.722  20.927  0.00  0.00    +0.000 C 
ATOM      6  N   UNL     1      48.809   5.570  19.765  0.00  0.00    +0.000 N 
ATOM      7  C   UNL     1      49.246   5.255  18.506  0.00  0.00    +0.000 A 
ATOM      8  C   UNL     1      48.945   6.319  17.656  0.00  0.00    +0.000 A 
ATOM      9  C   UNL     1      48.295   7.308  18.466  0.00  0.00    +0.000 A 
ATOM     10  C   UNL     1      47.742   8.581  18.277  0.00  0.00    +0.000 A 
ATOM     11  N   UNL     1      47.195   9.243  19.310  0.00  0.00    +0.000 NA
ATOM     12  C   UNL     1      47.199   8.635  20.509  0.00  0.00    +0.000 A 
ATOM     13  N   UNL     1      47.691   7.424  20.827  0.00  0.00    +0.000 NA
ATOM     14  C   UNL     1      48.226   6.810  19.759  0.00  0.00    +0.000 A 
BRANCH  10  15
ATOM     15  O   UNL     1      47.712   9.243  17.076  0.00  0.00    +0.000 OA
ATOM     16  H   UNL     1      48.163   8.683  16.412  0.00  0.00    +0.000 HD
ENDBRANCH  10  15
ENDBRANCH   1   8
BRANCH   3  17
ATOM     17  C   UNL     1      48.266   6.577  13.988  0.00  0.00    +0.000 C 
BRANCH  17  18
ATOM     18  C   UNL     1      47.053   6.050  13.269  0.00  0.00    +0.000 A 
ATOM     19  C   UNL     1      46.632   6.676  12.094  0.00  0.00    +0.000 A 
ATOM     20  C   UNL     1      45.521   6.200  11.393  0.00  0.00    +0.000 A 
ATOM     21  C   UNL     1      44.809   5.086  11.855  0.00  0.00    +0.000 A 
ATOM     22  C   UNL     1      45.209   4.484  13.054  0.00  0.00    +0.000 A 
ATOM     23  C   UNL     1      46.317   4.961  13.761  0.00  0.00    +0.000 A 
BRANCH  21  24
ATOM     24  C   UNL     1      43.627   4.537  11.097  0.00  0.00    +0.000 C 
BRANCH  24  25
ATOM     25  S   UNL     1      43.944   4.223   9.331  0.00  0.00    +0.000 S 
BRANCH  25  26
ATOM     26  C   UNL     1      44.727   2.568   9.389  0.00  0.00    +0.000 C 
BRANCH  26  27
ATOM     27  C   UNL     1      45.735   2.432   8.264  0.00  0.00    +0.000 A 
ATOM     28  C   UNL     1      45.955   3.473   7.347  0.00  0.00    +0.000 A 
ATOM     29  C   UNL     1      46.857   3.316   6.290  0.00  0.00    +0.000 A 
ATOM     30  C   UNL     1      47.545   2.114   6.131  0.00  0.00    +0.000 A 
ATOM     31  C   UNL     1      47.333   1.072   7.031  0.00  0.00    +0.000 A 
ATOM     32  C   UNL     1      46.433   1.228   8.088  0.00  0.00    +0.000 A 
ENDBRANCH  26  27
ENDBRANCH  25  26
ENDBRANCH  24  25
ENDBRANCH  21  24
ENDBRANCH  17  18
ENDBRANCH   3  17
TORSDOF 8
ENDMDL
MODEL 3
REMARK VINA RESULT:    -7.720      4.106      9.624
REMARK INTER + INTRA:         -12.094
REMARK INTER:                  -9.773
REMARK INTRA:                  -2.321
REMARK UNBOUND:                -0.989
REMARK  Name = 
REMARK  9 active torsions:
REMARK  status: ('A' for Active; 'I' for Inactive)
REMARK    1  A    between atoms: C_1  and  N_2
REMARK    2  A    between atoms: C_4  and  C_5
REMARK    3  A    between atoms: N_7  and  C_8
REMARK    4  A    between atoms: C_8  and  C_9
REMARK    5  A    between atoms: C_12  and  C_13
REMARK    6  A    between atoms: C_13  and  S_14
REMARK    7  A    between atoms: S_14  and  C_15
REMARK    8  A    between atoms: C_15  and  C_16
REMARK    9  A    between atoms: C_25  and  O_26
REMARK                            x       y       z     vdW  Elec       q    Type
REMARK                         _______ _______ _______ _____ _____    ______ ____
ROOT
ATOM      1  C   UNL     1      46.830   4.139  14.420  0.00  0.00    +0.000 C 
ATOM      2  O   UNL     1      47.356   3.138  13.939  0.00  0.00    +0.000 OA
ATOM      3  N   UNL     1      46.821   4.410  15.763  0.00  0.00    +0.000 N 
ATOM      4  H   UNL     1      46.362   5.237  16.112  0.00  0.00    +0.000 HD
ENDROOT
BRANCH   1   8
ATOM      5  C   UNL     1      45.562   8.432  12.185  0.00  0.00    +0.000 C 
ATOM      6  N   UNL     1      45.590   7.039  12.565  0.00  0.00    +0.000 N 
ATOM      7  C   UNL     1      46.446   6.489  13.482  0.00  0.00    +0.000 A 
ATOM      8  C   UNL     1      46.171   5.124  13.577  0.00  0.00    +0.000 A 
ATOM      9  C   UNL     1      45.095   4.867  12.665  0.00  0.00    +0.000 A 
ATOM     10  C   UNL     1      44.341   3.758  12.262  0.00  0.00    +0.000 A 
ATOM     11  N   UNL     1      43.370   3.895  11.343  0.00  0.00    +0.000 NA
ATOM     12  C   UNL     1      43.158   5.125  10.843  0.00  0.00    +0.000 A 
ATOM     13  N   UNL     1      43.803   6.267  11.142  0.00  0.00    +0.000 NA
ATOM     14  C   UNL     1      44.761   6.071  12.061  0.00  0.00    +0.000 A 
BRANCH  10  15
ATOM     15  O   UNL     1      44.517   2.484  12.741  0.00  0.00    +0.000 OA
ATOM     16  H   UNL     1      45.270   2.498  13.366  0.00  0.00    +0.000 HD
ENDBRANCH  10  15
ENDBRANCH   1   8
BRANCH   3  17
ATOM     17  C   UNL     1      47.427   3.509  16.707  0.00  0.00    +0.000 C 
BRANCH  17  18
ATOM     18  C   UNL     1      48.829   3.932  17.052  0.00  0.00    +0.000 A 
ATOM     19  C   UNL     1      49.182   5.279  16.940  0.00  0.00    +0.000 A 
ATOM     20  C   UNL     1      50.471   5.707  17.269  0.00  0.00    +0.000 A 
ATOM     21  C   UNL     1      51.432   4.794  17.719  0.00  0.00    +0.000 A 
ATOM     22  C   UNL     1      51.089   3.439  17.794  0.00  0.00    +0.000 A 
ATOM     23  C   UNL     1      49.802   3.006  17.460  0.00  0.00    +0.000 A 
BRANCH  21  24
ATOM     24  C   UNL     1      52.819   5.240  18.111  0.00  0.00    +0.000 C 
BRANCH  24  25
ATOM     25  S   UNL     1      52.860   6.667  19.242  0.00  0.00    +0.000 S 
BRANCH  25  26
ATOM     26  C   UNL     1      52.224   5.923  20.791  0.00  0.00    +0.000 C 
BRANCH  26  27
ATOM     27  C   UNL     1      50.708   5.929  20.785  0.00  0.00    +0.000 A 
ATOM     28  C   UNL     1      49.969   4.763  21.048  0.00  0.00    +0.000 A 
ATOM     29  C   UNL     1      48.571   4.776  20.997  0.00  0.00    +0.000 A 
ATOM     30  C   UNL     1      47.894   5.951  20.674  0.00  0.00    +0.000 A 
ATOM     31  C   UNL     1      48.614   7.113  20.406  0.00  0.00    +0.000 A 
ATOM     32  C   UNL     1      50.011   7.102  20.459  0.00  0.00    +0.000 A 
ENDBRANCH  26  27
ENDBRANCH  25  26
ENDBRANCH  24  25
ENDBRANCH  21  24
ENDBRANCH  17  18
ENDBRANCH   3  17
TORSDOF 8
ENDMDL
MODEL 4
REMARK VINA RESULT:    -7.330      4.107      8.819
REMARK INTER + INTRA:         -11.534
REMARK INTER:                  -9.187
REMARK INTRA:                  -2.347
REMARK UNBOUND:                -0.989
REMARK  Name = 
REMARK  9 active torsions:
REMARK  status: ('A' for Active; 'I' for Inactive)
REMARK    1  A    between atoms: C_1  and  N_2
REMARK    2  A    between atoms: C_4  and  C_5
REMARK    3  A    between atoms: N_7  and  C_8
REMARK    4  A    between atoms: C_8  and  C_9
REMARK    5  A    between atoms: C_12  and  C_13
REMARK    6  A    between atoms: C_13  and  S_14
REMARK    7  A    between atoms: S_14  and  C_15
REMARK    8  A    between atoms: C_15  and  C_16
REMARK    9  A    between atoms: C_25  and  O_26
REMARK                            x       y       z     vdW  Elec       q    Type
REMARK                         _______ _______ _______ _____ _____    ______ ____
ROOT
ATOM      1  C   UNL     1      46.848   4.130  14.327  0.00  0.00    +0.000 C 
ATOM      2  O   UNL     1      47.369   3.150  13.801  0.00  0.00    +0.000 OA
ATOM      3  N   UNL     1      46.883   4.365  15.677  0.00  0.00    +0.000 N 
ATOM      4  H   UNL     1      46.426   5.176  16.063  0.00  0.00    +0.000 HD
ENDROOT
BRANCH   1   8
ATOM      5  C   UNL     1      45.458   8.460  12.240  0.00  0.00    +0.000 C 
ATOM      6  N   UNL     1      45.512   7.059  12.589  0.00  0.00    +0.000 N 
ATOM      7  C   UNL     1      46.410   6.496  13.456  0.00  0.00    +0.000 A 
ATOM      8  C   UNL     1      46.147   5.128  13.534  0.00  0.00    +0.000 A 
ATOM      9  C   UNL     1      45.034   4.882  12.665  0.00  0.00    +0.000 A 
ATOM     10  C   UNL     1      44.269   3.777  12.272  0.00  0.00    +0.000 A 
ATOM     11  N   UNL     1      43.258   3.927  11.400  0.00  0.00    +0.000 NA
ATOM     12  C   UNL     1      43.017   5.165  10.936  0.00  0.00    +0.000 A 
ATOM     13  N   UNL     1      43.668   6.305  11.230  0.00  0.00    +0.000 NA
ATOM     14  C   UNL     1      44.667   6.096  12.102  0.00  0.00    +0.000 A 
BRANCH  10  15
ATOM     15  O   UNL     1      44.473   2.495  12.716  0.00  0.00    +0.000 OA
ATOM     16  H   UNL     1      45.258   2.137  12.254  0.00  0.00    +0.000 HD
ENDBRANCH  10  15
ENDBRANCH   1   8
BRANCH   3  17
ATOM     17  C   UNL     1      47.533   3.448  16.574  0.00  0.00    +0.000 C 
BRANCH  17  18
ATOM     18  C   UNL     1      48.353   4.174  17.606  0.00  0.00    +0.000 A 
ATOM     19  C   UNL     1      47.711   5.015  18.518  0.00  0.00    +0.000 A 
ATOM     20  C   UNL     1      48.441   5.690  19.500  0.00  0.00    +0.000 A 
ATOM     21  C   UNL     1      49.829   5.533  19.590  0.00  0.00    +0.000 A 
ATOM     22  C   UNL     1      50.476   4.721  18.652  0.00  0.00    +0.000 A 
ATOM     23  C   UNL     1      49.750   4.049  17.664  0.00  0.00    +0.000 A 
BRANCH  21  24
ATOM     24  C   UNL     1      50.632   6.227  20.662  0.00  0.00    +0.000 C 
BRANCH  24  25
ATOM     25  S   UNL     1      51.855   7.422  20.034  0.00  0.00    +0.000 S 
BRANCH  25  26
ATOM     26  C   UNL     1      50.777   8.640  19.192  0.00  0.00    +0.000 C 
BRANCH  26  27
ATOM     27  C   UNL     1      50.442   8.157  17.794  0.00  0.00    +0.000 A 
ATOM     28  C   UNL     1      51.431   7.637  16.941  0.00  0.00    +0.000 A 
ATOM     29  C   UNL     1      51.112   7.235  15.640  0.00  0.00    +0.000 A 
ATOM     30  C   UNL     1      49.804   7.354  15.172  0.00  0.00    +0.000 A 
ATOM     31  C   UNL     1      48.816   7.872  16.005  0.00  0.00    +0.000 A 
ATOM     32  C   UNL     1      49.132   8.272  17.306  0.00  0.00    +0.000 A 
ENDBRANCH  26  27
ENDBRANCH  25  26
ENDBRANCH  24  25
ENDBRANCH  21  24
ENDBRANCH  17  18
ENDBRANCH   3  17
TORSDOF 8
ENDMDL
MODEL 5
REMARK VINA RESULT:    -7.153      1.640      2.310
REMARK INTER + INTRA:         -11.279
REMARK INTER:                 -10.345
REMARK INTRA:                  -0.934
REMARK UNBOUND:                -0.989
REMARK  Name = 
REMARK  9 active torsions:
REMARK  status: ('A' for Active; 'I' for Inactive)
REMARK    1  A    between atoms: C_1  and  N_2
REMARK    2  A    between atoms: C_4  and  C_5
REMARK    3  A    between atoms: N_7  and  C_8
REMARK    4  A    between atoms: C_8  and  C_9
REMARK    5  A    between atoms: C_12  and  C_13
REMARK    6  A    between atoms: C_13  and  S_14
REMARK    7  A    between atoms: S_14  and  C_15
REMARK    8  A    between atoms: C_15  and  C_16
REMARK    9  A    between atoms: C_25  and  O_26
REMARK                            x       y       z     vdW  Elec       q    Type
REMARK                         _______ _______ _______ _____ _____    ______ ____
ROOT
ATOM      1  C   UNL     1      48.899   7.735  16.236  0.00  0.00    +0.000 C 
ATOM      2  O   UNL     1      48.318   8.720  16.683  0.00  0.00    +0.000 OA
ATOM      3  N   UNL     1      49.018   7.478  14.894  0.00  0.00    +0.000 N 
ATOM      4  H   UNL     1      49.491   6.647  14.576  0.00  0.00    +0.000 HD
ENDROOT
BRANCH   1   8
ATOM      5  C   UNL     1      52.070   4.402  18.202  0.00  0.00    +0.000 C 
ATOM      6  N   UNL     1      50.925   5.262  18.015  0.00  0.00    +0.000 N 
ATOM      7  C   UNL     1      50.727   6.088  16.941  0.00  0.00    +0.000 A 
ATOM      8  C   UNL     1      49.515   6.757  17.118  0.00  0.00    +0.000 A 
ATOM      9  C   UNL     1      48.979   6.293  18.364  0.00  0.00    +0.000 A 
ATOM     10  C   UNL     1      47.835   6.530  19.136  0.00  0.00    +0.000 A 
ATOM     11  N   UNL     1      47.658   5.887  20.302  0.00  0.00    +0.000 NA
ATOM     12  C   UNL     1      48.610   5.019  20.684  0.00  0.00    +0.000 A 
ATOM     13  N   UNL     1      49.748   4.699  20.043  0.00  0.00    +0.000 NA
ATOM     14  C   UNL     1      49.874   5.370  18.887  0.00  0.00    +0.000 A 
BRANCH  10  15
ATOM     15  O   UNL     1      46.834   7.404  18.792  0.00  0.00    +0.000 OA
ATOM     16  H   UNL     1      46.633   7.273  17.843  0.00  0.00    +0.000 HD
ENDBRANCH  10  15
ENDBRANCH   1   8
BRANCH   3  17
ATOM     17  C   UNL     1      48.442   8.360  13.915  0.00  0.00    +0.000 C 
BRANCH  17  18
ATOM     18  C   UNL     1      47.324   7.692  13.161  0.00  0.00    +0.000 A 
ATOM     19  C   UNL     1      47.540   6.434  12.594  0.00  0.00    +0.000 A 
ATOM     20  C   UNL     1      46.517   5.779  11.903  0.00  0.00    +0.000 A 
ATOM     21  C   UNL     1      45.256   6.371  11.768  0.00  0.00    +0.000 A 
ATOM     22  C   UNL     1      45.052   7.648  12.303  0.00  0.00    +0.000 A 
ATOM     23  C   UNL     1      46.075   8.309  12.990  0.00  0.00    +0.000 A 
BRANCH  21  24
ATOM     24  C   UNL     1      44.128   5.668  11.054  0.00  0.00    +0.000 C 
BRANCH  24  25
ATOM     25  S   UNL     1      44.487   3.941  10.597  0.00  0.00    +0.000 S 
BRANCH  25  26
ATOM     26  C   UNL     1      44.452   4.032   8.768  0.00  0.00    +0.000 C 
BRANCH  26  27
ATOM     27  C   UNL     1      45.561   3.179   8.186  0.00  0.00    +0.000 A 
ATOM     28  C   UNL     1      46.520   3.719   7.310  0.00  0.00    +0.000 A 
ATOM     29  C   UNL     1      47.512   2.908   6.749  0.00  0.00    +0.000 A 
ATOM     30  C   UNL     1      47.555   1.547   7.047  0.00  0.00    +0.000 A 
ATOM     31  C   UNL     1      46.609   0.998   7.909  0.00  0.00    +0.000 A 
ATOM     32  C   UNL     1      45.618   1.807   8.473  0.00  0.00    +0.000 A 
ENDBRANCH  26  27
ENDBRANCH  25  26
ENDBRANCH  24  25
ENDBRANCH  21  24
ENDBRANCH  17  18
ENDBRANCH   3  17
TORSDOF 8
ENDMDL
MODEL 6
REMARK VINA RESULT:    -7.093      4.194      8.206
REMARK INTER + INTRA:         -11.193
REMARK INTER:                  -8.931
REMARK INTRA:                  -2.262
REMARK UNBOUND:                -0.989
REMARK  Name = 
REMARK  9 active torsions:
REMARK  status: ('A' for Active; 'I' for Inactive)
REMARK    1  A    between atoms: C_1  and  N_2
REMARK    2  A    between atoms: C_4  and  C_5
REMARK    3  A    between atoms: N_7  and  C_8
REMARK    4  A    between atoms: C_8  and  C_9
REMARK    5  A    between atoms: C_12  and  C_13
REMARK    6  A    between atoms: C_13  and  S_14
REMARK    7  A    between atoms: S_14  and  C_15
REMARK    8  A    between atoms: C_15  and  C_16
REMARK    9  A    between atoms: C_25  and  O_26
REMARK                            x       y       z     vdW  Elec       q    Type
REMARK                         _______ _______ _______ _____ _____    ______ ____
ROOT
ATOM      1  C   UNL     1      47.750   6.385  13.126  0.00  0.00    +0.000 C 
ATOM      2  O   UNL     1      48.114   5.221  13.271  0.00  0.00    +0.000 OA
ATOM      3  N   UNL     1      48.522   7.462  13.475  0.00  0.00    +0.000 N 
ATOM      4  H   UNL     1      48.173   8.400  13.352  0.00  0.00    +0.000 HD
ENDROOT
BRANCH   1   8
ATOM      5  C   UNL     1      43.922   8.827  11.024  0.00  0.00    +0.000 C 
ATOM      6  N   UNL     1      44.723   7.782  11.619  0.00  0.00    +0.000 N 
ATOM      7  C   UNL     1      46.014   7.928  12.052  0.00  0.00    +0.000 A 
ATOM      8  C   UNL     1      46.448   6.704  12.561  0.00  0.00    +0.000 A 
ATOM      9  C   UNL     1      45.348   5.796  12.418  0.00  0.00    +0.000 A 
ATOM     10  C   UNL     1      45.088   4.451  12.709  0.00  0.00    +0.000 A 
ATOM     11  N   UNL     1      43.891   3.914  12.422  0.00  0.00    +0.000 NA
ATOM     12  C   UNL     1      42.970   4.714  11.857  0.00  0.00    +0.000 A 
ATOM     13  N   UNL     1      43.086   6.013  11.529  0.00  0.00    +0.000 NA
ATOM     14  C   UNL     1      44.301   6.497  11.836  0.00  0.00    +0.000 A 
BRANCH  10  15
ATOM     15  O   UNL     1      45.992   3.593  13.284  0.00  0.00    +0.000 OA
ATOM     16  H   UNL     1      45.866   3.630  14.254  0.00  0.00    +0.000 HD
ENDBRANCH  10  15
ENDBRANCH   1   8
BRANCH   3  17
ATOM     17  C   UNL     1      49.826   7.284  14.057  0.00  0.00    +0.000 C 
BRANCH  17  18
ATOM     18  C   UNL     1      49.763   7.285  15.561  0.00  0.00    +0.000 A 
ATOM     19  C   UNL     1      48.727   7.970  16.200  0.00  0.00    +0.000 A 
ATOM     20  C   UNL     1      48.631   7.975  17.594  0.00  0.00    +0.000 A 
ATOM     21  C   UNL     1      49.570   7.293  18.376  0.00  0.00    +0.000 A 
ATOM     22  C   UNL     1      50.629   6.640  17.736  0.00  0.00    +0.000 A 
ATOM     23  C   UNL     1      50.733   6.637  16.342  0.00  0.00    +0.000 A 
BRANCH  21  24
ATOM     24  C   UNL     1      49.466   7.259  19.880  0.00  0.00    +0.000 C 
BRANCH  24  25
ATOM     25  S   UNL     1      48.064   6.286  20.517  0.00  0.00    +0.000 S 
BRANCH  25  26
ATOM     26  C   UNL     1      48.669   4.574  20.280  0.00  0.00    +0.000 C 
BRANCH  26  27
ATOM     27  C   UNL     1      48.425   4.131  18.851  0.00  0.00    +0.000 A 
ATOM     28  C   UNL     1      47.323   4.599  18.115  0.00  0.00    +0.000 A 
ATOM     29  C   UNL     1      47.089   4.148  16.812  0.00  0.00    +0.000 A 
ATOM     30  C   UNL     1      47.948   3.218  16.230  0.00  0.00    +0.000 A 
ATOM     31  C   UNL     1      49.041   2.741  16.949  0.00  0.00    +0.000 A 
ATOM     32  C   UNL     1      49.277   3.193  18.250  0.00  0.00    +0.000 A 
ENDBRANCH  26  27
ENDBRANCH  25  26
ENDBRANCH  24  25
ENDBRANCH  21  24
ENDBRANCH  17  18
ENDBRANCH   3  17
TORSDOF 8
ENDMDL
MODEL 7
REMARK VINA RESULT:    -6.683      2.371      3.066
REMARK INTER + INTRA:         -10.602
REMARK INTER:                  -9.245
REMARK INTRA:                  -1.358
REMARK UNBOUND:                -0.989
REMARK  Name = 
REMARK  9 active torsions:
REMARK  status: ('A' for Active; 'I' for Inactive)
REMARK    1  A    between atoms: C_1  and  N_2
REMARK    2  A    between atoms: C_4  and  C_5
REMARK    3  A    between atoms: N_7  and  C_8
REMARK    4  A    between atoms: C_8  and  C_9
REMARK    5  A    between atoms: C_12  and  C_13
REMARK    6  A    between atoms: C_13  and  S_14
REMARK    7  A    between atoms: S_14  and  C_15
REMARK    8  A    between atoms: C_15  and  C_16
REMARK    9  A    between atoms: C_25  and  O_26
REMARK                            x       y       z     vdW  Elec       q    Type
REMARK                         _______ _______ _______ _____ _____    ______ ____
ROOT
ATOM      1  C   UNL     1      50.127   9.426  14.399  0.00  0.00    +0.000 C 
ATOM      2  O   UNL     1      49.429  10.389  14.702  0.00  0.00    +0.000 OA
ATOM      3  N   UNL     1      50.056   8.801  13.181  0.00  0.00    +0.000 N 
ATOM      4  H   UNL     1      50.639   8.002  12.985  0.00  0.00    +0.000 HD
ENDROOT
BRANCH   1   8
ATOM      5  C   UNL     1      54.121   8.851  17.356  0.00  0.00    +0.000 C 
ATOM      6  N   UNL     1      52.880   8.600  16.662  0.00  0.00    +0.000 N 
ATOM      7  C   UNL     1      52.270   9.467  15.796  0.00  0.00    +0.000 A 
ATOM      8  C   UNL     1      51.097   8.874  15.331  0.00  0.00    +0.000 A 
ATOM      9  C   UNL     1      51.021   7.587  15.961  0.00  0.00    +0.000 A 
ATOM     10  C   UNL     1      50.143   6.497  15.954  0.00  0.00    +0.000 A 
ATOM     11  N   UNL     1      50.402   5.412  16.703  0.00  0.00    +0.000 NA
ATOM     12  C   UNL     1      51.525   5.421  17.441  0.00  0.00    +0.000 A 
ATOM     13  N   UNL     1      52.449   6.394  17.538  0.00  0.00    +0.000 NA
ATOM     14  C   UNL     1      52.138   7.453  16.772  0.00  0.00    +0.000 A 
BRANCH  10  15
ATOM     15  O   UNL     1      48.986   6.437  15.219  0.00  0.00    +0.000 OA
ATOM     16  H   UNL     1      49.122   6.955  14.400  0.00  0.00    +0.000 HD
ENDBRANCH  10  15
ENDBRANCH   1   8
BRANCH   3  17
ATOM     17  C   UNL     1      49.129   9.240  12.173  0.00  0.00    +0.000 C 
BRANCH  17  18
ATOM     18  C   UNL     1      47.863   8.427  12.196  0.00  0.00    +0.000 A 
ATOM     19  C   UNL     1      47.835   7.190  11.549  0.00  0.00    +0.000 A 
ATOM     20  C   UNL     1      46.681   6.403  11.567  0.00  0.00    +0.000 A 
ATOM     21  C   UNL     1      45.531   6.839  12.236  0.00  0.00    +0.000 A 
ATOM     22  C   UNL     1      45.548   8.096  12.851  0.00  0.00    +0.000 A 
ATOM     23  C   UNL     1      46.699   8.889  12.830  0.00  0.00    +0.000 A 
BRANCH  21  24
ATOM     24  C   UNL     1      44.285   5.991  12.296  0.00  0.00    +0.000 C 
BRANCH  24  25
ATOM     25  S   UNL     1      44.561   4.222  11.960  0.00  0.00    +0.000 S 
BRANCH  25  26
ATOM     26  C   UNL     1      43.817   4.045  10.295  0.00  0.00    +0.000 C 
BRANCH  26  27
ATOM     27  C   UNL     1      44.849   3.514   9.320  0.00  0.00    +0.000 A 
ATOM     28  C   UNL     1      45.557   4.374   8.461  0.00  0.00    +0.000 A 
ATOM     29  C   UNL     1      46.475   3.864   7.538  0.00  0.00    +0.000 A 
ATOM     30  C   UNL     1      46.693   2.490   7.454  0.00  0.00    +0.000 A 
ATOM     31  C   UNL     1      45.995   1.627   8.294  0.00  0.00    +0.000 A 
ATOM     32  C   UNL     1      45.078   2.134   9.219  0.00  0.00    +0.000 A 
ENDBRANCH  26  27
ENDBRANCH  25  26
ENDBRANCH  24  25
ENDBRANCH  21  24
ENDBRANCH  17  18
ENDBRANCH   3  17
TORSDOF 8
ENDMDL
MODEL 8
REMARK VINA RESULT:    -6.382      4.059      8.803
REMARK INTER + INTRA:         -10.169
REMARK INTER:                  -7.532
REMARK INTRA:                  -2.637
REMARK UNBOUND:                -0.989
REMARK  Name = 
REMARK  9 active torsions:
REMARK  status: ('A' for Active; 'I' for Inactive)
REMARK    1  A    between atoms: C_1  and  N_2
REMARK    2  A    between atoms: C_4  and  C_5
REMARK    3  A    between atoms: N_7  and  C_8
REMARK    4  A    between atoms: C_8  and  C_9
REMARK    5  A    between atoms: C_12  and  C_13
REMARK    6  A    between atoms: C_13  and  S_14
REMARK    7  A    between atoms: S_14  and  C_15
REMARK    8  A    between atoms: C_15  and  C_16
REMARK    9  A    between atoms: C_25  and  O_26
REMARK                            x       y       z     vdW  Elec       q    Type
REMARK                         _______ _______ _______ _____ _____    ______ ____
ROOT
ATOM      1  C   UNL     1      48.367   7.246  14.374  0.00  0.00    +0.000 C 
ATOM      2  O   UNL     1      49.544   6.908  14.287  0.00  0.00    +0.000 OA
ATOM      3  N   UNL     1      47.945   8.311  15.128  0.00  0.00    +0.000 N 
ATOM      4  H   UNL     1      46.965   8.540  15.181  0.00  0.00    +0.000 HD
ENDROOT
BRANCH   1   8
ATOM      5  C   UNL     1      45.479   3.592  12.546  0.00  0.00    +0.000 C 
ATOM      6  N   UNL     1      46.015   4.901  12.840  0.00  0.00    +0.000 N 
ATOM      7  C   UNL     1      47.117   5.146  13.614  0.00  0.00    +0.000 A 
ATOM      8  C   UNL     1      47.320   6.525  13.667  0.00  0.00    +0.000 A 
ATOM      9  C   UNL     1      46.278   7.115  12.878  0.00  0.00    +0.000 A 
ATOM     10  C   UNL     1      45.884   8.407  12.507  0.00  0.00    +0.000 A 
ATOM     11  N   UNL     1      44.808   8.589  11.723  0.00  0.00    +0.000 NA
ATOM     12  C   UNL     1      44.143   7.494  11.317  0.00  0.00    +0.000 A 
ATOM     13  N   UNL     1      44.413   6.206  11.596  0.00  0.00    +0.000 NA
ATOM     14  C   UNL     1      45.494   6.083  12.382  0.00  0.00    +0.000 A 
BRANCH  10  15
ATOM     15  O   UNL     1      46.527   9.555  12.893  0.00  0.00    +0.000 OA
ATOM     16  H   UNL     1      46.003  10.317  12.572  0.00  0.00    +0.000 HD
ENDBRANCH  10  15
ENDBRANCH   1   8
BRANCH   3  17
ATOM     17  C   UNL     1      48.878   9.099  15.887  0.00  0.00    +0.000 C 
BRANCH  17  18
ATOM     18  C   UNL     1      48.898   8.689  17.335  0.00  0.00    +0.000 A 
ATOM     19  C   UNL     1      50.113   8.344  17.929  0.00  0.00    +0.000 A 
ATOM     20  C   UNL     1      50.168   7.975  19.276  0.00  0.00    +0.000 A 
ATOM     21  C   UNL     1      49.005   7.946  20.055  0.00  0.00    +0.000 A 
ATOM     22  C   UNL     1      47.782   8.255  19.448  0.00  0.00    +0.000 A 
ATOM     23  C   UNL     1      47.723   8.618  18.099  0.00  0.00    +0.000 A 
BRANCH  21  24
ATOM     24  C   UNL     1      49.046   7.583  21.518  0.00  0.00    +0.000 C 
BRANCH  24  25
ATOM     25  S   UNL     1      48.043   6.128  21.962  0.00  0.00    +0.000 S 
BRANCH  25  26
ATOM     26  C   UNL     1      49.063   4.762  21.291  0.00  0.00    +0.000 C 
BRANCH  26  27
ATOM     27  C   UNL     1      48.905   4.688  19.785  0.00  0.00    +0.000 A 
ATOM     28  C   UNL     1      50.014   4.515  18.939  0.00  0.00    +0.000 A 
ATOM     29  C   UNL     1      49.856   4.491  17.550  0.00  0.00    +0.000 A 
ATOM     30  C   UNL     1      48.590   4.648  16.987  0.00  0.00    +0.000 A 
ATOM     31  C   UNL     1      47.483   4.825  17.814  0.00  0.00    +0.000 A 
ATOM     32  C   UNL     1      47.639   4.847  19.202  0.00  0.00    +0.000 A 
ENDBRANCH  26  27
ENDBRANCH  25  26
ENDBRANCH  24  25
ENDBRANCH  21  24
ENDBRANCH  17  18
ENDBRANCH   3  17
TORSDOF 8
ENDMDL
MODEL 9
REMARK VINA RESULT:    -5.883      4.569      8.272
REMARK INTER + INTRA:          -9.451
REMARK INTER:                  -7.295
REMARK INTRA:                  -2.156
REMARK UNBOUND:                -0.989
REMARK  Name = 
REMARK  9 active torsions:
REMARK  status: ('A' for Active; 'I' for Inactive)
REMARK    1  A    between atoms: C_1  and  N_2
REMARK    2  A    between atoms: C_4  and  C_5
REMARK    3  A    between atoms: N_7  and  C_8
REMARK    4  A    between atoms: C_8  and  C_9
REMARK    5  A    between atoms: C_12  and  C_13
REMARK    6  A    between atoms: C_13  and  S_14
REMARK    7  A    between atoms: S_14  and  C_15
REMARK    8  A    between atoms: C_15  and  C_16
REMARK    9  A    between atoms: C_25  and  O_26
REMARK                            x       y       z     vdW  Elec       q    Type
REMARK                         _______ _______ _______ _____ _____    ______ ____
ROOT
ATOM      1  C   UNL     1      47.367   6.377  13.623  0.00  0.00    +0.000 C 
ATOM      2  O   UNL     1      47.838   5.417  14.227  0.00  0.00    +0.000 OA
ATOM      3  N   UNL     1      47.976   7.604  13.572  0.00  0.00    +0.000 N 
ATOM      4  H   UNL     1      47.542   8.367  13.077  0.00  0.00    +0.000 HD
ENDROOT
BRANCH   1   8
ATOM      5  C   UNL     1      43.210   7.505  11.078  0.00  0.00    +0.000 C 
ATOM      6  N   UNL     1      44.240   6.760  11.763  0.00  0.00    +0.000 N 
ATOM      7  C   UNL     1      45.350   7.305  12.350  0.00  0.00    +0.000 A 
ATOM      8  C   UNL     1      46.107   6.272  12.905  0.00  0.00    +0.000 A 
ATOM      9  C   UNL     1      45.396   5.059  12.626  0.00  0.00    +0.000 A 
ATOM     10  C   UNL     1      45.568   3.692  12.879  0.00  0.00    +0.000 A 
ATOM     11  N   UNL     1      44.659   2.803  12.447  0.00  0.00    +0.000 NA
ATOM     12  C   UNL     1      43.595   3.277  11.777  0.00  0.00    +0.000 A 
ATOM     13  N   UNL     1      43.308   4.555  11.470  0.00  0.00    +0.000 NA
ATOM     14  C   UNL     1      44.249   5.399  11.923  0.00  0.00    +0.000 A 
BRANCH  10  15
ATOM     15  O   UNL     1      46.634   3.157  13.557  0.00  0.00    +0.000 OA
ATOM     16  H   UNL     1      47.380   3.787  13.491  0.00  0.00    +0.000 HD
ENDBRANCH  10  15
ENDBRANCH   1   8
BRANCH   3  17
ATOM     17  C   UNL     1      49.221   7.845  14.252  0.00  0.00    +0.000 C 
BRANCH  17  18
ATOM     18  C   UNL     1      50.347   8.063  13.278  0.00  0.00    +0.000 A 
ATOM     19  C   UNL     1      50.117   7.870  11.914  0.00  0.00    +0.000 A 
ATOM     20  C   UNL     1      51.137   8.082  10.983  0.00  0.00    +0.000 A 
ATOM     21  C   UNL     1      52.409   8.493  11.399  0.00  0.00    +0.000 A 
ATOM     22  C   UNL     1      52.649   8.649  12.769  0.00  0.00    +0.000 A 
ATOM     23  C   UNL     1      51.633   8.433  13.705  0.00  0.00    +0.000 A 
BRANCH  21  24
ATOM     24  C   UNL     1      53.514   8.759  10.408  0.00  0.00    +0.000 C 
BRANCH  24  25
ATOM     25  S   UNL     1      53.170  10.114   9.241  0.00  0.00    +0.000 S 
BRANCH  25  26
ATOM     26  C   UNL     1      52.976  11.537  10.378  0.00  0.00    +0.000 C 
BRANCH  26  27
ATOM     27  C   UNL     1      51.534  11.643  10.834  0.00  0.00    +0.000 A 
ATOM     28  C   UNL     1      51.205  11.878  12.180  0.00  0.00    +0.000 A 
ATOM     29  C   UNL     1      49.869  11.931  12.591  0.00  0.00    +0.000 A 
ATOM     30  C   UNL     1      48.845  11.744  11.664  0.00  0.00    +0.000 A 
ATOM     31  C   UNL     1      49.156  11.506  10.327  0.00  0.00    +0.000 A 
ATOM     32  C   UNL     1      50.490  11.454   9.916  0.00  0.00    +0.000 A 
ENDBRANCH  26  27
ENDBRANCH  25  26
ENDBRANCH  24  25
ENDBRANCH  21  24
ENDBRANCH  17  18
ENDBRANCH   3  17
TORSDOF 8
ENDMDL
