MODEL 1
REMARK VINA RESULT:    -8.268      0.000      0.000
REMARK INTER + INTRA:         -12.302
REMARK INTER:                 -11.168
REMARK INTRA:                  -1.133
REMARK UNBOUND:                -1.133
REMARK  Name = 
REMARK  7 active torsions:
REMARK  status: ('A' for Active; 'I' for Inactive)
REMARK    1  A    between atoms: C_1  and  C_2
REMARK    2  A    between atoms: C_6  and  C_7
REMARK    3  A    between atoms: N_9  and  C_10
REMARK    4  A    between atoms: C_10  and  C_11
REMARK    5  A    between atoms: C_14  and  C_15
REMARK    6  A    between atoms: C_15  and  N_16
REMARK    7  A    between atoms: C_17  and  C_19
REMARK                            x       y       z     vdW  Elec       q    Type
REMARK                         _______ _______ _______ _____ _____    ______ ____
ROOT
ATOM      1  C   UNL     1      44.868   6.194  11.106  0.00  0.00    +0.000 A 
ATOM      2  C   UNL     1      46.166   5.771  11.422  0.00  0.00    +0.000 A 
ATOM      3  C   UNL     1      46.979   6.523  12.281  0.00  0.00    +0.000 A 
ATOM      4  C   UNL     1      46.503   7.707  12.860  0.00  0.00    +0.000 A 
ATOM      5  C   UNL     1      45.209   8.137  12.534  0.00  0.00    +0.000 A 
ATOM      6  C   UNL     1      44.395   7.383  11.678  0.00  0.00    +0.000 A 
ENDROOT
BRANCH   1   7
ATOM      7  C   UNL     1      44.017   5.406  10.143  0.00  0.00    +0.000 C 
BRANCH   7  10
ATOM      8  C   UNL     1      44.715   3.188   9.363  0.00  0.00    +0.000 C 
ATOM      9  O   UNL     1      44.026   2.609  10.198  0.00  0.00    +0.000 OA
ATOM     10  N   UNL     1      44.777   4.565   9.255  0.00  0.00    +0.000 N 
ATOM     11  H   UNL     1      45.387   4.954   8.542  0.00  0.00    +0.000 HD
BRANCH   8  17
ATOM     12  C   UNL     1      47.373   2.997   5.117  0.00  0.00    +0.000 C 
ATOM     13  C   UNL     1      46.824   2.337   6.346  0.00  0.00    +0.000 A 
ATOM     14  C   UNL     1      47.070   0.991   6.622  0.00  0.00    +0.000 A 
ATOM     15  C   UNL     1      46.535   0.435   7.777  0.00  0.00    +0.000 A 
ATOM     16  N   UNL     1      45.777   1.110   8.664  0.00  0.00    +0.000 NA
ATOM     17  C   UNL     1      45.549   2.422   8.379  0.00  0.00    +0.000 A 
ATOM     18  C   UNL     1      46.042   3.067   7.246  0.00  0.00    +0.000 A 
ENDBRANCH   8  17
ENDBRANCH   7  10
ENDBRANCH   1   7
BRANCH   4  19
ATOM     19  C   UNL     1      47.354   8.516  13.809  0.00  0.00    +0.000 C 
BRANCH  19  20
ATOM     20  N   UNL     1      47.746   7.755  14.968  0.00  0.00    +0.000 N 
ATOM     21  C   UNL     1      49.002   7.210  15.071  0.00  0.00    +0.000 C 
ATOM     22  O   UNL     1      49.858   7.372  14.205  0.00  0.00    +0.000 OA
ATOM     23  H   UNL     1      46.998   7.387  15.548  0.00  0.00    +0.000 HD
BRANCH  21  24
ATOM     24  C   UNL     1      49.292   6.466  16.306  0.00  0.00    +0.000 A 
ATOM     25  C   UNL     1      50.266   6.929  17.182  0.00  0.00    +0.000 A 
ATOM     26  S   UNL     1      50.432   5.971  18.585  0.00  0.00    +0.000 S 
ATOM     27  C   UNL     1      49.248   4.876  18.044  0.00  0.00    +0.000 A 
ATOM     28  N   UNL     1      48.914   3.779  18.781  0.00  0.00    +0.000 NA
ATOM     29  C   UNL     1      48.020   3.024  18.233  0.00  0.00    +0.000 A 
ATOM     30  N   UNL     1      47.420   3.271  17.027  0.00  0.00    +0.000 N 
ATOM     31  C   UNL     1      47.703   4.379  16.267  0.00  0.00    +0.000 A 
ATOM     32  O   UNL     1      47.104   4.594  15.212  0.00  0.00    +0.000 OA
ATOM     33  C   UNL     1      48.714   5.252  16.825  0.00  0.00    +0.000 A 
ATOM     34  H   UNL     1      46.714   2.647  16.661  0.00  0.00    +0.000 HD
ENDBRANCH  21  24
ENDBRANCH  19  20
ENDBRANCH   4  19
TORSDOF 6
ENDMDL
MODEL 2
REMARK VINA RESULT:    -7.901      1.186      1.575
REMARK INTER + INTRA:         -11.806
REMARK INTER:                 -10.827
REMARK INTRA:                  -0.979
REMARK UNBOUND:                -1.133
REMARK  Name = 
REMARK  7 active torsions:
REMARK  status: ('A' for Active; 'I' for Inactive)
REMARK    1  A    between atoms: C_1  and  C_2
REMARK    2  A    between atoms: C_6  and  C_7
REMARK    3  A    between atoms: N_9  and  C_10
REMARK    4  A    between atoms: C_10  and  C_11
REMARK    5  A    between atoms: C_14  and  C_15
REMARK    6  A    between atoms: C_15  and  N_16
REMARK    7  A    between atoms: C_17  and  C_19
REMARK                            x       y       z     vdW  Elec       q    Type
REMARK                         _______ _______ _______ _____ _____    ______ ____
ROOT
ATOM      1  C   UNL     1      45.023   6.702  11.577  0.00  0.00    +0.000 A 
ATOM      2  C   UNL     1      46.035   6.077  12.318  0.00  0.00    +0.000 A 
ATOM      3  C   UNL     1      46.876   6.820  13.158  0.00  0.00    +0.000 A 
ATOM      4  C   UNL     1      46.709   8.205  13.291  0.00  0.00    +0.000 A 
ATOM      5  C   UNL     1      45.705   8.831  12.540  0.00  0.00    +0.000 A 
ATOM      6  C   UNL     1      44.863   8.088  11.703  0.00  0.00    +0.000 A 
ENDROOT
BRANCH   1   7
ATOM      7  C   UNL     1      44.155   5.903  10.638  0.00  0.00    +0.000 C 
BRANCH   7  10
ATOM      8  C   UNL     1      44.657   3.795   9.490  0.00  0.00    +0.000 C 
ATOM      9  O   UNL     1      43.816   3.173  10.131  0.00  0.00    +0.000 OA
ATOM     10  N   UNL     1      44.899   5.145   9.666  0.00  0.00    +0.000 N 
ATOM     11  H   UNL     1      45.626   5.571   9.099  0.00  0.00    +0.000 HD
BRANCH   8  17
ATOM     12  C   UNL     1      46.829  -0.328   7.641  0.00  0.00    +0.000 C 
ATOM     13  C   UNL     1      46.531   1.139   7.563  0.00  0.00    +0.000 A 
ATOM     14  C   UNL     1      47.017   1.927   6.518  0.00  0.00    +0.000 A 
ATOM     15  C   UNL     1      46.707   3.280   6.499  0.00  0.00    +0.000 A 
ATOM     16  N   UNL     1      45.963   3.902   7.436  0.00  0.00    +0.000 NA
ATOM     17  C   UNL     1      45.495   3.118   8.446  0.00  0.00    +0.000 A 
ATOM     18  C   UNL     1      45.754   1.752   8.550  0.00  0.00    +0.000 A 
ENDBRANCH   8  17
ENDBRANCH   7  10
ENDBRANCH   1   7
BRANCH   4  19
ATOM     19  C   UNL     1      47.587   9.017  14.211  0.00  0.00    +0.000 C 
BRANCH  19  20
ATOM     20  N   UNL     1      47.814   8.353  15.470  0.00  0.00    +0.000 N 
ATOM     21  C   UNL     1      49.082   8.185  15.968  0.00  0.00    +0.000 C 
ATOM     22  O   UNL     1      50.074   8.620  15.390  0.00  0.00    +0.000 OA
ATOM     23  H   UNL     1      47.064   7.764  15.817  0.00  0.00    +0.000 HD
BRANCH  21  24
ATOM     24  C   UNL     1      49.189   7.505  17.268  0.00  0.00    +0.000 A 
ATOM     25  C   UNL     1      49.596   8.216  18.390  0.00  0.00    +0.000 A 
ATOM     26  S   UNL     1      49.612   7.282  19.818  0.00  0.00    +0.000 S 
ATOM     27  C   UNL     1      49.129   5.885  18.976  0.00  0.00    +0.000 A 
ATOM     28  N   UNL     1      48.973   4.693  19.620  0.00  0.00    +0.000 NA
ATOM     29  C   UNL     1      48.629   3.716  18.848  0.00  0.00    +0.000 A 
ATOM     30  N   UNL     1      48.412   3.821  17.500  0.00  0.00    +0.000 N 
ATOM     31  C   UNL     1      48.527   5.008  16.818  0.00  0.00    +0.000 A 
ATOM     32  O   UNL     1      48.273   5.074  15.614  0.00  0.00    +0.000 OA
ATOM     33  C   UNL     1      48.930   6.136  17.632  0.00  0.00    +0.000 A 
ATOM     34  H   UNL     1      48.129   3.019  16.955  0.00  0.00    +0.000 HD
ENDBRANCH  21  24
ENDBRANCH  19  20
ENDBRANCH   4  19
TORSDOF 6
ENDMDL
MODEL 3
REMARK VINA RESULT:    -7.702      2.363      2.579
REMARK INTER + INTRA:         -11.538
REMARK INTER:                 -10.556
REMARK INTRA:                  -0.982
REMARK UNBOUND:                -1.133
REMARK  Name = 
REMARK  7 active torsions:
REMARK  status: ('A' for Active; 'I' for Inactive)
REMARK    1  A    between atoms: C_1  and  C_2
REMARK    2  A    between atoms: C_6  and  C_7
REMARK    3  A    between atoms: N_9  and  C_10
REMARK    4  A    between atoms: C_10  and  C_11
REMARK    5  A    between atoms: C_14  and  C_15
REMARK    6  A    between atoms: C_15  and  N_16
REMARK    7  A    between atoms: C_17  and  C_19
REMARK                            x       y       z     vdW  Elec       q    Type
REMARK                         _______ _______ _______ _____ _____    ______ ____
ROOT
ATOM      1  C   UNL     1      45.050   5.397  12.087  0.00  0.00    +0.000 A 
ATOM      2  C   UNL     1      46.229   5.150  12.803  0.00  0.00    +0.000 A 
ATOM      3  C   UNL     1      47.008   6.206  13.294  0.00  0.00    +0.000 A 
ATOM      4  C   UNL     1      46.612   7.536  13.100  0.00  0.00    +0.000 A 
ATOM      5  C   UNL     1      45.439   7.784  12.373  0.00  0.00    +0.000 A 
ATOM      6  C   UNL     1      44.659   6.728  11.884  0.00  0.00    +0.000 A 
ENDROOT
BRANCH   1   7
ATOM      7  C   UNL     1      44.244   4.257  11.518  0.00  0.00    +0.000 C 
BRANCH   7  10
ATOM      8  C   UNL     1      44.787   3.615   9.215  0.00  0.00    +0.000 C 
ATOM      9  O   UNL     1      44.015   4.440   8.736  0.00  0.00    +0.000 OA
ATOM     10  N   UNL     1      44.972   3.449  10.575  0.00  0.00    +0.000 N 
ATOM     11  H   UNL     1      45.622   2.730  10.877  0.00  0.00    +0.000 HD
BRANCH   8  17
ATOM     12  C   UNL     1      47.557   2.880   5.101  0.00  0.00    +0.000 C 
ATOM     13  C   UNL     1      46.933   2.369   6.365  0.00  0.00    +0.000 A 
ATOM     14  C   UNL     1      47.090   1.043   6.771  0.00  0.00    +0.000 A 
ATOM     15  C   UNL     1      46.489   0.628   7.952  0.00  0.00    +0.000 A 
ATOM     16  N   UNL     1      45.745   1.424   8.746  0.00  0.00    +0.000 NA
ATOM     17  C   UNL     1      45.605   2.715   8.335  0.00  0.00    +0.000 A 
ATOM     18  C   UNL     1      46.169   3.222   7.166  0.00  0.00    +0.000 A 
ENDBRANCH   8  17
ENDBRANCH   7  10
ENDBRANCH   1   7
BRANCH   4  19
ATOM     19  C   UNL     1      47.423   8.686  13.646  0.00  0.00    +0.000 C 
BRANCH  19  20
ATOM     20  N   UNL     1      47.335   8.778  15.082  0.00  0.00    +0.000 N 
ATOM     21  C   UNL     1      48.291   9.439  15.812  0.00  0.00    +0.000 C 
ATOM     22  O   UNL     1      49.240  10.011  15.282  0.00  0.00    +0.000 OA
ATOM     23  H   UNL     1      46.735   8.104  15.547  0.00  0.00    +0.000 HD
BRANCH  21  24
ATOM     24  C   UNL     1      48.088   9.478  17.268  0.00  0.00    +0.000 A 
ATOM     25  C   UNL     1      47.828  10.688  17.900  0.00  0.00    +0.000 A 
ATOM     26  S   UNL     1      47.569  10.538  19.580  0.00  0.00    +0.000 S 
ATOM     27  C   UNL     1      47.849   8.861  19.529  0.00  0.00    +0.000 A 
ATOM     28  N   UNL     1      47.804   8.105  20.662  0.00  0.00    +0.000 NA
ATOM     29  C   UNL     1      48.064   6.853  20.475  0.00  0.00    +0.000 A 
ATOM     30  N   UNL     1      48.348   6.286  19.261  0.00  0.00    +0.000 N 
ATOM     31  C   UNL     1      48.373   7.004  18.091  0.00  0.00    +0.000 A 
ATOM     32  O   UNL     1      48.582   6.448  17.011  0.00  0.00    +0.000 OA
ATOM     33  C   UNL     1      48.108   8.419  18.245  0.00  0.00    +0.000 A 
ATOM     34  H   UNL     1      48.527   5.295  19.181  0.00  0.00    +0.000 HD
ENDBRANCH  21  24
ENDBRANCH  19  20
ENDBRANCH   4  19
TORSDOF 6
ENDMDL
MODEL 4
REMARK VINA RESULT:    -7.527      1.948      2.401
REMARK INTER + INTRA:         -11.301
REMARK INTER:                 -10.575
REMARK INTRA:                  -0.726
REMARK UNBOUND:                -1.133
REMARK  Name = 
REMARK  7 active torsions:
REMARK  status: ('A' for Active; 'I' for Inactive)
REMARK    1  A    between atoms: C_1  and  C_2
REMARK    2  A    between atoms: C_6  and  C_7
REMARK    3  A    between atoms: N_9  and  C_10
REMARK    4  A    between atoms: C_10  and  C_11
REMARK    5  A    between atoms: C_14  and  C_15
REMARK    6  A    between atoms: C_15  and  N_16
REMARK    7  A    between atoms: C_17  and  C_19
REMARK                            x       y       z     vdW  Elec       q    Type
REMARK                         _______ _______ _______ _____ _____    ______ ____
ROOT
ATOM      1  C   UNL     1      45.015   5.823  11.567  0.00  0.00    +0.000 A 
ATOM      2  C   UNL     1      45.104   7.221  11.526  0.00  0.00    +0.000 A 
ATOM      3  C   UNL     1      46.015   7.908  12.340  0.00  0.00    +0.000 A 
ATOM      4  C   UNL     1      46.875   7.209  13.198  0.00  0.00    +0.000 A 
ATOM      5  C   UNL     1      46.777   5.811  13.247  0.00  0.00    +0.000 A 
ATOM      6  C   UNL     1      45.868   5.124  12.432  0.00  0.00    +0.000 A 
ENDROOT
BRANCH   1   7
ATOM      7  C   UNL     1      43.998   5.094  10.726  0.00  0.00    +0.000 C 
BRANCH   7  10
ATOM      8  C   UNL     1      45.486   4.312   8.940  0.00  0.00    +0.000 C 
ATOM      9  O   UNL     1      45.882   5.446   8.687  0.00  0.00    +0.000 OA
ATOM     10  N   UNL     1      44.558   4.035   9.927  0.00  0.00    +0.000 N 
ATOM     11  H   UNL     1      44.280   3.067  10.053  0.00  0.00    +0.000 HD
BRANCH   8  17
ATOM     12  C   UNL     1      47.861   2.363   4.978  0.00  0.00    +0.000 C 
ATOM     13  C   UNL     1      47.138   2.197   6.280  0.00  0.00    +0.000 A 
ATOM     14  C   UNL     1      46.916   0.934   6.834  0.00  0.00    +0.000 A 
ATOM     15  C   UNL     1      46.240   0.842   8.044  0.00  0.00    +0.000 A 
ATOM     16  N   UNL     1      45.769   1.901   8.733  0.00  0.00    +0.000 NA
ATOM     17  C   UNL     1      45.997   3.124   8.179  0.00  0.00    +0.000 A 
ATOM     18  C   UNL     1      46.663   3.316   6.970  0.00  0.00    +0.000 A 
ENDBRANCH   8  17
ENDBRANCH   7  10
ENDBRANCH   1   7
BRANCH   4  19
ATOM     19  C   UNL     1      47.881   7.930  14.061  0.00  0.00    +0.000 C 
BRANCH  19  20
ATOM     20  N   UNL     1      47.992   7.340  15.372  0.00  0.00    +0.000 N 
ATOM     21  C   UNL     1      49.180   6.821  15.821  0.00  0.00    +0.000 C 
ATOM     22  O   UNL     1      50.208   6.865  15.150  0.00  0.00    +0.000 OA
ATOM     23  H   UNL     1      47.126   7.053  15.818  0.00  0.00    +0.000 HD
BRANCH  21  24
ATOM     24  C   UNL     1      49.175   6.259  17.180  0.00  0.00    +0.000 A 
ATOM     25  C   UNL     1      49.700   4.993  17.408  0.00  0.00    +0.000 A 
ATOM     26  S   UNL     1      49.659   4.524  19.048  0.00  0.00    +0.000 S 
ATOM     27  C   UNL     1      48.889   5.972  19.500  0.00  0.00    +0.000 A 
ATOM     28  N   UNL     1      48.538   6.208  20.796  0.00  0.00    +0.000 NA
ATOM     29  C   UNL     1      47.938   7.336  20.986  0.00  0.00    +0.000 A 
ATOM     30  N   UNL     1      47.670   8.254  20.005  0.00  0.00    +0.000 N 
ATOM     31  C   UNL     1      48.033   8.071  18.693  0.00  0.00    +0.000 A 
ATOM     32  O   UNL     1      47.821   8.943  17.849  0.00  0.00    +0.000 OA
ATOM     33  C   UNL     1      48.694   6.812  18.420  0.00  0.00    +0.000 A 
ATOM     34  H   UNL     1      47.210   9.127  20.223  0.00  0.00    +0.000 HD
ENDBRANCH  21  24
ENDBRANCH  19  20
ENDBRANCH   4  19
TORSDOF 6
ENDMDL
MODEL 5
REMARK VINA RESULT:    -7.401      3.833      4.902
REMARK INTER + INTRA:         -11.130
REMARK INTER:                 -10.118
REMARK INTRA:                  -1.012
REMARK UNBOUND:                -1.133
REMARK  Name = 
REMARK  7 active torsions:
REMARK  status: ('A' for Active; 'I' for Inactive)
REMARK    1  A    between atoms: C_1  and  C_2
REMARK    2  A    between atoms: C_6  and  C_7
REMARK    3  A    between atoms: N_9  and  C_10
REMARK    4  A    between atoms: C_10  and  C_11
REMARK    5  A    between atoms: C_14  and  C_15
REMARK    6  A    between atoms: C_15  and  N_16
REMARK    7  A    between atoms: C_17  and  C_19
REMARK                            x       y       z     vdW  Elec       q    Type
REMARK                         _______ _______ _______ _____ _____    ______ ____
ROOT
ATOM      1  C   UNL     1      44.633   5.174  11.919  0.00  0.00    +0.000 A 
ATOM      2  C   UNL     1      45.769   5.280  12.733  0.00  0.00    +0.000 A 
ATOM      3  C   UNL     1      46.330   6.531  13.025  0.00  0.00    +0.000 A 
ATOM      4  C   UNL     1      45.753   7.707  12.526  0.00  0.00    +0.000 A 
ATOM      5  C   UNL     1      44.625   7.599  11.702  0.00  0.00    +0.000 A 
ATOM      6  C   UNL     1      44.062   6.349  11.413  0.00  0.00    +0.000 A 
ENDROOT
BRANCH   1   7
ATOM      7  C   UNL     1      44.065   3.822  11.569  0.00  0.00    +0.000 C 
BRANCH   7  10
ATOM      8  C   UNL     1      44.740   3.400   9.249  0.00  0.00    +0.000 C 
ATOM      9  O   UNL     1      43.999   4.273   8.808  0.00  0.00    +0.000 OA
ATOM     10  N   UNL     1      44.844   3.102  10.595  0.00  0.00    +0.000 N 
ATOM     11  H   UNL     1      45.473   2.351  10.864  0.00  0.00    +0.000 HD
BRANCH   8  17
ATOM     12  C   UNL     1      47.525   2.974   5.102  0.00  0.00    +0.000 C 
ATOM     13  C   UNL     1      46.940   2.384   6.349  0.00  0.00    +0.000 A 
ATOM     14  C   UNL     1      47.178   1.056   6.709  0.00  0.00    +0.000 A 
ATOM     15  C   UNL     1      46.609   0.565   7.877  0.00  0.00    +0.000 A 
ATOM     16  N   UNL     1      45.824   1.288   8.701  0.00  0.00    +0.000 NA
ATOM     17  C   UNL     1      45.604   2.581   8.336  0.00  0.00    +0.000 A 
ATOM     18  C   UNL     1      46.131   3.161   7.183  0.00  0.00    +0.000 A 
ENDBRANCH   8  17
ENDBRANCH   7  10
ENDBRANCH   1   7
BRANCH   4  19
ATOM     19  C   UNL     1      46.328   9.064  12.853  0.00  0.00    +0.000 C 
BRANCH  19  20
ATOM     20  N   UNL     1      47.560   9.314  12.148  0.00  0.00    +0.000 N 
ATOM     21  C   UNL     1      48.596   9.990  12.744  0.00  0.00    +0.000 C 
ATOM     22  O   UNL     1      48.539  10.380  13.907  0.00  0.00    +0.000 OA
ATOM     23  H   UNL     1      47.529   9.250  11.136  0.00  0.00    +0.000 HD
BRANCH  21  24
ATOM     24  C   UNL     1      49.808  10.174  11.932  0.00  0.00    +0.000 A 
ATOM     25  C   UNL     1      50.242  11.456  11.615  0.00  0.00    +0.000 A 
ATOM     26  S   UNL     1      51.690  11.480  10.713  0.00  0.00    +0.000 S 
ATOM     27  C   UNL     1      51.757   9.782  10.670  0.00  0.00    +0.000 A 
ATOM     28  N   UNL     1      52.762   9.132  10.016  0.00  0.00    +0.000 NA
ATOM     29  C   UNL     1      52.668   7.844  10.045  0.00  0.00    +0.000 A 
ATOM     30  N   UNL     1      51.674   7.146  10.677  0.00  0.00    +0.000 N 
ATOM     31  C   UNL     1      50.661   7.758  11.373  0.00  0.00    +0.000 A 
ATOM     32  O   UNL     1      49.813   7.095  11.973  0.00  0.00    +0.000 OA
ATOM     33  C   UNL     1      50.706   9.205  11.358  0.00  0.00    +0.000 A 
ATOM     34  H   UNL     1      51.667   6.136  10.675  0.00  0.00    +0.000 HD
ENDBRANCH  21  24
ENDBRANCH  19  20
ENDBRANCH   4  19
TORSDOF 6
ENDMDL
MODEL 6
REMARK VINA RESULT:    -7.320      5.096     10.211
REMARK INTER + INTRA:         -11.021
REMARK INTER:                 -10.179
REMARK INTRA:                  -0.842
REMARK UNBOUND:                -1.133
REMARK  Name = 
REMARK  7 active torsions:
REMARK  status: ('A' for Active; 'I' for Inactive)
REMARK    1  A    between atoms: C_1  and  C_2
REMARK    2  A    between atoms: C_6  and  C_7
REMARK    3  A    between atoms: N_9  and  C_10
REMARK    4  A    between atoms: C_10  and  C_11
REMARK    5  A    between atoms: C_14  and  C_15
REMARK    6  A    between atoms: C_15  and  N_16
REMARK    7  A    between atoms: C_17  and  C_19
REMARK                            x       y       z     vdW  Elec       q    Type
REMARK                         _______ _______ _______ _____ _____    ______ ____
ROOT
ATOM      1  C   UNL     1      51.436   3.074  17.809  0.00  0.00    +0.000 A 
ATOM      2  C   UNL     1      50.720   4.234  18.136  0.00  0.00    +0.000 A 
ATOM      3  C   UNL     1      49.354   4.344  17.840  0.00  0.00    +0.000 A 
ATOM      4  C   UNL     1      48.668   3.286  17.229  0.00  0.00    +0.000 A 
ATOM      5  C   UNL     1      49.387   2.131  16.891  0.00  0.00    +0.000 A 
ATOM      6  C   UNL     1      50.751   2.020  17.190  0.00  0.00    +0.000 A 
ENDROOT
BRANCH   1   7
ATOM      7  C   UNL     1      52.915   2.983  18.085  0.00  0.00    +0.000 C 
BRANCH   7  10
ATOM      8  C   UNL     1      54.221   0.907  18.059  0.00  0.00    +0.000 C 
ATOM      9  O   UNL     1      54.730   1.167  16.973  0.00  0.00    +0.000 OA
ATOM     10  N   UNL     1      53.315   1.739  18.691  0.00  0.00    +0.000 N 
ATOM     11  H   UNL     1      52.935   1.432  19.581  0.00  0.00    +0.000 HD
BRANCH   8  17
ATOM     12  C   UNL     1      54.772  -4.075  18.134  0.00  0.00    +0.000 C 
ATOM     13  C   UNL     1      54.825  -2.744  18.821  0.00  0.00    +0.000 A 
ATOM     14  C   UNL     1      55.192  -2.631  20.164  0.00  0.00    +0.000 A 
ATOM     15  C   UNL     1      55.223  -1.371  20.746  0.00  0.00    +0.000 A 
ATOM     16  N   UNL     1      54.913  -0.228  20.101  0.00  0.00    +0.000 NA
ATOM     17  C   UNL     1      54.559  -0.358  18.792  0.00  0.00    +0.000 A 
ATOM     18  C   UNL     1      54.498  -1.578  18.123  0.00  0.00    +0.000 A 
ENDBRANCH   8  17
ENDBRANCH   7  10
ENDBRANCH   1   7
BRANCH   4  19
ATOM     19  C   UNL     1      47.192   3.376  16.927  0.00  0.00    +0.000 C 
BRANCH  19  20
ATOM     20  N   UNL     1      46.902   4.384  15.939  0.00  0.00    +0.000 N 
ATOM     21  C   UNL     1      46.998   4.114  14.597  0.00  0.00    +0.000 C 
ATOM     22  O   UNL     1      47.299   3.001  14.174  0.00  0.00    +0.000 OA
ATOM     23  H   UNL     1      46.921   5.350  16.252  0.00  0.00    +0.000 HD
BRANCH  21  24
ATOM     24  C   UNL     1      46.664   5.217  13.683  0.00  0.00    +0.000 A 
ATOM     25  C   UNL     1      47.594   6.221  13.439  0.00  0.00    +0.000 A 
ATOM     26  S   UNL     1      47.056   7.388  12.316  0.00  0.00    +0.000 S 
ATOM     27  C   UNL     1      45.546   6.621  12.158  0.00  0.00    +0.000 A 
ATOM     28  N   UNL     1      44.578   7.132  11.345  0.00  0.00    +0.000 NA
ATOM     29  C   UNL     1      43.475   6.460  11.347  0.00  0.00    +0.000 A 
ATOM     30  N   UNL     1      43.255   5.319  12.071  0.00  0.00    +0.000 N 
ATOM     31  C   UNL     1      44.212   4.753  12.878  0.00  0.00    +0.000 A 
ATOM     32  O   UNL     1      43.994   3.696  13.474  0.00  0.00    +0.000 OA
ATOM     33  C   UNL     1      45.464   5.477  12.929  0.00  0.00    +0.000 A 
ATOM     34  H   UNL     1      42.372   4.830  12.016  0.00  0.00    +0.000 HD
ENDBRANCH  21  24
ENDBRANCH  19  20
ENDBRANCH   4  19
TORSDOF 6
ENDMDL
MODEL 7
REMARK VINA RESULT:    -7.281      2.293      2.984
REMARK INTER + INTRA:         -10.969
REMARK INTER:                 -10.066
REMARK INTRA:                  -0.902
REMARK UNBOUND:                -1.133
REMARK  Name = 
REMARK  7 active torsions:
REMARK  status: ('A' for Active; 'I' for Inactive)
REMARK    1  A    between atoms: C_1  and  C_2
REMARK    2  A    between atoms: C_6  and  C_7
REMARK    3  A    between atoms: N_9  and  C_10
REMARK    4  A    between atoms: C_10  and  C_11
REMARK    5  A    between atoms: C_14  and  C_15
REMARK    6  A    between atoms: C_15  and  N_16
REMARK    7  A    between atoms: C_17  and  C_19
REMARK                            x       y       z     vdW  Elec       q    Type
REMARK                         _______ _______ _______ _____ _____    ______ ____
ROOT
ATOM      1  C   UNL     1      46.202   6.012  12.807  0.00  0.00    +0.000 A 
ATOM      2  C   UNL     1      46.710   7.317  12.773  0.00  0.00    +0.000 A 
ATOM      3  C   UNL     1      47.635   7.755  13.731  0.00  0.00    +0.000 A 
ATOM      4  C   UNL     1      48.089   6.888  14.734  0.00  0.00    +0.000 A 
ATOM      5  C   UNL     1      47.570   5.586  14.776  0.00  0.00    +0.000 A 
ATOM      6  C   UNL     1      46.649   5.148  13.816  0.00  0.00    +0.000 A 
ENDROOT
BRANCH   1   7
ATOM      7  C   UNL     1      45.170   5.564  11.804  0.00  0.00    +0.000 C 
BRANCH   7  10
ATOM      8  C   UNL     1      44.923   4.097   9.854  0.00  0.00    +0.000 C 
ATOM      9  O   UNL     1      43.716   3.960  10.031  0.00  0.00    +0.000 OA
ATOM     10  N   UNL     1      45.727   4.868  10.672  0.00  0.00    +0.000 N 
ATOM     11  H   UNL     1      46.718   4.909  10.455  0.00  0.00    +0.000 HD
BRANCH   8  17
ATOM     12  C   UNL     1      46.715  -0.039   7.661  0.00  0.00    +0.000 C 
ATOM     13  C   UNL     1      46.474   1.440   7.660  0.00  0.00    +0.000 A 
ATOM     14  C   UNL     1      46.884   2.245   6.596  0.00  0.00    +0.000 A 
ATOM     15  C   UNL     1      46.633   3.610   6.652  0.00  0.00    +0.000 A 
ATOM     16  N   UNL     1      46.015   4.226   7.680  0.00  0.00    +0.000 NA
ATOM     17  C   UNL     1      45.620   3.425   8.708  0.00  0.00    +0.000 A 
ATOM     18  C   UNL     1      45.830   2.048   8.741  0.00  0.00    +0.000 A 
ENDBRANCH   8  17
ENDBRANCH   7  10
ENDBRANCH   1   7
BRANCH   4  19
ATOM     19  C   UNL     1      49.104   7.333  15.758  0.00  0.00    +0.000 C 
BRANCH  19  20
ATOM     20  N   UNL     1      50.045   6.289  16.077  0.00  0.00    +0.000 N 
ATOM     21  C   UNL     1      50.830   6.357  17.201  0.00  0.00    +0.000 C 
ATOM     22  O   UNL     1      50.746   7.284  18.002  0.00  0.00    +0.000 OA
ATOM     23  H   UNL     1      50.322   5.675  15.318  0.00  0.00    +0.000 HD
BRANCH  21  24
ATOM     24  C   UNL     1      51.743   5.228  17.430  0.00  0.00    +0.000 A 
ATOM     25  C   UNL     1      53.096   5.462  17.647  0.00  0.00    +0.000 A 
ATOM     26  S   UNL     1      53.994   4.042  17.946  0.00  0.00    +0.000 S 
ATOM     27  C   UNL     1      52.618   3.063  17.741  0.00  0.00    +0.000 A 
ATOM     28  N   UNL     1      52.698   1.706  17.843  0.00  0.00    +0.000 NA
ATOM     29  C   UNL     1      51.580   1.092  17.637  0.00  0.00    +0.000 A 
ATOM     30  N   UNL     1      50.390   1.708  17.355  0.00  0.00    +0.000 N 
ATOM     31  C   UNL     1      50.258   3.072  17.275  0.00  0.00    +0.000 A 
ATOM     32  O   UNL     1      49.159   3.591  17.070  0.00  0.00    +0.000 OA
ATOM     33  C   UNL     1      51.486   3.811  17.478  0.00  0.00    +0.000 A 
ATOM     34  H   UNL     1      49.546   1.169  17.220  0.00  0.00    +0.000 HD
ENDBRANCH  21  24
ENDBRANCH  19  20
ENDBRANCH   4  19
TORSDOF 6
ENDMDL
MODEL 8
REMARK VINA RESULT:    -7.249      1.790      2.637
REMARK INTER + INTRA:         -10.925
REMARK INTER:                 -10.041
REMARK INTRA:                  -0.883
REMARK UNBOUND:                -1.133
REMARK  Name = 
REMARK  7 active torsions:
REMARK  status: ('A' for Active; 'I' for Inactive)
REMARK    1  A    between atoms: C_1  and  C_2
REMARK    2  A    between atoms: C_6  and  C_7
REMARK    3  A    between atoms: N_9  and  C_10
REMARK    4  A    between atoms: C_10  and  C_11
REMARK    5  A    between atoms: C_14  and  C_15
REMARK    6  A    between atoms: C_15  and  N_16
REMARK    7  A    between atoms: C_17  and  C_19
REMARK                            x       y       z     vdW  Elec       q    Type
REMARK                         _______ _______ _______ _____ _____    ______ ____
ROOT
ATOM      1  C   UNL     1      45.138   6.250  11.418  0.00  0.00    +0.000 A 
ATOM      2  C   UNL     1      44.931   7.607  11.700  0.00  0.00    +0.000 A 
ATOM      3  C   UNL     1      45.715   8.272  12.652  0.00  0.00    +0.000 A 
ATOM      4  C   UNL     1      46.740   7.599  13.329  0.00  0.00    +0.000 A 
ATOM      5  C   UNL     1      46.939   6.238  13.056  0.00  0.00    +0.000 A 
ATOM      6  C   UNL     1      46.157   5.574  12.102  0.00  0.00    +0.000 A 
ENDROOT
BRANCH   1   7
ATOM      7  C   UNL     1      44.258   5.529  10.429  0.00  0.00    +0.000 C 
BRANCH   7  10
ATOM      8  C   UNL     1      44.728   3.335   9.441  0.00  0.00    +0.000 C 
ATOM      9  O   UNL     1      43.888   2.771  10.136  0.00  0.00    +0.000 OA
ATOM     10  N   UNL     1      44.984   4.691   9.510  0.00  0.00    +0.000 N 
ATOM     11  H   UNL     1      45.709   5.065   8.906  0.00  0.00    +0.000 HD
BRANCH   8  17
ATOM     12  C   UNL     1      47.283   3.140   5.131  0.00  0.00    +0.000 C 
ATOM     13  C   UNL     1      46.774   2.484   6.379  0.00  0.00    +0.000 A 
ATOM     14  C   UNL     1      47.045   1.144   6.661  0.00  0.00    +0.000 A 
ATOM     15  C   UNL     1      46.546   0.591   7.834  0.00  0.00    +0.000 A 
ATOM     16  N   UNL     1      45.801   1.265   8.733  0.00  0.00    +0.000 NA
ATOM     17  C   UNL     1      45.549   2.571   8.443  0.00  0.00    +0.000 A 
ATOM     18  C   UNL     1      46.005   3.211   7.292  0.00  0.00    +0.000 A 
ENDBRANCH   8  17
ENDBRANCH   7  10
ENDBRANCH   1   7
BRANCH   4  19
ATOM     19  C   UNL     1      47.612   8.305  14.338  0.00  0.00    +0.000 C 
BRANCH  19  20
ATOM     20  N   UNL     1      48.451   7.387  15.067  0.00  0.00    +0.000 N 
ATOM     21  C   UNL     1      48.820   7.637  16.365  0.00  0.00    +0.000 C 
ATOM     22  O   UNL     1      48.429   8.628  16.977  0.00  0.00    +0.000 OA
ATOM     23  H   UNL     1      48.992   6.727  14.517  0.00  0.00    +0.000 HD
BRANCH  21  24
ATOM     24  C   UNL     1      49.666   6.622  17.011  0.00  0.00    +0.000 A 
ATOM     25  C   UNL     1      49.120   5.769  17.963  0.00  0.00    +0.000 A 
ATOM     26  S   UNL     1      50.231   4.624  18.568  0.00  0.00    +0.000 S 
ATOM     27  C   UNL     1      51.490   5.263  17.619  0.00  0.00    +0.000 A 
ATOM     28  N   UNL     1      52.750   4.744  17.678  0.00  0.00    +0.000 NA
ATOM     29  C   UNL     1      53.608   5.347  16.924  0.00  0.00    +0.000 A 
ATOM     30  N   UNL     1      53.321   6.408  16.106  0.00  0.00    +0.000 N 
ATOM     31  C   UNL     1      52.061   6.941  15.992  0.00  0.00    +0.000 A 
ATOM     32  O   UNL     1      51.831   7.863  15.207  0.00  0.00    +0.000 OA
ATOM     33  C   UNL     1      51.062   6.315  16.832  0.00  0.00    +0.000 A 
ATOM     34  H   UNL     1      54.037   6.825  15.527  0.00  0.00    +0.000 HD
ENDBRANCH  21  24
ENDBRANCH  19  20
ENDBRANCH   4  19
TORSDOF 6
ENDMDL
MODEL 9
REMARK VINA RESULT:    -7.140      3.056      4.211
REMARK INTER + INTRA:         -10.778
REMARK INTER:                  -9.862
REMARK INTRA:                  -0.915
REMARK UNBOUND:                -1.133
REMARK  Name = 
REMARK  7 active torsions:
REMARK  status: ('A' for Active; 'I' for Inactive)
REMARK    1  A    between atoms: C_1  and  C_2
REMARK    2  A    between atoms: C_6  and  C_7
REMARK    3  A    between atoms: N_9  and  C_10
REMARK    4  A    between atoms: C_10  and  C_11
REMARK    5  A    between atoms: C_14  and  C_15
REMARK    6  A    between atoms: C_15  and  N_16
REMARK    7  A    between atoms: C_17  and  C_19
REMARK                            x       y       z     vdW  Elec       q    Type
REMARK                         _______ _______ _______ _____ _____    ______ ____
ROOT
ATOM      1  C   UNL     1      46.194   5.726  12.605  0.00  0.00    +0.000 A 
ATOM      2  C   UNL     1      47.007   6.808  12.966  0.00  0.00    +0.000 A 
ATOM      3  C   UNL     1      47.740   6.791  14.161  0.00  0.00    +0.000 A 
ATOM      4  C   UNL     1      47.692   5.679  15.012  0.00  0.00    +0.000 A 
ATOM      5  C   UNL     1      46.869   4.601  14.656  0.00  0.00    +0.000 A 
ATOM      6  C   UNL     1      46.139   4.617  13.461  0.00  0.00    +0.000 A 
ENDROOT
BRANCH   1   7
ATOM      7  C   UNL     1      45.370   5.773  11.344  0.00  0.00    +0.000 C 
BRANCH   7  10
ATOM      8  C   UNL     1      45.060   4.274   9.428  0.00  0.00    +0.000 C 
ATOM      9  O   UNL     1      43.837   4.294   9.530  0.00  0.00    +0.000 OA
ATOM     10  N   UNL     1      45.903   4.970  10.274  0.00  0.00    +0.000 N 
ATOM     11  H   UNL     1      46.903   4.880  10.121  0.00  0.00    +0.000 HD
BRANCH   8  17
ATOM     12  C   UNL     1      46.748  -0.099   7.648  0.00  0.00    +0.000 C 
ATOM     13  C   UNL     1      46.540   1.379   7.502  0.00  0.00    +0.000 A 
ATOM     14  C   UNL     1      46.963   2.066   6.363  0.00  0.00    +0.000 A 
ATOM     15  C   UNL     1      46.742   3.435   6.285  0.00  0.00    +0.000 A 
ATOM     16  N   UNL     1      46.144   4.163   7.249  0.00  0.00    +0.000 NA
ATOM     17  C   UNL     1      45.736   3.476   8.351  0.00  0.00    +0.000 A 
ATOM     18  C   UNL     1      45.915   2.105   8.520  0.00  0.00    +0.000 A 
ENDBRANCH   8  17
ENDBRANCH   7  10
ENDBRANCH   1   7
BRANCH   4  19
ATOM     19  C   UNL     1      48.495   5.631  16.289  0.00  0.00    +0.000 C 
BRANCH  19  20
ATOM     20  N   UNL     1      48.032   6.593  17.257  0.00  0.00    +0.000 N 
ATOM     21  C   UNL     1      48.782   6.908  18.363  0.00  0.00    +0.000 C 
ATOM     22  O   UNL     1      49.890   6.417  18.563  0.00  0.00    +0.000 OA
ATOM     23  H   UNL     1      47.037   6.797  17.259  0.00  0.00    +0.000 HD
BRANCH  21  24
ATOM     24  C   UNL     1      48.213   7.913  19.273  0.00  0.00    +0.000 A 
ATOM     25  C   UNL     1      47.964   7.584  20.600  0.00  0.00    +0.000 A 
ATOM     26  S   UNL     1      47.354   8.886  21.521  0.00  0.00    +0.000 S 
ATOM     27  C   UNL     1      47.351   9.915  20.166  0.00  0.00    +0.000 A 
ATOM     28  N   UNL     1      46.911  11.202  20.260  0.00  0.00    +0.000 NA
ATOM     29  C   UNL     1      46.941  11.855  19.146  0.00  0.00    +0.000 A 
ATOM     30  N   UNL     1      47.384  11.348  17.953  0.00  0.00    +0.000 N 
ATOM     31  C   UNL     1      47.864  10.068  17.821  0.00  0.00    +0.000 A 
ATOM     32  O   UNL     1      48.302   9.665  16.742  0.00  0.00    +0.000 OA
ATOM     33  C   UNL     1      47.835   9.283  19.036  0.00  0.00    +0.000 A 
ATOM     34  H   UNL     1      47.397  11.918  17.119  0.00  0.00    +0.000 HD
ENDBRANCH  21  24
ENDBRANCH  19  20
ENDBRANCH   4  19
TORSDOF 6
ENDMDL
