MODEL 1
REMARK VINA RESULT:    -9.064      0.000      0.000
REMARK INTER + INTRA:         -14.278
REMARK INTER:                 -13.037
REMARK INTRA:                  -1.240
REMARK UNBOUND:                -1.240
REMARK  Name = 
REMARK  10 active torsions:
REMARK  status: ('A' for Active; 'I' for Inactive)
REMARK    1  A    between atoms: C_1  and  C_2
REMARK    2  A    between atoms: C_4  and  C_5
REMARK    3  A    between atoms: C_5  and  C_6
REMARK    4  A    between atoms: C_5  and  C_7
REMARK    5  A    between atoms: C_7  and  N_8
REMARK    6  A    between atoms: N_8  and  C_9
REMARK    7  A    between atoms: C_12  and  C_13
REMARK    8  A    between atoms: C_19  and  N_20
REMARK    9  A    between atoms: C_23  and  C_24
REMARK   10  A    between atoms: C_24  and  O_25
REMARK                            x       y       z     vdW  Elec       q    Type
REMARK                         _______ _______ _______ _____ _____    ______ ____
ROOT
ATOM      1  C   UNL     1      48.638   7.922  11.975  0.00  0.00    +0.000 C 
ATOM      2  C   UNL     1      47.866   6.843  12.675  0.00  0.00    +0.000 A 
ATOM      3  C   UNL     1      46.715   6.306  12.093  0.00  0.00    +0.000 A 
ATOM      4  C   UNL     1      45.976   5.303  12.730  0.00  0.00    +0.000 A 
ATOM      5  C   UNL     1      46.428   4.855  13.987  0.00  0.00    +0.000 A 
ATOM      6  C   UNL     1      47.554   5.401  14.625  0.00  0.00    +0.000 A 
ATOM      7  C   UNL     1      48.274   6.382  13.933  0.00  0.00    +0.000 A 
ENDROOT
BRANCH   6   8
ATOM      8  N   UNL     1      47.907   5.049  15.917  0.00  0.00    +0.000 N 
ATOM      9  C   UNL     1      48.820   5.885  16.692  0.00  0.00    +0.000 C 
ATOM     10  C   UNL     1      49.831   4.970  17.384  0.00  0.00    +0.000 C 
ATOM     11  C   UNL     1      49.148   3.888  18.238  0.00  0.00    +0.000 C 
ATOM     12  C   UNL     1      48.107   3.124  17.400  0.00  0.00    +0.000 C 
ATOM     13  C   UNL     1      47.140   4.051  16.657  0.00  0.00    +0.000 C 
BRANCH  11  14
ATOM     14  C   UNL     1      48.527   4.472  19.513  0.00  0.00    +0.000 C 
BRANCH  14  15
ATOM     15  O   UNL     1      48.389   3.463  20.506  0.00  0.00    +0.000 OA
ATOM     16  H   UNL     1      47.511   3.058  20.394  0.00  0.00    +0.000 HD
ENDBRANCH  14  15
ENDBRANCH  11  14
ENDBRANCH   6   8
BRANCH   4  17
ATOM     17  C   UNL     1      44.713   4.690  12.120  0.00  0.00    +0.000 C 
ATOM     18  C   UNL     1      43.656   4.451  13.216  0.00  0.00    +0.000 C 
BRANCH  17  19
ATOM     19  C   UNL     1      44.029   5.517  11.003  0.00  0.00    +0.000 C 
BRANCH  19  20
ATOM     20  N   UNL     1      43.615   4.696   9.861  0.00  0.00    +0.000 N 
ATOM     21  H   UNL     1      42.962   5.168   9.240  0.00  0.00    +0.000 HD
BRANCH  20  22
ATOM     22  C   UNL     1      44.590   3.955   9.184  0.00  0.00    +0.000 A 
ATOM     23  C   UNL     1      44.598   2.555   9.155  0.00  0.00    +0.000 A 
ATOM     24  C   UNL     1      45.559   1.844   8.431  0.00  0.00    +0.000 A 
ATOM     25  C   UNL     1      46.518   2.524   7.681  0.00  0.00    +0.000 A 
ATOM     26  C   UNL     1      46.500   3.921   7.656  0.00  0.00    +0.000 A 
ATOM     27  C   UNL     1      45.532   4.624   8.388  0.00  0.00    +0.000 A 
BRANCH  25  28
ATOM     28  C   UNL     1      47.523   1.710   6.948  0.00  0.00    +0.000 C 
ATOM     29  N   UNL     1      48.564   2.374   6.360  0.00  0.00    +0.000 N 
ATOM     30  O   UNL     1      47.412   0.499   6.832  0.00  0.00    +0.000 OA
ATOM     31  H   UNL     1      48.557   3.374   6.215  0.00  0.00    +0.000 HD
ATOM     32  H   UNL     1      49.160   1.816   5.762  0.00  0.00    +0.000 HD
ENDBRANCH  25  28
ENDBRANCH  20  22
ENDBRANCH  19  20
ENDBRANCH  17  19
ENDBRANCH   4  17
TORSDOF 8
ENDMDL
MODEL 2
REMARK VINA RESULT:    -7.891      2.924      4.576
REMARK INTER + INTRA:         -12.591
REMARK INTER:                 -11.335
REMARK INTRA:                  -1.256
REMARK UNBOUND:                -1.240
REMARK  Name = 
REMARK  10 active torsions:
REMARK  status: ('A' for Active; 'I' for Inactive)
REMARK    1  A    between atoms: C_1  and  C_2
REMARK    2  A    between atoms: C_4  and  C_5
REMARK    3  A    between atoms: C_5  and  C_6
REMARK    4  A    between atoms: C_5  and  C_7
REMARK    5  A    between atoms: C_7  and  N_8
REMARK    6  A    between atoms: N_8  and  C_9
REMARK    7  A    between atoms: C_12  and  C_13
REMARK    8  A    between atoms: C_19  and  N_20
REMARK    9  A    between atoms: C_23  and  C_24
REMARK   10  A    between atoms: C_24  and  O_25
REMARK                            x       y       z     vdW  Elec       q    Type
REMARK                         _______ _______ _______ _____ _____    ______ ____
ROOT
ATOM      1  C   UNL     1      47.352   3.455  14.851  0.00  0.00    +0.000 C 
ATOM      2  C   UNL     1      46.863   4.632  14.061  0.00  0.00    +0.000 A 
ATOM      3  C   UNL     1      45.580   4.632  13.511  0.00  0.00    +0.000 A 
ATOM      4  C   UNL     1      45.104   5.717  12.766  0.00  0.00    +0.000 A 
ATOM      5  C   UNL     1      45.970   6.813  12.582  0.00  0.00    +0.000 A 
ATOM      6  C   UNL     1      47.283   6.833  13.079  0.00  0.00    +0.000 A 
ATOM      7  C   UNL     1      47.699   5.735  13.841  0.00  0.00    +0.000 A 
ENDROOT
BRANCH   6   8
ATOM      8  N   UNL     1      48.167   7.855  12.775  0.00  0.00    +0.000 N 
ATOM      9  C   UNL     1      47.756   9.252  12.884  0.00  0.00    +0.000 C 
ATOM     10  C   UNL     1      48.253   9.991  11.641  0.00  0.00    +0.000 C 
ATOM     11  C   UNL     1      49.770   9.834  11.438  0.00  0.00    +0.000 C 
ATOM     12  C   UNL     1      50.160   8.345  11.458  0.00  0.00    +0.000 C 
ATOM     13  C   UNL     1      49.601   7.597  12.672  0.00  0.00    +0.000 C 
BRANCH  11  14
ATOM     14  C   UNL     1      50.573  10.641  12.464  0.00  0.00    +0.000 C 
BRANCH  14  15
ATOM     15  O   UNL     1      49.970  11.911  12.681  0.00  0.00    +0.000 OA
ATOM     16  H   UNL     1      50.587  12.590  12.354  0.00  0.00    +0.000 HD
ENDBRANCH  14  15
ENDBRANCH  11  14
ENDBRANCH   6   8
BRANCH   4  17
ATOM     17  C   UNL     1      43.703   5.751  12.152  0.00  0.00    +0.000 C 
ATOM     18  C   UNL     1      43.512   7.043  11.333  0.00  0.00    +0.000 C 
BRANCH  17  19
ATOM     19  C   UNL     1      43.341   4.567  11.222  0.00  0.00    +0.000 C 
BRANCH  19  20
ATOM     20  N   UNL     1      43.683   4.821   9.818  0.00  0.00    +0.000 N 
ATOM     21  H   UNL     1      43.828   5.806   9.610  0.00  0.00    +0.000 HD
BRANCH  20  22
ATOM     22  C   UNL     1      44.611   3.979   9.196  0.00  0.00    +0.000 A 
ATOM     23  C   UNL     1      44.583   2.586   9.327  0.00  0.00    +0.000 A 
ATOM     24  C   UNL     1      45.495   1.768   8.656  0.00  0.00    +0.000 A 
ATOM     25  C   UNL     1      46.440   2.329   7.797  0.00  0.00    +0.000 A 
ATOM     26  C   UNL     1      46.457   3.714   7.612  0.00  0.00    +0.000 A 
ATOM     27  C   UNL     1      45.537   4.525   8.294  0.00  0.00    +0.000 A 
BRANCH  25  28
ATOM     28  C   UNL     1      47.394   1.407   7.125  0.00  0.00    +0.000 C 
ATOM     29  N   UNL     1      48.455   1.967   6.470  0.00  0.00    +0.000 N 
ATOM     30  O   UNL     1      47.224   0.197   7.116  0.00  0.00    +0.000 OA
ATOM     31  H   UNL     1      48.494   2.949   6.239  0.00  0.00    +0.000 HD
ATOM     32  H   UNL     1      49.015   1.330   5.916  0.00  0.00    +0.000 HD
ENDBRANCH  25  28
ENDBRANCH  20  22
ENDBRANCH  19  20
ENDBRANCH  17  19
ENDBRANCH   4  17
TORSDOF 8
ENDMDL
MODEL 3
REMARK VINA RESULT:    -7.700      1.929      2.720
REMARK INTER + INTRA:         -12.317
REMARK INTER:                 -11.238
REMARK INTRA:                  -1.079
REMARK UNBOUND:                -1.240
REMARK  Name = 
REMARK  10 active torsions:
REMARK  status: ('A' for Active; 'I' for Inactive)
REMARK    1  A    between atoms: C_1  and  C_2
REMARK    2  A    between atoms: C_4  and  C_5
REMARK    3  A    between atoms: C_5  and  C_6
REMARK    4  A    between atoms: C_5  and  C_7
REMARK    5  A    between atoms: C_7  and  N_8
REMARK    6  A    between atoms: N_8  and  C_9
REMARK    7  A    between atoms: C_12  and  C_13
REMARK    8  A    between atoms: C_19  and  N_20
REMARK    9  A    between atoms: C_23  and  C_24
REMARK   10  A    between atoms: C_24  and  O_25
REMARK                            x       y       z     vdW  Elec       q    Type
REMARK                         _______ _______ _______ _____ _____    ______ ____
ROOT
ATOM      1  C   UNL     1      45.399   9.782  12.180  0.00  0.00    +0.000 C 
ATOM      2  C   UNL     1      45.993   8.449  12.525  0.00  0.00    +0.000 A 
ATOM      3  C   UNL     1      45.422   7.272  12.034  0.00  0.00    +0.000 A 
ATOM      4  C   UNL     1      45.955   6.017  12.345  0.00  0.00    +0.000 A 
ATOM      5  C   UNL     1      47.088   5.977  13.182  0.00  0.00    +0.000 A 
ATOM      6  C   UNL     1      47.665   7.133  13.732  0.00  0.00    +0.000 A 
ATOM      7  C   UNL     1      47.109   8.365  13.366  0.00  0.00    +0.000 A 
ENDROOT
BRANCH   6   8
ATOM      8  N   UNL     1      48.691   7.072  14.660  0.00  0.00    +0.000 N 
ATOM      9  C   UNL     1      48.584   6.206  15.831  0.00  0.00    +0.000 C 
ATOM     10  C   UNL     1      49.061   6.995  17.050  0.00  0.00    +0.000 C 
ATOM     11  C   UNL     1      50.479   7.561  16.860  0.00  0.00    +0.000 C 
ATOM     12  C   UNL     1      50.563   8.359  15.545  0.00  0.00    +0.000 C 
ATOM     13  C   UNL     1      50.020   7.585  14.341  0.00  0.00    +0.000 C 
BRANCH  11  14
ATOM     14  C   UNL     1      51.547   6.464  16.922  0.00  0.00    +0.000 C 
BRANCH  14  15
ATOM     15  O   UNL     1      52.327   6.594  18.105  0.00  0.00    +0.000 OA
ATOM     16  H   UNL     1      51.722   6.532  18.865  0.00  0.00    +0.000 HD
ENDBRANCH  14  15
ENDBRANCH  11  14
ENDBRANCH   6   8
BRANCH   4  17
ATOM     17  C   UNL     1      45.358   4.709  11.822  0.00  0.00    +0.000 C 
ATOM     18  C   UNL     1      45.532   3.589  12.867  0.00  0.00    +0.000 C 
BRANCH  17  19
ATOM     19  C   UNL     1      43.855   4.751  11.450  0.00  0.00    +0.000 C 
BRANCH  19  20
ATOM     20  N   UNL     1      43.625   4.676  10.003  0.00  0.00    +0.000 N 
ATOM     21  H   UNL     1      43.338   5.561   9.594  0.00  0.00    +0.000 HD
BRANCH  20  22
ATOM     22  C   UNL     1      44.544   3.971   9.218  0.00  0.00    +0.000 A 
ATOM     23  C   UNL     1      45.521   4.603   8.439  0.00  0.00    +0.000 A 
ATOM     24  C   UNL     1      46.455   3.871   7.702  0.00  0.00    +0.000 A 
ATOM     25  C   UNL     1      46.459   2.478   7.760  0.00  0.00    +0.000 A 
ATOM     26  C   UNL     1      45.524   1.826   8.568  0.00  0.00    +0.000 A 
ATOM     27  C   UNL     1      44.589   2.572   9.303  0.00  0.00    +0.000 A 
BRANCH  25  28
ATOM     28  C   UNL     1      47.467   1.756   6.939  0.00  0.00    +0.000 C 
ATOM     29  N   UNL     1      48.499   2.488   6.421  0.00  0.00    +0.000 N 
ATOM     30  O   UNL     1      47.364   0.563   6.693  0.00  0.00    +0.000 OA
ATOM     31  H   UNL     1      48.484   3.497   6.385  0.00  0.00    +0.000 HD
ATOM     32  H   UNL     1      49.096   2.002   5.764  0.00  0.00    +0.000 HD
ENDBRANCH  25  28
ENDBRANCH  20  22
ENDBRANCH  19  20
ENDBRANCH  17  19
ENDBRANCH   4  17
TORSDOF 8
ENDMDL
MODEL 4
REMARK VINA RESULT:    -7.341      3.485      4.335
REMARK INTER + INTRA:         -11.801
REMARK INTER:                 -10.847
REMARK INTRA:                  -0.953
REMARK UNBOUND:                -1.240
REMARK  Name = 
REMARK  10 active torsions:
REMARK  status: ('A' for Active; 'I' for Inactive)
REMARK    1  A    between atoms: C_1  and  C_2
REMARK    2  A    between atoms: C_4  and  C_5
REMARK    3  A    between atoms: C_5  and  C_6
REMARK    4  A    between atoms: C_5  and  C_7
REMARK    5  A    between atoms: C_7  and  N_8
REMARK    6  A    between atoms: N_8  and  C_9
REMARK    7  A    between atoms: C_12  and  C_13
REMARK    8  A    between atoms: C_19  and  N_20
REMARK    9  A    between atoms: C_23  and  C_24
REMARK   10  A    between atoms: C_24  and  O_25
REMARK                            x       y       z     vdW  Elec       q    Type
REMARK                         _______ _______ _______ _____ _____    ______ ____
ROOT
ATOM      1  C   UNL     1      44.556  10.425  11.736  0.00  0.00    +0.000 C 
ATOM      2  C   UNL     1      45.449   9.225  11.829  0.00  0.00    +0.000 A 
ATOM      3  C   UNL     1      44.927   7.940  11.665  0.00  0.00    +0.000 A 
ATOM      4  C   UNL     1      45.740   6.805  11.752  0.00  0.00    +0.000 A 
ATOM      5  C   UNL     1      47.110   7.001  12.020  0.00  0.00    +0.000 A 
ATOM      6  C   UNL     1      47.665   8.272  12.237  0.00  0.00    +0.000 A 
ATOM      7  C   UNL     1      46.813   9.376  12.110  0.00  0.00    +0.000 A 
ENDROOT
BRANCH   6   8
ATOM      8  N   UNL     1      48.981   8.441  12.634  0.00  0.00    +0.000 N 
ATOM      9  C   UNL     1      49.299   9.143  13.875  0.00  0.00    +0.000 C 
ATOM     10  C   UNL     1      50.456  10.102  13.594  0.00  0.00    +0.000 C 
ATOM     11  C   UNL     1      51.675   9.384  12.990  0.00  0.00    +0.000 C 
ATOM     12  C   UNL     1      51.254   8.560  11.760  0.00  0.00    +0.000 C 
ATOM     13  C   UNL     1      50.052   7.651  12.031  0.00  0.00    +0.000 C 
BRANCH  11  14
ATOM     14  C   UNL     1      52.402   8.519  14.026  0.00  0.00    +0.000 C 
BRANCH  14  15
ATOM     15  O   UNL     1      53.319   7.640  13.386  0.00  0.00    +0.000 OA
ATOM     16  H   UNL     1      54.211   7.859  13.709  0.00  0.00    +0.000 HD
ENDBRANCH  14  15
ENDBRANCH  11  14
ENDBRANCH   6   8
BRANCH   4  17
ATOM     17  C   UNL     1      45.203   5.383  11.574  0.00  0.00    +0.000 C 
ATOM     18  C   UNL     1      45.165   4.654  12.931  0.00  0.00    +0.000 C 
BRANCH  17  19
ATOM     19  C   UNL     1      43.786   5.267  10.958  0.00  0.00    +0.000 C 
BRANCH  19  20
ATOM     20  N   UNL     1      43.543   3.961  10.335  0.00  0.00    +0.000 N 
ATOM     21  H   UNL     1      42.580   3.828  10.039  0.00  0.00    +0.000 HD
BRANCH  20  22
ATOM     22  C   UNL     1      44.479   3.477   9.415  0.00  0.00    +0.000 A 
ATOM     23  C   UNL     1      45.196   4.310   8.548  0.00  0.00    +0.000 A 
ATOM     24  C   UNL     1      46.158   3.801   7.673  0.00  0.00    +0.000 A 
ATOM     25  C   UNL     1      46.458   2.439   7.674  0.00  0.00    +0.000 A 
ATOM     26  C   UNL     1      45.790   1.594   8.564  0.00  0.00    +0.000 A 
ATOM     27  C   UNL     1      44.824   2.117   9.437  0.00  0.00    +0.000 A 
BRANCH  25  28
ATOM     28  C   UNL     1      47.479   1.957   6.706  0.00  0.00    +0.000 C 
ATOM     29  N   UNL     1      48.527   2.791   6.427  0.00  0.00    +0.000 N 
ATOM     30  O   UNL     1      47.376   0.877   6.144  0.00  0.00    +0.000 OA
ATOM     31  H   UNL     1      48.518   3.772   6.667  0.00  0.00    +0.000 HD
ATOM     32  H   UNL     1      49.135   2.495   5.675  0.00  0.00    +0.000 HD
ENDBRANCH  25  28
ENDBRANCH  20  22
ENDBRANCH  19  20
ENDBRANCH  17  19
ENDBRANCH   4  17
TORSDOF 8
ENDMDL
MODEL 5
REMARK VINA RESULT:    -6.771      3.219      7.787
REMARK INTER + INTRA:         -10.980
REMARK INTER:                  -9.649
REMARK INTRA:                  -1.330
REMARK UNBOUND:                -1.240
REMARK  Name = 
REMARK  10 active torsions:
REMARK  status: ('A' for Active; 'I' for Inactive)
REMARK    1  A    between atoms: C_1  and  C_2
REMARK    2  A    between atoms: C_4  and  C_5
REMARK    3  A    between atoms: C_5  and  C_6
REMARK    4  A    between atoms: C_5  and  C_7
REMARK    5  A    between atoms: C_7  and  N_8
REMARK    6  A    between atoms: N_8  and  C_9
REMARK    7  A    between atoms: C_12  and  C_13
REMARK    8  A    between atoms: C_19  and  N_20
REMARK    9  A    between atoms: C_23  and  C_24
REMARK   10  A    between atoms: C_24  and  O_25
REMARK                            x       y       z     vdW  Elec       q    Type
REMARK                         _______ _______ _______ _____ _____    ______ ____
ROOT
ATOM      1  C   UNL     1      45.054  11.199  11.654  0.00  0.00    +0.000 C 
ATOM      2  C   UNL     1      45.801   9.916  11.864  0.00  0.00    +0.000 A 
ATOM      3  C   UNL     1      47.193   9.918  11.976  0.00  0.00    +0.000 A 
ATOM      4  C   UNL     1      47.913   8.733  12.167  0.00  0.00    +0.000 A 
ATOM      5  C   UNL     1      47.183   7.530  12.236  0.00  0.00    +0.000 A 
ATOM      6  C   UNL     1      45.787   7.480  12.082  0.00  0.00    +0.000 A 
ATOM      7  C   UNL     1      45.114   8.697  11.921  0.00  0.00    +0.000 A 
ENDROOT
BRANCH   6   8
ATOM      8  N   UNL     1      45.099   6.280  12.014  0.00  0.00    +0.000 N 
ATOM      9  C   UNL     1      43.756   6.225  11.443  0.00  0.00    +0.000 C 
ATOM     10  C   UNL     1      42.886   5.362  12.358  0.00  0.00    +0.000 C 
ATOM     11  C   UNL     1      43.490   3.966  12.587  0.00  0.00    +0.000 C 
ATOM     12  C   UNL     1      44.948   4.087  13.068  0.00  0.00    +0.000 C 
ATOM     13  C   UNL     1      45.794   5.007  12.185  0.00  0.00    +0.000 C 
BRANCH  11  14
ATOM     14  C   UNL     1      43.379   3.081  11.341  0.00  0.00    +0.000 C 
BRANCH  14  15
ATOM     15  O   UNL     1      42.865   1.800  11.683  0.00  0.00    +0.000 OA
ATOM     16  H   UNL     1      43.623   1.207  11.828  0.00  0.00    +0.000 HD
ENDBRANCH  14  15
ENDBRANCH  11  14
ENDBRANCH   6   8
BRANCH   4  17
ATOM     17  C   UNL     1      49.437   8.699  12.297  0.00  0.00    +0.000 C 
ATOM     18  C   UNL     1      49.980  10.117  12.562  0.00  0.00    +0.000 C 
BRANCH  17  19
ATOM     19  C   UNL     1      50.001   7.782  13.412  0.00  0.00    +0.000 C 
BRANCH  19  20
ATOM     20  N   UNL     1      49.406   8.053  14.725  0.00  0.00    +0.000 N 
ATOM     21  H   UNL     1      48.764   8.840  14.724  0.00  0.00    +0.000 HD
BRANCH  20  22
ATOM     22  C   UNL     1      48.957   6.970  15.489  0.00  0.00    +0.000 A 
ATOM     23  C   UNL     1      48.020   6.042  15.017  0.00  0.00    +0.000 A 
ATOM     24  C   UNL     1      47.626   4.944  15.786  0.00  0.00    +0.000 A 
ATOM     25  C   UNL     1      48.195   4.724  17.040  0.00  0.00    +0.000 A 
ATOM     26  C   UNL     1      49.168   5.610  17.512  0.00  0.00    +0.000 A 
ATOM     27  C   UNL     1      49.554   6.710  16.732  0.00  0.00    +0.000 A 
BRANCH  25  28
ATOM     28  C   UNL     1      47.721   3.549  17.816  0.00  0.00    +0.000 C 
ATOM     29  N   UNL     1      48.402   3.230  18.958  0.00  0.00    +0.000 N 
ATOM     30  O   UNL     1      46.785   2.860  17.436  0.00  0.00    +0.000 OA
ATOM     31  H   UNL     1      49.315   3.607  19.168  0.00  0.00    +0.000 HD
ATOM     32  H   UNL     1      48.141   2.356  19.396  0.00  0.00    +0.000 HD
ENDBRANCH  25  28
ENDBRANCH  20  22
ENDBRANCH  19  20
ENDBRANCH  17  19
ENDBRANCH   4  17
TORSDOF 8
ENDMDL
MODEL 6
REMARK VINA RESULT:    -6.586      3.195      7.865
REMARK INTER + INTRA:         -10.714
REMARK INTER:                  -9.183
REMARK INTRA:                  -1.531
REMARK UNBOUND:                -1.240
REMARK  Name = 
REMARK  10 active torsions:
REMARK  status: ('A' for Active; 'I' for Inactive)
REMARK    1  A    between atoms: C_1  and  C_2
REMARK    2  A    between atoms: C_4  and  C_5
REMARK    3  A    between atoms: C_5  and  C_6
REMARK    4  A    between atoms: C_5  and  C_7
REMARK    5  A    between atoms: C_7  and  N_8
REMARK    6  A    between atoms: N_8  and  C_9
REMARK    7  A    between atoms: C_12  and  C_13
REMARK    8  A    between atoms: C_19  and  N_20
REMARK    9  A    between atoms: C_23  and  C_24
REMARK   10  A    between atoms: C_24  and  O_25
REMARK                            x       y       z     vdW  Elec       q    Type
REMARK                         _______ _______ _______ _____ _____    ______ ____
ROOT
ATOM      1  C   UNL     1      51.011   8.079  11.178  0.00  0.00    +0.000 C 
ATOM      2  C   UNL     1      49.973   7.867  12.238  0.00  0.00    +0.000 A 
ATOM      3  C   UNL     1      50.174   8.349  13.533  0.00  0.00    +0.000 A 
ATOM      4  C   UNL     1      49.222   8.159  14.540  0.00  0.00    +0.000 A 
ATOM      5  C   UNL     1      48.048   7.455  14.205  0.00  0.00    +0.000 A 
ATOM      6  C   UNL     1      47.828   6.914  12.928  0.00  0.00    +0.000 A 
ATOM      7  C   UNL     1      48.800   7.157  11.950  0.00  0.00    +0.000 A 
ENDROOT
BRANCH   6   8
ATOM      8  N   UNL     1      46.736   6.108  12.650  0.00  0.00    +0.000 N 
ATOM      9  C   UNL     1      46.273   5.122  13.623  0.00  0.00    +0.000 C 
ATOM     10  C   UNL     1      45.985   3.819  12.878  0.00  0.00    +0.000 C 
ATOM     11  C   UNL     1      44.994   4.018  11.719  0.00  0.00    +0.000 C 
ATOM     12  C   UNL     1      45.471   5.154  10.797  0.00  0.00    +0.000 C 
ATOM     13  C   UNL     1      45.823   6.435  11.559  0.00  0.00    +0.000 C 
BRANCH  11  14
ATOM     14  C   UNL     1      43.566   4.261  12.221  0.00  0.00    +0.000 C 
BRANCH  14  15
ATOM     15  O   UNL     1      42.653   3.383  11.574  0.00  0.00    +0.000 OA
ATOM     16  H   UNL     1      42.911   2.472  11.800  0.00  0.00    +0.000 HD
ENDBRANCH  14  15
ENDBRANCH  11  14
ENDBRANCH   6   8
BRANCH   4  17
ATOM     17  C   UNL     1      49.409   8.677  15.967  0.00  0.00    +0.000 C 
ATOM     18  C   UNL     1      49.661  10.198  15.953  0.00  0.00    +0.000 C 
BRANCH  17  19
ATOM     19  C   UNL     1      48.230   8.424  16.940  0.00  0.00    +0.000 C 
BRANCH  19  20
ATOM     20  N   UNL     1      48.592   7.542  18.055  0.00  0.00    +0.000 N 
ATOM     21  H   UNL     1      47.951   7.601  18.841  0.00  0.00    +0.000 HD
BRANCH  20  22
ATOM     22  C   UNL     1      48.999   6.235  17.765  0.00  0.00    +0.000 A 
ATOM     23  C   UNL     1      50.336   5.822  17.825  0.00  0.00    +0.000 A 
ATOM     24  C   UNL     1      50.705   4.499  17.575  0.00  0.00    +0.000 A 
ATOM     25  C   UNL     1      49.732   3.538  17.297  0.00  0.00    +0.000 A 
ATOM     26  C   UNL     1      48.387   3.916  17.279  0.00  0.00    +0.000 A 
ATOM     27  C   UNL     1      48.028   5.249  17.529  0.00  0.00    +0.000 A 
BRANCH  25  28
ATOM     28  C   UNL     1      50.191   2.151  17.023  0.00  0.00    +0.000 C 
ATOM     29  N   UNL     1      51.045   1.580  17.925  0.00  0.00    +0.000 N 
ATOM     30  O   UNL     1      49.859   1.550  16.012  0.00  0.00    +0.000 OA
ATOM     31  H   UNL     1      51.536   2.119  18.623  0.00  0.00    +0.000 HD
ATOM     32  H   UNL     1      51.441   0.690  17.652  0.00  0.00    +0.000 HD
ENDBRANCH  25  28
ENDBRANCH  20  22
ENDBRANCH  19  20
ENDBRANCH  17  19
ENDBRANCH   4  17
TORSDOF 8
ENDMDL
MODEL 7
REMARK VINA RESULT:    -6.290      3.734      5.554
REMARK INTER + INTRA:         -10.289
REMARK INTER:                  -8.795
REMARK INTRA:                  -1.494
REMARK UNBOUND:                -1.240
REMARK  Name = 
REMARK  10 active torsions:
REMARK  status: ('A' for Active; 'I' for Inactive)
REMARK    1  A    between atoms: C_1  and  C_2
REMARK    2  A    between atoms: C_4  and  C_5
REMARK    3  A    between atoms: C_5  and  C_6
REMARK    4  A    between atoms: C_5  and  C_7
REMARK    5  A    between atoms: C_7  and  N_8
REMARK    6  A    between atoms: N_8  and  C_9
REMARK    7  A    between atoms: C_12  and  C_13
REMARK    8  A    between atoms: C_19  and  N_20
REMARK    9  A    between atoms: C_23  and  C_24
REMARK   10  A    between atoms: C_24  and  O_25
REMARK                            x       y       z     vdW  Elec       q    Type
REMARK                         _______ _______ _______ _____ _____    ______ ____
ROOT
ATOM      1  C   UNL     1      47.327   9.745  19.351  0.00  0.00    +0.000 C 
ATOM      2  C   UNL     1      47.944   9.072  18.162  0.00  0.00    +0.000 A 
ATOM      3  C   UNL     1      48.096   9.762  16.957  0.00  0.00    +0.000 A 
ATOM      4  C   UNL     1      48.664   9.154  15.833  0.00  0.00    +0.000 A 
ATOM      5  C   UNL     1      49.074   7.811  15.954  0.00  0.00    +0.000 A 
ATOM      6  C   UNL     1      48.898   7.068  17.132  0.00  0.00    +0.000 A 
ATOM      7  C   UNL     1      48.350   7.733  18.236  0.00  0.00    +0.000 A 
ENDROOT
BRANCH   6   8
ATOM      8  N   UNL     1      49.178   5.713  17.195  0.00  0.00    +0.000 N 
ATOM      9  C   UNL     1      48.313   4.743  16.529  0.00  0.00    +0.000 C 
ATOM     10  C   UNL     1      48.077   3.578  17.491  0.00  0.00    +0.000 C 
ATOM     11  C   UNL     1      49.394   2.956  17.986  0.00  0.00    +0.000 C 
ATOM     12  C   UNL     1      50.316   4.046  18.562  0.00  0.00    +0.000 C 
ATOM     13  C   UNL     1      50.493   5.240  17.620  0.00  0.00    +0.000 C 
BRANCH  11  14
ATOM     14  C   UNL     1      50.095   2.148  16.888  0.00  0.00    +0.000 C 
BRANCH  14  15
ATOM     15  O   UNL     1      49.144   1.633  15.964  0.00  0.00    +0.000 OA
ATOM     16  H   UNL     1      48.776   0.815  16.344  0.00  0.00    +0.000 HD
ENDBRANCH  14  15
ENDBRANCH  11  14
ENDBRANCH   6   8
BRANCH   4  17
ATOM     17  C   UNL     1      48.848   9.881  14.500  0.00  0.00    +0.000 C 
ATOM     18  C   UNL     1      50.184   9.471  13.849  0.00  0.00    +0.000 C 
BRANCH  17  19
ATOM     19  C   UNL     1      47.740   9.649  13.442  0.00  0.00    +0.000 C 
BRANCH  19  20
ATOM     20  N   UNL     1      47.957   8.436  12.647  0.00  0.00    +0.000 N 
ATOM     21  H   UNL     1      48.922   8.117  12.653  0.00  0.00    +0.000 HD
BRANCH  20  22
ATOM     22  C   UNL     1      47.027   7.395  12.752  0.00  0.00    +0.000 A 
ATOM     23  C   UNL     1      45.684   7.534  12.380  0.00  0.00    +0.000 A 
ATOM     24  C   UNL     1      44.791   6.463  12.453  0.00  0.00    +0.000 A 
ATOM     25  C   UNL     1      45.233   5.206  12.864  0.00  0.00    +0.000 A 
ATOM     26  C   UNL     1      46.579   5.031  13.194  0.00  0.00    +0.000 A 
ATOM     27  C   UNL     1      47.467   6.115  13.120  0.00  0.00    +0.000 A 
BRANCH  25  28
ATOM     28  C   UNL     1      44.229   4.112  12.937  0.00  0.00    +0.000 C 
ATOM     29  N   UNL     1      44.624   2.866  12.537  0.00  0.00    +0.000 N 
ATOM     30  O   UNL     1      43.079   4.314  13.299  0.00  0.00    +0.000 OA
ATOM     31  H   UNL     1      45.467   2.710  12.002  0.00  0.00    +0.000 HD
ATOM     32  H   UNL     1      43.891   2.171  12.475  0.00  0.00    +0.000 HD
ENDBRANCH  25  28
ENDBRANCH  20  22
ENDBRANCH  19  20
ENDBRANCH  17  19
ENDBRANCH   4  17
TORSDOF 8
ENDMDL
MODEL 8
REMARK VINA RESULT:    -6.260      3.347      8.602
REMARK INTER + INTRA:         -10.246
REMARK INTER:                  -9.292
REMARK INTRA:                  -0.954
REMARK UNBOUND:                -1.240
REMARK  Name = 
REMARK  10 active torsions:
REMARK  status: ('A' for Active; 'I' for Inactive)
REMARK    1  A    between atoms: C_1  and  C_2
REMARK    2  A    between atoms: C_4  and  C_5
REMARK    3  A    between atoms: C_5  and  C_6
REMARK    4  A    between atoms: C_5  and  C_7
REMARK    5  A    between atoms: C_7  and  N_8
REMARK    6  A    between atoms: N_8  and  C_9
REMARK    7  A    between atoms: C_12  and  C_13
REMARK    8  A    between atoms: C_19  and  N_20
REMARK    9  A    between atoms: C_23  and  C_24
REMARK   10  A    between atoms: C_24  and  O_25
REMARK                            x       y       z     vdW  Elec       q    Type
REMARK                         _______ _______ _______ _____ _____    ______ ____
ROOT
ATOM      1  C   UNL     1      50.490   8.481  11.681  0.00  0.00    +0.000 C 
ATOM      2  C   UNL     1      49.598   7.742  12.634  0.00  0.00    +0.000 A 
ATOM      3  C   UNL     1      49.958   7.602  13.976  0.00  0.00    +0.000 A 
ATOM      4  C   UNL     1      49.144   6.913  14.882  0.00  0.00    +0.000 A 
ATOM      5  C   UNL     1      47.946   6.356  14.392  0.00  0.00    +0.000 A 
ATOM      6  C   UNL     1      47.570   6.436  13.041  0.00  0.00    +0.000 A 
ATOM      7  C   UNL     1      48.406   7.160  12.183  0.00  0.00    +0.000 A 
ENDROOT
BRANCH   6   8
ATOM      8  N   UNL     1      46.462   5.769  12.547  0.00  0.00    +0.000 N 
ATOM      9  C   UNL     1      45.982   6.027  11.192  0.00  0.00    +0.000 C 
ATOM     10  C   UNL     1      44.460   6.159  11.245  0.00  0.00    +0.000 C 
ATOM     11  C   UNL     1      43.790   4.932  11.887  0.00  0.00    +0.000 C 
ATOM     12  C   UNL     1      44.424   4.634  13.258  0.00  0.00    +0.000 C 
ATOM     13  C   UNL     1      45.954   4.570  13.208  0.00  0.00    +0.000 C 
BRANCH  11  14
ATOM     14  C   UNL     1      43.835   3.707  10.967  0.00  0.00    +0.000 C 
BRANCH  14  15
ATOM     15  O   UNL     1      42.858   2.752  11.361  0.00  0.00    +0.000 OA
ATOM     16  H   UNL     1      43.223   1.867  11.184  0.00  0.00    +0.000 HD
ENDBRANCH  14  15
ENDBRANCH  11  14
ENDBRANCH   6   8
BRANCH   4  17
ATOM     17  C   UNL     1      49.506   6.743  16.359  0.00  0.00    +0.000 C 
ATOM     18  C   UNL     1      48.464   5.852  17.063  0.00  0.00    +0.000 C 
BRANCH  17  19
ATOM     19  C   UNL     1      50.897   6.126  16.649  0.00  0.00    +0.000 C 
BRANCH  19  20
ATOM     20  N   UNL     1      50.910   5.294  17.857  0.00  0.00    +0.000 N 
ATOM     21  H   UNL     1      50.013   5.263  18.335  0.00  0.00    +0.000 HD
BRANCH  20  22
ATOM     22  C   UNL     1      51.556   4.054  17.805  0.00  0.00    +0.000 A 
ATOM     23  C   UNL     1      52.861   3.855  18.271  0.00  0.00    +0.000 A 
ATOM     24  C   UNL     1      53.462   2.595  18.248  0.00  0.00    +0.000 A 
ATOM     25  C   UNL     1      52.751   1.485  17.792  0.00  0.00    +0.000 A 
ATOM     26  C   UNL     1      51.431   1.650  17.366  0.00  0.00    +0.000 A 
ATOM     27  C   UNL     1      50.838   2.922  17.392  0.00  0.00    +0.000 A 
BRANCH  25  28
ATOM     28  C   UNL     1      53.453   0.175  17.776  0.00  0.00    +0.000 C 
ATOM     29  N   UNL     1      53.910  -0.281  16.570  0.00  0.00    +0.000 N 
ATOM     30  O   UNL     1      53.585  -0.498  18.787  0.00  0.00    +0.000 OA
ATOM     31  H   UNL     1      53.605   0.111  15.691  0.00  0.00    +0.000 HD
ATOM     32  H   UNL     1      54.268  -1.227  16.566  0.00  0.00    +0.000 HD
ENDBRANCH  25  28
ENDBRANCH  20  22
ENDBRANCH  19  20
ENDBRANCH  17  19
ENDBRANCH   4  17
TORSDOF 8
ENDMDL
