MODEL 1
REMARK VINA RESULT:    -7.806      0.000      0.000
REMARK INTER + INTRA:         -11.813
REMARK INTER:                 -10.545
REMARK INTRA:                  -1.269
REMARK UNBOUND:                -1.269
REMARK  Name = 
REMARK  7 active torsions:
REMARK  status: ('A' for Active; 'I' for Inactive)
REMARK    1  A    between atoms: C_1  and  N_2
REMARK    2  A    between atoms: N_2  and  C_3
REMARK    3  A    between atoms: C_3  and  C_4
REMARK    4  A    between atoms: C_7  and  C_8
REMARK    5  A    between atoms: C_8  and  C_9
REMARK    6  A    between atoms: C_9  and  C_10
REMARK    7  A    between atoms: C_18  and  C_20
REMARK                            x       y       z     vdW  Elec       q    Type
REMARK                         _______ _______ _______ _____ _____    ______ ____
ROOT
ATOM      1  C   UNL     1      46.379   8.531  12.149  0.00  0.00    +0.000 C 
ATOM      2  N   UNL     1      46.196   7.092  11.966  0.00  0.00    +0.000 N 
ATOM      3  C   UNL     1      44.876   6.697  11.657  0.00  0.00    +0.000 C 
ATOM      4  O   UNL     1      43.976   7.525  11.511  0.00  0.00    +0.000 OA
ENDROOT
BRANCH   3   5
ATOM      5  C   UNL     1      44.548   5.267  11.543  0.00  0.00    +0.000 A 
ATOM      6  C   UNL     1      43.793   4.549  12.457  0.00  0.00    +0.000 A 
ATOM      7  S   UNL     1      43.541   2.921  12.016  0.00  0.00    +0.000 S 
ATOM      8  C   UNL     1      44.285   3.167  10.506  0.00  0.00    +0.000 A 
ATOM      9  N   UNL     1      44.304   2.176   9.575  0.00  0.00    +0.000 NA
ATOM     10  C   UNL     1      44.828   2.529   8.447  0.00  0.00    +0.000 A 
ATOM     11  N   UNL     1      45.370   3.763   8.185  0.00  0.00    +0.000 N 
ATOM     12  C   UNL     1      45.493   4.748   9.143  0.00  0.00    +0.000 A 
ATOM     13  O   UNL     1      46.183   5.741   8.943  0.00  0.00    +0.000 OA
ATOM     14  C   UNL     1      44.809   4.439  10.390  0.00  0.00    +0.000 A 
ATOM     15  H   UNL     1      45.822   3.953   7.302  0.00  0.00    +0.000 HD
ENDBRANCH   3   5
BRANCH   2  16
ATOM     16  C   UNL     1      47.279   6.154  12.292  0.00  0.00    +0.000 C 
BRANCH  16  17
ATOM     17  C   UNL     1      47.479   5.819  13.744  0.00  0.00    +0.000 A 
ATOM     18  C   UNL     1      48.322   6.612  14.535  0.00  0.00    +0.000 A 
ATOM     19  C   UNL     1      48.629   6.236  15.841  0.00  0.00    +0.000 A 
ATOM     20  C   UNL     1      48.084   5.070  16.394  0.00  0.00    +0.000 A 
ATOM     21  C   UNL     1      47.198   4.308  15.614  0.00  0.00    +0.000 A 
ATOM     22  C   UNL     1      46.896   4.679  14.303  0.00  0.00    +0.000 A 
BRANCH  20  23
ATOM     23  C   UNL     1      48.502   4.543  17.748  0.00  0.00    +0.000 C 
BRANCH  23  24
ATOM     24  C   UNL     1      49.978   4.756  18.103  0.00  0.00    +0.000 C 
BRANCH  24  25
ATOM     25  C   UNL     1      50.796   3.513  17.889  0.00  0.00    +0.000 A 
ATOM     26  C   UNL     1      52.150   3.474  18.227  0.00  0.00    +0.000 A 
ATOM     27  C   UNL     1      52.879   2.308  18.008  0.00  0.00    +0.000 A 
ATOM     28  C   UNL     1      52.221   1.216  17.466  0.00  0.00    +0.000 A 
ATOM     29  N   UNL     1      50.909   1.211  17.145  0.00  0.00    +0.000 NA
ATOM     30  C   UNL     1      50.229   2.356  17.365  0.00  0.00    +0.000 A 
ENDBRANCH  24  25
ENDBRANCH  23  24
ENDBRANCH  20  23
ENDBRANCH  16  17
ENDBRANCH   2  16
TORSDOF 6
ENDMDL
MODEL 2
REMARK VINA RESULT:    -7.717      3.748      8.387
REMARK INTER + INTRA:         -11.693
REMARK INTER:                 -10.563
REMARK INTRA:                  -1.130
REMARK UNBOUND:                -1.269
REMARK  Name = 
REMARK  7 active torsions:
REMARK  status: ('A' for Active; 'I' for Inactive)
REMARK    1  A    between atoms: C_1  and  N_2
REMARK    2  A    between atoms: N_2  and  C_3
REMARK    3  A    between atoms: C_3  and  C_4
REMARK    4  A    between atoms: C_7  and  C_8
REMARK    5  A    between atoms: C_8  and  C_9
REMARK    6  A    between atoms: C_9  and  C_10
REMARK    7  A    between atoms: C_18  and  C_20
REMARK                            x       y       z     vdW  Elec       q    Type
REMARK                         _______ _______ _______ _____ _____    ______ ____
ROOT
ATOM      1  C   UNL     1      49.626   7.152  12.533  0.00  0.00    +0.000 C 
ATOM      2  N   UNL     1      48.907   7.545  13.743  0.00  0.00    +0.000 N 
ATOM      3  C   UNL     1      49.724   7.782  14.869  0.00  0.00    +0.000 C 
ATOM      4  O   UNL     1      50.952   7.703  14.799  0.00  0.00    +0.000 OA
ENDROOT
BRANCH   3   5
ATOM      5  C   UNL     1      49.109   8.092  16.169  0.00  0.00    +0.000 A 
ATOM      6  C   UNL     1      48.738   9.360  16.591  0.00  0.00    +0.000 A 
ATOM      7  S   UNL     1      47.998   9.386  18.127  0.00  0.00    +0.000 S 
ATOM      8  C   UNL     1      47.991   7.687  18.204  0.00  0.00    +0.000 A 
ATOM      9  N   UNL     1      47.384   7.044  19.237  0.00  0.00    +0.000 NA
ATOM     10  C   UNL     1      47.384   5.756  19.122  0.00  0.00    +0.000 A 
ATOM     11  N   UNL     1      47.972   5.058  18.097  0.00  0.00    +0.000 N 
ATOM     12  C   UNL     1      48.714   5.665  17.105  0.00  0.00    +0.000 A 
ATOM     13  O   UNL     1      49.412   5.005  16.345  0.00  0.00    +0.000 OA
ATOM     14  C   UNL     1      48.639   7.119  17.125  0.00  0.00    +0.000 A 
ATOM     15  H   UNL     1      47.992   4.049  18.101  0.00  0.00    +0.000 HD
ENDBRANCH   3   5
BRANCH   2  16
ATOM     16  C   UNL     1      47.440   7.484  13.793  0.00  0.00    +0.000 C 
BRANCH  16  17
ATOM     17  C   UNL     1      46.765   6.505  12.871  0.00  0.00    +0.000 A 
ATOM     18  C   UNL     1      46.360   6.914  11.592  0.00  0.00    +0.000 A 
ATOM     19  C   UNL     1      45.611   6.064  10.781  0.00  0.00    +0.000 A 
ATOM     20  C   UNL     1      45.267   4.779  11.221  0.00  0.00    +0.000 A 
ATOM     21  C   UNL     1      45.721   4.357  12.481  0.00  0.00    +0.000 A 
ATOM     22  C   UNL     1      46.464   5.210  13.299  0.00  0.00    +0.000 A 
BRANCH  20  23
ATOM     23  C   UNL     1      44.333   3.880  10.442  0.00  0.00    +0.000 C 
BRANCH  23  24
ATOM     24  C   UNL     1      44.415   4.017   8.918  0.00  0.00    +0.000 C 
BRANCH  24  25
ATOM     25  C   UNL     1      45.435   3.090   8.320  0.00  0.00    +0.000 A 
ATOM     26  C   UNL     1      46.358   3.545   7.376  0.00  0.00    +0.000 A 
ATOM     27  C   UNL     1      47.284   2.657   6.838  0.00  0.00    +0.000 A 
ATOM     28  C   UNL     1      47.260   1.341   7.272  0.00  0.00    +0.000 A 
ATOM     29  N   UNL     1      46.396   0.870   8.197  0.00  0.00    +0.000 NA
ATOM     30  C   UNL     1      45.507   1.753   8.699  0.00  0.00    +0.000 A 
ENDBRANCH  24  25
ENDBRANCH  23  24
ENDBRANCH  20  23
ENDBRANCH  16  17
ENDBRANCH   2  16
TORSDOF 6
ENDMDL
MODEL 3
REMARK VINA RESULT:    -7.433      3.314      8.457
REMARK INTER + INTRA:         -11.310
REMARK INTER:                 -10.288
REMARK INTRA:                  -1.021
REMARK UNBOUND:                -1.269
REMARK  Name = 
REMARK  7 active torsions:
REMARK  status: ('A' for Active; 'I' for Inactive)
REMARK    1  A    between atoms: C_1  and  N_2
REMARK    2  A    between atoms: N_2  and  C_3
REMARK    3  A    between atoms: C_3  and  C_4
REMARK    4  A    between atoms: C_7  and  C_8
REMARK    5  A    between atoms: C_8  and  C_9
REMARK    6  A    between atoms: C_9  and  C_10
REMARK    7  A    between atoms: C_18  and  C_20
REMARK                            x       y       z     vdW  Elec       q    Type
REMARK                         _______ _______ _______ _____ _____    ______ ____
ROOT
ATOM      1  C   UNL     1      46.877   8.681  13.976  0.00  0.00    +0.000 C 
ATOM      2  N   UNL     1      48.004   7.806  14.290  0.00  0.00    +0.000 N 
ATOM      3  C   UNL     1      48.835   8.261  15.337  0.00  0.00    +0.000 C 
ATOM      4  O   UNL     1      48.581   9.297  15.954  0.00  0.00    +0.000 OA
ENDROOT
BRANCH   3   5
ATOM      5  C   UNL     1      50.054   7.513  15.682  0.00  0.00    +0.000 A 
ATOM      6  C   UNL     1      51.349   7.950  15.446  0.00  0.00    +0.000 A 
ATOM      7  S   UNL     1      52.551   6.880  16.012  0.00  0.00    +0.000 S 
ATOM      8  C   UNL     1      51.385   5.882  16.743  0.00  0.00    +0.000 A 
ATOM      9  N   UNL     1      51.762   4.822  17.507  0.00  0.00    +0.000 NA
ATOM     10  C   UNL     1      50.774   4.203  18.066  0.00  0.00    +0.000 A 
ATOM     11  N   UNL     1      49.450   4.523  17.897  0.00  0.00    +0.000 N 
ATOM     12  C   UNL     1      49.019   5.502  17.026  0.00  0.00    +0.000 A 
ATOM     13  O   UNL     1      47.836   5.604  16.726  0.00  0.00    +0.000 OA
ATOM     14  C   UNL     1      50.098   6.303  16.467  0.00  0.00    +0.000 A 
ATOM     15  H   UNL     1      48.723   3.958  18.312  0.00  0.00    +0.000 HD
ENDBRANCH   3   5
BRANCH   2  16
ATOM     16  C   UNL     1      48.326   6.662  13.426  0.00  0.00    +0.000 C 
BRANCH  16  17
ATOM     17  C   UNL     1      47.190   6.052  12.650  0.00  0.00    +0.000 A 
ATOM     18  C   UNL     1      46.526   4.925  13.153  0.00  0.00    +0.000 A 
ATOM     19  C   UNL     1      45.570   4.264  12.384  0.00  0.00    +0.000 A 
ATOM     20  C   UNL     1      45.240   4.729  11.104  0.00  0.00    +0.000 A 
ATOM     21  C   UNL     1      45.871   5.889  10.627  0.00  0.00    +0.000 A 
ATOM     22  C   UNL     1      46.836   6.547  11.392  0.00  0.00    +0.000 A 
BRANCH  20  23
ATOM     23  C   UNL     1      44.322   3.964  10.177  0.00  0.00    +0.000 C 
BRANCH  23  24
ATOM     24  C   UNL     1      44.593   4.161   8.681  0.00  0.00    +0.000 C 
BRANCH  24  25
ATOM     25  C   UNL     1      45.565   3.148   8.143  0.00  0.00    +0.000 A 
ATOM     26  C   UNL     1      46.518   3.500   7.187  0.00  0.00    +0.000 A 
ATOM     27  C   UNL     1      47.397   2.534   6.706  0.00  0.00    +0.000 A 
ATOM     28  C   UNL     1      47.296   1.246   7.208  0.00  0.00    +0.000 A 
ATOM     29  N   UNL     1      46.399   0.874   8.147  0.00  0.00    +0.000 NA
ATOM     30  C   UNL     1      45.558   1.831   8.593  0.00  0.00    +0.000 A 
ENDBRANCH  24  25
ENDBRANCH  23  24
ENDBRANCH  20  23
ENDBRANCH  16  17
ENDBRANCH   2  16
TORSDOF 6
ENDMDL
MODEL 4
REMARK VINA RESULT:    -7.412      3.585      8.541
REMARK INTER + INTRA:         -11.281
REMARK INTER:                 -10.224
REMARK INTRA:                  -1.057
REMARK UNBOUND:                -1.269
REMARK  Name = 
REMARK  7 active torsions:
REMARK  status: ('A' for Active; 'I' for Inactive)
REMARK    1  A    between atoms: C_1  and  N_2
REMARK    2  A    between atoms: N_2  and  C_3
REMARK    3  A    between atoms: C_3  and  C_4
REMARK    4  A    between atoms: C_7  and  C_8
REMARK    5  A    between atoms: C_8  and  C_9
REMARK    6  A    between atoms: C_9  and  C_10
REMARK    7  A    between atoms: C_18  and  C_20
REMARK                            x       y       z     vdW  Elec       q    Type
REMARK                         _______ _______ _______ _____ _____    ______ ____
ROOT
ATOM      1  C   UNL     1      48.811   7.687  12.652  0.00  0.00    +0.000 C 
ATOM      2  N   UNL     1      48.092   7.100  13.782  0.00  0.00    +0.000 N 
ATOM      3  C   UNL     1      48.914   6.642  14.835  0.00  0.00    +0.000 C 
ATOM      4  O   UNL     1      50.138   6.781  14.800  0.00  0.00    +0.000 OA
ENDROOT
BRANCH   3   5
ATOM      5  C   UNL     1      48.313   5.947  15.984  0.00  0.00    +0.000 A 
ATOM      6  C   UNL     1      47.878   4.630  15.979  0.00  0.00    +0.000 A 
ATOM      7  S   UNL     1      47.277   4.097  17.483  0.00  0.00    +0.000 S 
ATOM      8  C   UNL     1      47.737   5.551  18.235  0.00  0.00    +0.000 A 
ATOM      9  N   UNL     1      47.603   5.707  19.579  0.00  0.00    +0.000 NA
ATOM     10  C   UNL     1      48.070   6.829  20.023  0.00  0.00    +0.000 A 
ATOM     11  N   UNL     1      48.614   7.818  19.243  0.00  0.00    +0.000 N 
ATOM     12  C   UNL     1      48.644   7.756  17.865  0.00  0.00    +0.000 A 
ATOM     13  O   UNL     1      48.920   8.744  17.194  0.00  0.00    +0.000 OA
ATOM     14  C   UNL     1      48.241   6.464  17.329  0.00  0.00    +0.000 A 
ATOM     15  H   UNL     1      48.901   8.698  19.646  0.00  0.00    +0.000 HD
ENDBRANCH   3   5
BRANCH   2  16
ATOM     16  C   UNL     1      46.649   6.840  13.695  0.00  0.00    +0.000 C 
BRANCH  16  17
ATOM     17  C   UNL     1      46.184   5.930  12.591  0.00  0.00    +0.000 A 
ATOM     18  C   UNL     1      45.862   6.462  11.335  0.00  0.00    +0.000 A 
ATOM     19  C   UNL     1      45.297   5.657  10.348  0.00  0.00    +0.000 A 
ATOM     20  C   UNL     1      45.060   4.297  10.586  0.00  0.00    +0.000 A 
ATOM     21  C   UNL     1      45.434   3.759  11.829  0.00  0.00    +0.000 A 
ATOM     22  C   UNL     1      45.992   4.565  12.822  0.00  0.00    +0.000 A 
BRANCH  20  23
ATOM     23  C   UNL     1      44.316   3.421   9.605  0.00  0.00    +0.000 C 
BRANCH  23  24
ATOM     24  C   UNL     1      44.973   2.069   9.308  0.00  0.00    +0.000 C 
BRANCH  24  25
ATOM     25  C   UNL     1      45.885   2.133   8.114  0.00  0.00    +0.000 A 
ATOM     26  C   UNL     1      45.895   3.246   7.272  0.00  0.00    +0.000 A 
ATOM     27  C   UNL     1      46.746   3.267   6.172  0.00  0.00    +0.000 A 
ATOM     28  C   UNL     1      47.568   2.172   5.957  0.00  0.00    +0.000 A 
ATOM     29  N   UNL     1      47.599   1.087   6.761  0.00  0.00    +0.000 NA
ATOM     30  C   UNL     1      46.761   1.093   7.818  0.00  0.00    +0.000 A 
ENDBRANCH  24  25
ENDBRANCH  23  24
ENDBRANCH  20  23
ENDBRANCH  16  17
ENDBRANCH   2  16
TORSDOF 6
ENDMDL
MODEL 5
REMARK VINA RESULT:    -7.385      4.143      8.650
REMARK INTER + INTRA:         -11.245
REMARK INTER:                 -10.289
REMARK INTRA:                  -0.956
REMARK UNBOUND:                -1.269
REMARK  Name = 
REMARK  7 active torsions:
REMARK  status: ('A' for Active; 'I' for Inactive)
REMARK    1  A    between atoms: C_1  and  N_2
REMARK    2  A    between atoms: N_2  and  C_3
REMARK    3  A    between atoms: C_3  and  C_4
REMARK    4  A    between atoms: C_7  and  C_8
REMARK    5  A    between atoms: C_8  and  C_9
REMARK    6  A    between atoms: C_9  and  C_10
REMARK    7  A    between atoms: C_18  and  C_20
REMARK                            x       y       z     vdW  Elec       q    Type
REMARK                         _______ _______ _______ _____ _____    ______ ____
ROOT
ATOM      1  C   UNL     1      47.339   5.149  14.851  0.00  0.00    +0.000 C 
ATOM      2  N   UNL     1      47.492   6.320  13.989  0.00  0.00    +0.000 N 
ATOM      3  C   UNL     1      48.752   6.952  14.064  0.00  0.00    +0.000 C 
ATOM      4  O   UNL     1      49.653   6.504  14.776  0.00  0.00    +0.000 OA
ENDROOT
BRANCH   3   5
ATOM      5  C   UNL     1      48.994   8.194  13.314  0.00  0.00    +0.000 A 
ATOM      6  C   UNL     1      49.087   8.285  11.933  0.00  0.00    +0.000 A 
ATOM      7  S   UNL     1      49.318   9.874  11.360  0.00  0.00    +0.000 S 
ATOM      8  C   UNL     1      49.128  10.515  12.924  0.00  0.00    +0.000 A 
ATOM      9  N   UNL     1      49.104  11.860  13.122  0.00  0.00    +0.000 NA
ATOM     10  C   UNL     1      48.870  12.203  14.347  0.00  0.00    +0.000 A 
ATOM     11  N   UNL     1      48.703  11.328  15.390  0.00  0.00    +0.000 N 
ATOM     12  C   UNL     1      48.856   9.963  15.257  0.00  0.00    +0.000 A 
ATOM     13  O   UNL     1      48.930   9.237  16.241  0.00  0.00    +0.000 OA
ATOM     14  C   UNL     1      48.999   9.523  13.877  0.00  0.00    +0.000 A 
ATOM     15  H   UNL     1      48.588  11.664  16.335  0.00  0.00    +0.000 HD
ENDBRANCH   3   5
BRANCH   2  16
ATOM     16  C   UNL     1      46.336   6.878  13.275  0.00  0.00    +0.000 C 
BRANCH  16  17
ATOM     17  C   UNL     1      45.710   6.019  12.210  0.00  0.00    +0.000 A 
ATOM     18  C   UNL     1      44.844   4.978  12.572  0.00  0.00    +0.000 A 
ATOM     19  C   UNL     1      44.369   4.086  11.612  0.00  0.00    +0.000 A 
ATOM     20  C   UNL     1      44.730   4.229  10.266  0.00  0.00    +0.000 A 
ATOM     21  C   UNL     1      45.555   5.306   9.903  0.00  0.00    +0.000 A 
ATOM     22  C   UNL     1      46.040   6.195  10.864  0.00  0.00    +0.000 A 
BRANCH  20  23
ATOM     23  C   UNL     1      44.363   3.205   9.216  0.00  0.00    +0.000 C 
BRANCH  23  24
ATOM     24  C   UNL     1      45.353   2.046   9.060  0.00  0.00    +0.000 C 
BRANCH  24  25
ATOM     25  C   UNL     1      46.188   2.177   7.817  0.00  0.00    +0.000 A 
ATOM     26  C   UNL     1      46.039   3.269   6.960  0.00  0.00    +0.000 A 
ATOM     27  C   UNL     1      46.824   3.354   5.814  0.00  0.00    +0.000 A 
ATOM     28  C   UNL     1      47.741   2.344   5.570  0.00  0.00    +0.000 A 
ATOM     29  N   UNL     1      47.925   1.284   6.386  0.00  0.00    +0.000 NA
ATOM     30  C   UNL     1      47.148   1.226   7.488  0.00  0.00    +0.000 A 
ENDBRANCH  24  25
ENDBRANCH  23  24
ENDBRANCH  20  23
ENDBRANCH  16  17
ENDBRANCH   2  16
TORSDOF 6
ENDMDL
MODEL 6
REMARK VINA RESULT:    -7.354      3.036      8.313
REMARK INTER + INTRA:         -11.202
REMARK INTER:                 -10.012
REMARK INTRA:                  -1.189
REMARK UNBOUND:                -1.269
REMARK  Name = 
REMARK  7 active torsions:
REMARK  status: ('A' for Active; 'I' for Inactive)
REMARK    1  A    between atoms: C_1  and  N_2
REMARK    2  A    between atoms: N_2  and  C_3
REMARK    3  A    between atoms: C_3  and  C_4
REMARK    4  A    between atoms: C_7  and  C_8
REMARK    5  A    between atoms: C_8  and  C_9
REMARK    6  A    between atoms: C_9  and  C_10
REMARK    7  A    between atoms: C_18  and  C_20
REMARK                            x       y       z     vdW  Elec       q    Type
REMARK                         _______ _______ _______ _____ _____    ______ ____
ROOT
ATOM      1  C   UNL     1      48.275   8.732  14.395  0.00  0.00    +0.000 C 
ATOM      2  N   UNL     1      48.353   7.329  14.800  0.00  0.00    +0.000 N 
ATOM      3  C   UNL     1      48.468   7.118  16.191  0.00  0.00    +0.000 C 
ATOM      4  O   UNL     1      48.454   8.060  16.986  0.00  0.00    +0.000 OA
ENDROOT
BRANCH   3   5
ATOM      5  C   UNL     1      48.648   5.755  16.713  0.00  0.00    +0.000 A 
ATOM      6  C   UNL     1      47.660   4.783  16.758  0.00  0.00    +0.000 A 
ATOM      7  S   UNL     1      48.194   3.283  17.368  0.00  0.00    +0.000 S 
ATOM      8  C   UNL     1      49.804   3.829  17.430  0.00  0.00    +0.000 A 
ATOM      9  N   UNL     1      50.810   2.980  17.769  0.00  0.00    +0.000 NA
ATOM     10  C   UNL     1      51.987   3.509  17.694  0.00  0.00    +0.000 A 
ATOM     11  N   UNL     1      52.242   4.815  17.355  0.00  0.00    +0.000 N 
ATOM     12  C   UNL     1      51.244   5.742  17.138  0.00  0.00    +0.000 A 
ATOM     13  O   UNL     1      51.499   6.939  17.068  0.00  0.00    +0.000 OA
ATOM     14  C   UNL     1      49.909   5.165  17.093  0.00  0.00    +0.000 A 
ATOM     15  H   UNL     1      53.182   5.182  17.379  0.00  0.00    +0.000 HD
ENDBRANCH   3   5
BRANCH   2  16
ATOM     16  C   UNL     1      48.504   6.269  13.794  0.00  0.00    +0.000 C 
BRANCH  16  17
ATOM     17  C   UNL     1      47.291   5.930  12.972  0.00  0.00    +0.000 A 
ATOM     18  C   UNL     1      46.472   4.855  13.344  0.00  0.00    +0.000 A 
ATOM     19  C   UNL     1      45.429   4.440  12.518  0.00  0.00    +0.000 A 
ATOM     20  C   UNL     1      45.168   5.104  11.312  0.00  0.00    +0.000 A 
ATOM     21  C   UNL     1      45.959   6.213  10.972  0.00  0.00    +0.000 A 
ATOM     22  C   UNL     1      47.009   6.625  11.793  0.00  0.00    +0.000 A 
BRANCH  20  23
ATOM     23  C   UNL     1      44.147   4.600  10.316  0.00  0.00    +0.000 C 
BRANCH  23  24
ATOM     24  C   UNL     1      44.254   3.112   9.968  0.00  0.00    +0.000 C 
BRANCH  24  25
ATOM     25  C   UNL     1      45.251   2.857   8.872  0.00  0.00    +0.000 A 
ATOM     26  C   UNL     1      45.688   3.888   8.040  0.00  0.00    +0.000 A 
ATOM     27  C   UNL     1      46.606   3.614   7.030  0.00  0.00    +0.000 A 
ATOM     28  C   UNL     1      47.063   2.313   6.895  0.00  0.00    +0.000 A 
ATOM     29  N   UNL     1      46.677   1.294   7.694  0.00  0.00    +0.000 NA
ATOM     30  C   UNL     1      45.784   1.589   8.662  0.00  0.00    +0.000 A 
ENDBRANCH  24  25
ENDBRANCH  23  24
ENDBRANCH  20  23
ENDBRANCH  16  17
ENDBRANCH   2  16
TORSDOF 6
ENDMDL
MODEL 7
REMARK VINA RESULT:    -7.332      1.520      2.267
REMARK INTER + INTRA:         -11.173
REMARK INTER:                  -9.873
REMARK INTRA:                  -1.300
REMARK UNBOUND:                -1.269
REMARK  Name = 
REMARK  7 active torsions:
REMARK  status: ('A' for Active; 'I' for Inactive)
REMARK    1  A    between atoms: C_1  and  N_2
REMARK    2  A    between atoms: N_2  and  C_3
REMARK    3  A    between atoms: C_3  and  C_4
REMARK    4  A    between atoms: C_7  and  C_8
REMARK    5  A    between atoms: C_8  and  C_9
REMARK    6  A    between atoms: C_9  and  C_10
REMARK    7  A    between atoms: C_18  and  C_20
REMARK                            x       y       z     vdW  Elec       q    Type
REMARK                         _______ _______ _______ _____ _____    ______ ____
ROOT
ATOM      1  C   UNL     1      46.421   8.851  12.914  0.00  0.00    +0.000 C 
ATOM      2  N   UNL     1      46.401   7.589  12.177  0.00  0.00    +0.000 N 
ATOM      3  C   UNL     1      45.210   7.337  11.462  0.00  0.00    +0.000 C 
ATOM      4  O   UNL     1      44.291   8.157  11.438  0.00  0.00    +0.000 OA
ENDROOT
BRANCH   3   5
ATOM      5  C   UNL     1      45.036   6.057  10.758  0.00  0.00    +0.000 A 
ATOM      6  C   UNL     1      45.630   5.725   9.550  0.00  0.00    +0.000 A 
ATOM      7  S   UNL     1      45.276   4.144   9.018  0.00  0.00    +0.000 S 
ATOM      8  C   UNL     1      44.459   3.790  10.467  0.00  0.00    +0.000 A 
ATOM      9  N   UNL     1      43.994   2.535  10.710  0.00  0.00    +0.000 NA
ATOM     10  C   UNL     1      43.469   2.391  11.883  0.00  0.00    +0.000 A 
ATOM     11  N   UNL     1      43.330   3.393  12.810  0.00  0.00    +0.000 N 
ATOM     12  C   UNL     1      43.664   4.707  12.552  0.00  0.00    +0.000 A 
ATOM     13  O   UNL     1      43.315   5.607  13.306  0.00  0.00    +0.000 OA
ATOM     14  C   UNL     1      44.368   4.894  11.292  0.00  0.00    +0.000 A 
ATOM     15  H   UNL     1      42.852   3.228  13.684  0.00  0.00    +0.000 HD
ENDBRANCH   3   5
BRANCH   2  16
ATOM     16  C   UNL     1      47.472   6.600  12.362  0.00  0.00    +0.000 C 
BRANCH  16  17
ATOM     17  C   UNL     1      47.550   5.919  13.701  0.00  0.00    +0.000 A 
ATOM     18  C   UNL     1      48.318   6.484  14.729  0.00  0.00    +0.000 A 
ATOM     19  C   UNL     1      48.515   5.797  15.925  0.00  0.00    +0.000 A 
ATOM     20  C   UNL     1      47.930   4.540  16.130  0.00  0.00    +0.000 A 
ATOM     21  C   UNL     1      47.119   4.004  15.117  0.00  0.00    +0.000 A 
ATOM     22  C   UNL     1      46.927   4.687  13.914  0.00  0.00    +0.000 A 
BRANCH  20  23
ATOM     23  C   UNL     1      48.235   3.694  17.345  0.00  0.00    +0.000 C 
BRANCH  23  24
ATOM     24  C   UNL     1      48.963   2.377  17.058  0.00  0.00    +0.000 C 
BRANCH  24  25
ATOM     25  C   UNL     1      50.421   2.445  17.418  0.00  0.00    +0.000 A 
ATOM     26  C   UNL     1      51.223   1.302  17.401  0.00  0.00    +0.000 A 
ATOM     27  C   UNL     1      52.567   1.401  17.748  0.00  0.00    +0.000 A 
ATOM     28  C   UNL     1      53.065   2.648  18.092  0.00  0.00    +0.000 A 
ATOM     29  N   UNL     1      52.325   3.777  18.101  0.00  0.00    +0.000 NA
ATOM     30  C   UNL     1      51.024   3.650  17.763  0.00  0.00    +0.000 A 
ENDBRANCH  24  25
ENDBRANCH  23  24
ENDBRANCH  20  23
ENDBRANCH  16  17
ENDBRANCH   2  16
TORSDOF 6
ENDMDL
MODEL 8
REMARK VINA RESULT:    -7.286      4.037      8.308
REMARK INTER + INTRA:         -11.111
REMARK INTER:                 -10.086
REMARK INTRA:                  -1.025
REMARK UNBOUND:                -1.269
REMARK  Name = 
REMARK  7 active torsions:
REMARK  status: ('A' for Active; 'I' for Inactive)
REMARK    1  A    between atoms: C_1  and  N_2
REMARK    2  A    between atoms: N_2  and  C_3
REMARK    3  A    between atoms: C_3  and  C_4
REMARK    4  A    between atoms: C_7  and  C_8
REMARK    5  A    between atoms: C_8  and  C_9
REMARK    6  A    between atoms: C_9  and  C_10
REMARK    7  A    between atoms: C_18  and  C_20
REMARK                            x       y       z     vdW  Elec       q    Type
REMARK                         _______ _______ _______ _____ _____    ______ ____
ROOT
ATOM      1  C   UNL     1      47.359   4.842  14.643  0.00  0.00    +0.000 C 
ATOM      2  N   UNL     1      47.552   6.226  14.215  0.00  0.00    +0.000 N 
ATOM      3  C   UNL     1      48.681   6.867  14.770  0.00  0.00    +0.000 C 
ATOM      4  O   UNL     1      49.454   6.269  15.520  0.00  0.00    +0.000 OA
ENDROOT
BRANCH   3   5
ATOM      5  C   UNL     1      48.927   8.290  14.487  0.00  0.00    +0.000 A 
ATOM      6  C   UNL     1      48.749   9.324  15.394  0.00  0.00    +0.000 A 
ATOM      7  S   UNL     1      49.173  10.858  14.782  0.00  0.00    +0.000 S 
ATOM      8  C   UNL     1      49.772  10.171  13.346  0.00  0.00    +0.000 A 
ATOM      9  N   UNL     1      50.394  10.945  12.416  0.00  0.00    +0.000 NA
ATOM     10  C   UNL     1      50.871  10.277  11.417  0.00  0.00    +0.000 A 
ATOM     11  N   UNL     1      50.744   8.921  11.244  0.00  0.00    +0.000 N 
ATOM     12  C   UNL     1      50.004   8.123  12.093  0.00  0.00    +0.000 A 
ATOM     13  O   UNL     1      49.720   6.971  11.787  0.00  0.00    +0.000 OA
ATOM     14  C   UNL     1      49.552   8.809  13.294  0.00  0.00    +0.000 A 
ATOM     15  H   UNL     1      51.084   8.471  10.407  0.00  0.00    +0.000 HD
ENDBRANCH   3   5
BRANCH   2  16
ATOM     16  C   UNL     1      46.518   6.917  13.432  0.00  0.00    +0.000 C 
BRANCH  16  17
ATOM     17  C   UNL     1      45.840   6.126  12.347  0.00  0.00    +0.000 A 
ATOM     18  C   UNL     1      44.906   5.136  12.683  0.00  0.00    +0.000 A 
ATOM     19  C   UNL     1      44.375   4.300  11.702  0.00  0.00    +0.000 A 
ATOM     20  C   UNL     1      44.749   4.449  10.361  0.00  0.00    +0.000 A 
ATOM     21  C   UNL     1      45.645   5.477  10.024  0.00  0.00    +0.000 A 
ATOM     22  C   UNL     1      46.185   6.310  11.006  0.00  0.00    +0.000 A 
BRANCH  20  23
ATOM     23  C   UNL     1      44.318   3.476   9.287  0.00  0.00    +0.000 C 
BRANCH  23  24
ATOM     24  C   UNL     1      45.183   2.218   9.161  0.00  0.00    +0.000 C 
BRANCH  24  25
ATOM     25  C   UNL     1      46.066   2.257   7.945  0.00  0.00    +0.000 A 
ATOM     26  C   UNL     1      46.042   3.345   7.071  0.00  0.00    +0.000 A 
ATOM     27  C   UNL     1      46.868   3.345   5.951  0.00  0.00    +0.000 A 
ATOM     28  C   UNL     1      47.699   2.254   5.749  0.00  0.00    +0.000 A 
ATOM     29  N   UNL     1      47.763   1.193   6.583  0.00  0.00    +0.000 NA
ATOM     30  C   UNL     1      46.948   1.220   7.659  0.00  0.00    +0.000 A 
ENDBRANCH  24  25
ENDBRANCH  23  24
ENDBRANCH  20  23
ENDBRANCH  16  17
ENDBRANCH   2  16
TORSDOF 6
ENDMDL
MODEL 9
REMARK VINA RESULT:    -6.917      3.162      8.208
REMARK INTER + INTRA:         -10.612
REMARK INTER:                  -9.330
REMARK INTRA:                  -1.282
REMARK UNBOUND:                -1.269
REMARK  Name = 
REMARK  7 active torsions:
REMARK  status: ('A' for Active; 'I' for Inactive)
REMARK    1  A    between atoms: C_1  and  N_2
REMARK    2  A    between atoms: N_2  and  C_3
REMARK    3  A    between atoms: C_3  and  C_4
REMARK    4  A    between atoms: C_7  and  C_8
REMARK    5  A    between atoms: C_8  and  C_9
REMARK    6  A    between atoms: C_9  and  C_10
REMARK    7  A    between atoms: C_18  and  C_20
REMARK                            x       y       z     vdW  Elec       q    Type
REMARK                         _______ _______ _______ _____ _____    ______ ____
ROOT
ATOM      1  C   UNL     1      48.865   8.946  16.944  0.00  0.00    +0.000 C 
ATOM      2  N   UNL     1      48.766   7.510  16.689  0.00  0.00    +0.000 N 
ATOM      3  C   UNL     1      48.441   6.727  17.818  0.00  0.00    +0.000 C 
ATOM      4  O   UNL     1      48.217   7.244  18.914  0.00  0.00    +0.000 OA
ENDROOT
BRANCH   3   5
ATOM      5  C   UNL     1      48.405   5.261  17.706  0.00  0.00    +0.000 A 
ATOM      6  C   UNL     1      47.275   4.513  17.410  0.00  0.00    +0.000 A 
ATOM      7  S   UNL     1      47.568   2.837  17.296  0.00  0.00    +0.000 S 
ATOM      8  C   UNL     1      49.244   3.071  17.468  0.00  0.00    +0.000 A 
ATOM      9  N   UNL     1      50.104   2.025  17.348  0.00  0.00    +0.000 NA
ATOM     10  C   UNL     1      51.350   2.363  17.419  0.00  0.00    +0.000 A 
ATOM     11  N   UNL     1      51.807   3.638  17.641  0.00  0.00    +0.000 N 
ATOM     12  C   UNL     1      50.968   4.701  17.903  0.00  0.00    +0.000 A 
ATOM     13  O   UNL     1      51.408   5.765  18.323  0.00  0.00    +0.000 OA
ATOM     14  C   UNL     1      49.558   4.393  17.714  0.00  0.00    +0.000 A 
ATOM     15  H   UNL     1      52.793   3.823  17.750  0.00  0.00    +0.000 HD
ENDBRANCH   3   5
BRANCH   2  16
ATOM     16  C   UNL     1      49.181   6.951  15.395  0.00  0.00    +0.000 C 
BRANCH  16  17
ATOM     17  C   UNL     1      48.116   6.796  14.344  0.00  0.00    +0.000 A 
ATOM     18  C   UNL     1      47.605   7.928  13.694  0.00  0.00    +0.000 A 
ATOM     19  C   UNL     1      46.523   7.816  12.823  0.00  0.00    +0.000 A 
ATOM     20  C   UNL     1      45.941   6.568  12.566  0.00  0.00    +0.000 A 
ATOM     21  C   UNL     1      46.492   5.431  13.180  0.00  0.00    +0.000 A 
ATOM     22  C   UNL     1      47.570   5.542  14.059  0.00  0.00    +0.000 A 
BRANCH  20  23
ATOM     23  C   UNL     1      44.677   6.417  11.749  0.00  0.00    +0.000 C 
BRANCH  23  24
ATOM     24  C   UNL     1      44.163   4.981  11.602  0.00  0.00    +0.000 C 
BRANCH  24  25
ATOM     25  C   UNL     1      44.632   4.339  10.326  0.00  0.00    +0.000 A 
ATOM     26  C   UNL     1      44.328   3.009  10.033  0.00  0.00    +0.000 A 
ATOM     27  C   UNL     1      44.785   2.445   8.846  0.00  0.00    +0.000 A 
ATOM     28  C   UNL     1      45.526   3.240   7.985  0.00  0.00    +0.000 A 
ATOM     29  N   UNL     1      45.824   4.535   8.226  0.00  0.00    +0.000 NA
ATOM     30  C   UNL     1      45.370   5.054   9.387  0.00  0.00    +0.000 A 
ENDBRANCH  24  25
ENDBRANCH  23  24
ENDBRANCH  20  23
ENDBRANCH  16  17
ENDBRANCH   2  16
TORSDOF 6
ENDMDL
