MODEL 1
REMARK VINA RESULT:    -8.339      0.000      0.000
REMARK INTER + INTRA:         -11.462
REMARK INTER:                 -11.020
REMARK INTRA:                  -0.442
REMARK UNBOUND:                -0.442
REMARK  Name = 
REMARK  6 active torsions:
REMARK  status: ('A' for Active; 'I' for Inactive)
REMARK    1  A    between atoms: C_2  and  O_3
REMARK    2  A    between atoms: C_2  and  C_4
REMARK    3  A    between atoms: C_8  and  O_9
REMARK    4  A    between atoms: O_9  and  C_10
REMARK    5  A    between atoms: C_10  and  C_11
REMARK    6  A    between atoms: C_16  and  N_17
REMARK                            x       y       z     vdW  Elec       q    Type
REMARK                         _______ _______ _______ _____ _____    ______ ____
ROOT
ATOM      1  C   UNL     1      44.518   4.381  12.037  0.00  0.00    +0.000 A 
ATOM      2  C   UNL     1      43.744   5.516  11.838  0.00  0.00    +0.000 A 
ATOM      3  F   UNL     1      42.514   5.401  11.316  0.00  0.00    +0.000 F 
ATOM      4  C   UNL     1      44.203   6.779  12.184  0.00  0.00    +0.000 A 
ATOM      5  C   UNL     1      45.471   6.920  12.747  0.00  0.00    +0.000 A 
ATOM      6  C   UNL     1      46.304   5.810  12.951  0.00  0.00    +0.000 A 
ATOM      7  C   UNL     1      45.795   4.549  12.575  0.00  0.00    +0.000 A 
ATOM      8  F   UNL     1      46.537   3.448  12.782  0.00  0.00    +0.000 F 
ENDROOT
BRANCH   6   9
ATOM      9  N   UNL     1      47.568   5.963  13.483  0.00  0.00    +0.000 N 
ATOM     10  C   UNL     1      47.904   5.603  14.861  0.00  0.00    +0.000 C 
ATOM     11  C   UNL     1      48.577   6.790  15.580  0.00  0.00    +0.000 C 
ATOM     12  N   UNL     1      49.723   7.364  14.840  0.00  0.00    +0.000 NA
ATOM     13  C   UNL     1      49.280   7.731  13.476  0.00  0.00    +0.000 C 
ATOM     14  C   UNL     1      48.650   6.556  12.691  0.00  0.00    +0.000 C 
ATOM     15  H   UNL     1      50.434   6.639  14.751  0.00  0.00    +0.000 HD
ENDBRANCH   6   9
BRANCH   1  16
ATOM     16  C   UNL     1      44.001   3.018  11.690  0.00  0.00    +0.000 C 
BRANCH  16  17
ATOM     17  O   UNL     1      43.573   3.014  10.327  0.00  0.00    +0.000 OA
BRANCH  17  22
ATOM     18  C   UNL     1      46.287   2.161   7.952  0.00  0.00    +0.000 A 
ATOM     19  C   UNL     1      46.460   3.436   7.431  0.00  0.00    +0.000 A 
ATOM     20  N   UNL     1      45.755   4.510   7.847  0.00  0.00    +0.000 NA
ATOM     21  C   UNL     1      44.817   4.284   8.801  0.00  0.00    +0.000 A 
ATOM     22  C   UNL     1      44.554   3.045   9.378  0.00  0.00    +0.000 A 
ATOM     23  C   UNL     1      45.312   1.963   8.936  0.00  0.00    +0.000 A 
BRANCH  18  25
ATOM     24  O   UNL     1      47.961   1.134   6.638  0.00  0.00    +0.000 OA
ATOM     25  C   UNL     1      47.057   1.010   7.458  0.00  0.00    +0.000 C 
BRANCH  25  26
ATOM     26  O   UNL     1      46.658  -0.178   7.944  0.00  0.00    +0.000 OA
ATOM     27  H   UNL     1      47.338  -0.877   7.982  0.00  0.00    +0.000 HD
ENDBRANCH  25  26
ENDBRANCH  18  25
ENDBRANCH  17  22
ENDBRANCH  16  17
ENDBRANCH   1  16
TORSDOF 6
ENDMDL
MODEL 2
REMARK VINA RESULT:    -8.316      1.558      2.275
REMARK INTER + INTRA:         -11.431
REMARK INTER:                 -10.938
REMARK INTRA:                  -0.494
REMARK UNBOUND:                -0.442
REMARK  Name = 
REMARK  6 active torsions:
REMARK  status: ('A' for Active; 'I' for Inactive)
REMARK    1  A    between atoms: C_2  and  O_3
REMARK    2  A    between atoms: C_2  and  C_4
REMARK    3  A    between atoms: C_8  and  O_9
REMARK    4  A    between atoms: O_9  and  C_10
REMARK    5  A    between atoms: C_10  and  C_11
REMARK    6  A    between atoms: C_16  and  N_17
REMARK                            x       y       z     vdW  Elec       q    Type
REMARK                         _______ _______ _______ _____ _____    ______ ____
ROOT
ATOM      1  C   UNL     1      44.784   4.725  11.813  0.00  0.00    +0.000 A 
ATOM      2  C   UNL     1      45.098   3.676  12.666  0.00  0.00    +0.000 A 
ATOM      3  F   UNL     1      44.388   2.539  12.614  0.00  0.00    +0.000 F 
ATOM      4  C   UNL     1      46.148   3.762  13.569  0.00  0.00    +0.000 A 
ATOM      5  C   UNL     1      46.913   4.927  13.627  0.00  0.00    +0.000 A 
ATOM      6  C   UNL     1      46.627   6.026  12.803  0.00  0.00    +0.000 A 
ATOM      7  C   UNL     1      45.544   5.893  11.908  0.00  0.00    +0.000 A 
ATOM      8  F   UNL     1      45.250   6.902  11.071  0.00  0.00    +0.000 F 
ENDROOT
BRANCH   6   9
ATOM      9  N   UNL     1      47.372   7.185  12.887  0.00  0.00    +0.000 N 
ATOM     10  C   UNL     1      46.805   8.469  13.303  0.00  0.00    +0.000 C 
ATOM     11  C   UNL     1      47.123   9.561  12.261  0.00  0.00    +0.000 C 
ATOM     12  N   UNL     1      48.558   9.652  11.910  0.00  0.00    +0.000 NA
ATOM     13  C   UNL     1      49.031   8.320  11.469  0.00  0.00    +0.000 C 
ATOM     14  C   UNL     1      48.787   7.199  12.506  0.00  0.00    +0.000 C 
ATOM     15  H   UNL     1      49.072   9.899  12.755  0.00  0.00    +0.000 HD
ENDBRANCH   6   9
BRANCH   1  16
ATOM     16  C   UNL     1      43.668   4.612  10.820  0.00  0.00    +0.000 C 
BRANCH  16  17
ATOM     17  O   UNL     1      43.779   3.364  10.134  0.00  0.00    +0.000 OA
BRANCH  17  22
ATOM     18  C   UNL     1      46.421   2.168   7.828  0.00  0.00    +0.000 A 
ATOM     19  C   UNL     1      46.729   3.402   7.272  0.00  0.00    +0.000 A 
ATOM     20  N   UNL     1      46.132   4.555   7.645  0.00  0.00    +0.000 NA
ATOM     21  C   UNL     1      45.164   4.454   8.590  0.00  0.00    +0.000 A 
ATOM     22  C   UNL     1      44.770   3.266   9.200  0.00  0.00    +0.000 A 
ATOM     23  C   UNL     1      45.419   2.101   8.801  0.00  0.00    +0.000 A 
BRANCH  18  25
ATOM     24  O   UNL     1      46.808  -0.163   7.867  0.00  0.00    +0.000 OA
ATOM     25  C   UNL     1      47.076   0.931   7.380  0.00  0.00    +0.000 C 
BRANCH  25  26
ATOM     26  O   UNL     1      48.016   1.107   6.435  0.00  0.00    +0.000 OA
ATOM     27  H   UNL     1      47.798   1.741   5.725  0.00  0.00    +0.000 HD
ENDBRANCH  25  26
ENDBRANCH  18  25
ENDBRANCH  17  22
ENDBRANCH  16  17
ENDBRANCH   1  16
TORSDOF 6
ENDMDL
MODEL 3
REMARK VINA RESULT:    -7.452      2.781      6.828
REMARK INTER + INTRA:         -10.289
REMARK INTER:                  -9.734
REMARK INTRA:                  -0.555
REMARK UNBOUND:                -0.442
REMARK  Name = 
REMARK  6 active torsions:
REMARK  status: ('A' for Active; 'I' for Inactive)
REMARK    1  A    between atoms: C_2  and  O_3
REMARK    2  A    between atoms: C_2  and  C_4
REMARK    3  A    between atoms: C_8  and  O_9
REMARK    4  A    between atoms: O_9  and  C_10
REMARK    5  A    between atoms: C_10  and  C_11
REMARK    6  A    between atoms: C_16  and  N_17
REMARK                            x       y       z     vdW  Elec       q    Type
REMARK                         _______ _______ _______ _____ _____    ______ ____
ROOT
ATOM      1  C   UNL     1      44.943   5.056  11.484  0.00  0.00    +0.000 A 
ATOM      2  C   UNL     1      44.083   4.331  12.299  0.00  0.00    +0.000 A 
ATOM      3  F   UNL     1      43.727   4.823  13.495  0.00  0.00    +0.000 F 
ATOM      4  C   UNL     1      43.563   3.109  11.901  0.00  0.00    +0.000 A 
ATOM      5  C   UNL     1      43.903   2.587  10.654  0.00  0.00    +0.000 A 
ATOM      6  C   UNL     1      44.784   3.266   9.798  0.00  0.00    +0.000 A 
ATOM      7  C   UNL     1      45.294   4.501  10.251  0.00  0.00    +0.000 A 
ATOM      8  F   UNL     1      46.113   5.210   9.457  0.00  0.00    +0.000 F 
ENDROOT
BRANCH   6   9
ATOM      9  N   UNL     1      45.138   2.729   8.578  0.00  0.00    +0.000 N 
ATOM     10  C   UNL     1      45.607   1.351   8.417  0.00  0.00    +0.000 C 
ATOM     11  C   UNL     1      46.952   1.324   7.662  0.00  0.00    +0.000 C 
ATOM     12  N   UNL     1      46.935   2.078   6.388  0.00  0.00    +0.000 NA
ATOM     13  C   UNL     1      46.485   3.463   6.654  0.00  0.00    +0.000 C 
ATOM     14  C   UNL     1      45.112   3.544   7.361  0.00  0.00    +0.000 C 
ATOM     15  H   UNL     1      46.248   1.641   5.774  0.00  0.00    +0.000 HD
ENDBRANCH   6   9
BRANCH   1  16
ATOM     16  C   UNL     1      45.476   6.389  11.908  0.00  0.00    +0.000 C 
BRANCH  16  17
ATOM     17  O   UNL     1      46.893   6.300  12.059  0.00  0.00    +0.000 OA
BRANCH  17  22
ATOM     18  C   UNL     1      47.710   4.924  15.401  0.00  0.00    +0.000 A 
ATOM     19  C   UNL     1      48.455   6.007  15.850  0.00  0.00    +0.000 A 
ATOM     20  N   UNL     1      48.655   7.125  15.119  0.00  0.00    +0.000 NA
ATOM     21  C   UNL     1      48.112   7.138  13.876  0.00  0.00    +0.000 A 
ATOM     22  C   UNL     1      47.362   6.102  13.326  0.00  0.00    +0.000 A 
ATOM     23  C   UNL     1      47.163   4.972  14.115  0.00  0.00    +0.000 A 
BRANCH  18  25
ATOM     24  O   UNL     1      46.564   3.559  16.953  0.00  0.00    +0.000 OA
ATOM     25  C   UNL     1      47.533   3.714  16.216  0.00  0.00    +0.000 C 
BRANCH  25  26
ATOM     26  O   UNL     1      48.536   2.824  16.119  0.00  0.00    +0.000 OA
ATOM     27  H   UNL     1      48.372   2.053  15.544  0.00  0.00    +0.000 HD
ENDBRANCH  25  26
ENDBRANCH  18  25
ENDBRANCH  17  22
ENDBRANCH  16  17
ENDBRANCH   1  16
TORSDOF 6
ENDMDL
MODEL 4
REMARK VINA RESULT:    -7.257      3.806      7.185
REMARK INTER + INTRA:         -10.032
REMARK INTER:                  -8.998
REMARK INTRA:                  -1.034
REMARK UNBOUND:                -0.442
REMARK  Name = 
REMARK  6 active torsions:
REMARK  status: ('A' for Active; 'I' for Inactive)
REMARK    1  A    between atoms: C_2  and  O_3
REMARK    2  A    between atoms: C_2  and  C_4
REMARK    3  A    between atoms: C_8  and  O_9
REMARK    4  A    between atoms: O_9  and  C_10
REMARK    5  A    between atoms: C_10  and  C_11
REMARK    6  A    between atoms: C_16  and  N_17
REMARK                            x       y       z     vdW  Elec       q    Type
REMARK                         _______ _______ _______ _____ _____    ______ ____
ROOT
ATOM      1  C   UNL     1      47.131   7.175  12.694  0.00  0.00    +0.000 A 
ATOM      2  C   UNL     1      46.695   8.458  12.394  0.00  0.00    +0.000 A 
ATOM      3  F   UNL     1      47.490   9.508  12.648  0.00  0.00    +0.000 F 
ATOM      4  C   UNL     1      45.455   8.688  11.816  0.00  0.00    +0.000 A 
ATOM      5  C   UNL     1      44.620   7.611  11.524  0.00  0.00    +0.000 A 
ATOM      6  C   UNL     1      45.001   6.294  11.825  0.00  0.00    +0.000 A 
ATOM      7  C   UNL     1      46.267   6.112  12.420  0.00  0.00    +0.000 A 
ATOM      8  F   UNL     1      46.697   4.869  12.696  0.00  0.00    +0.000 F 
ENDROOT
BRANCH   6   9
ATOM      9  N   UNL     1      44.156   5.236  11.559  0.00  0.00    +0.000 N 
ATOM     10  C   UNL     1      43.330   4.597  12.585  0.00  0.00    +0.000 C 
ATOM     11  C   UNL     1      43.564   3.072  12.592  0.00  0.00    +0.000 C 
ATOM     12  N   UNL     1      43.420   2.440  11.261  0.00  0.00    +0.000 NA
ATOM     13  C   UNL     1      44.316   3.126  10.303  0.00  0.00    +0.000 C 
ATOM     14  C   UNL     1      44.081   4.652  10.217  0.00  0.00    +0.000 C 
ATOM     15  H   UNL     1      42.461   2.585  10.947  0.00  0.00    +0.000 HD
ENDBRANCH   6   9
BRANCH   1  16
ATOM     16  C   UNL     1      48.484   6.933  13.289  0.00  0.00    +0.000 C 
BRANCH  16  17
ATOM     17  O   UNL     1      48.548   7.557  14.572  0.00  0.00    +0.000 OA
BRANCH  17  22
ATOM     18  C   UNL     1      48.138   4.676  16.867  0.00  0.00    +0.000 A 
ATOM     19  C   UNL     1      48.558   5.322  18.023  0.00  0.00    +0.000 A 
ATOM     20  N   UNL     1      48.925   6.621  18.055  0.00  0.00    +0.000 NA
ATOM     21  C   UNL     1      48.901   7.286  16.872  0.00  0.00    +0.000 A 
ATOM     22  C   UNL     1      48.511   6.729  15.657  0.00  0.00    +0.000 A 
ATOM     23  C   UNL     1      48.124   5.392  15.665  0.00  0.00    +0.000 A 
BRANCH  18  25
ATOM     24  O   UNL     1      48.422   2.410  16.262  0.00  0.00    +0.000 OA
ATOM     25  C   UNL     1      47.767   3.254  16.865  0.00  0.00    +0.000 C 
BRANCH  25  26
ATOM     26  O   UNL     1      46.637   2.971  17.536  0.00  0.00    +0.000 OA
ATOM     27  H   UNL     1      45.881   3.567  17.375  0.00  0.00    +0.000 HD
ENDBRANCH  25  26
ENDBRANCH  18  25
ENDBRANCH  17  22
ENDBRANCH  16  17
ENDBRANCH   1  16
TORSDOF 6
ENDMDL
MODEL 5
REMARK VINA RESULT:    -6.975      4.320      7.246
REMARK INTER + INTRA:          -9.659
REMARK INTER:                  -8.618
REMARK INTRA:                  -1.041
REMARK UNBOUND:                -0.442
REMARK  Name = 
REMARK  6 active torsions:
REMARK  status: ('A' for Active; 'I' for Inactive)
REMARK    1  A    between atoms: C_2  and  O_3
REMARK    2  A    between atoms: C_2  and  C_4
REMARK    3  A    between atoms: C_8  and  O_9
REMARK    4  A    between atoms: O_9  and  C_10
REMARK    5  A    between atoms: C_10  and  C_11
REMARK    6  A    between atoms: C_16  and  N_17
REMARK                            x       y       z     vdW  Elec       q    Type
REMARK                         _______ _______ _______ _____ _____    ______ ____
ROOT
ATOM      1  C   UNL     1      47.303   6.864  13.694  0.00  0.00    +0.000 A 
ATOM      2  C   UNL     1      46.992   8.203  13.496  0.00  0.00    +0.000 A 
ATOM      3  F   UNL     1      47.777   9.154  14.022  0.00  0.00    +0.000 F 
ATOM      4  C   UNL     1      45.891   8.590  12.746  0.00  0.00    +0.000 A 
ATOM      5  C   UNL     1      45.072   7.618  12.173  0.00  0.00    +0.000 A 
ATOM      6  C   UNL     1      45.327   6.251  12.358  0.00  0.00    +0.000 A 
ATOM      7  C   UNL     1      46.453   5.908  13.135  0.00  0.00    +0.000 A 
ATOM      8  F   UNL     1      46.764   4.613  13.314  0.00  0.00    +0.000 F 
ENDROOT
BRANCH   6   9
ATOM      9  N   UNL     1      44.494   5.296  11.811  0.00  0.00    +0.000 N 
ATOM     10  C   UNL     1      43.414   4.653  12.561  0.00  0.00    +0.000 C 
ATOM     11  C   UNL     1      43.535   3.118  12.472  0.00  0.00    +0.000 C 
ATOM     12  N   UNL     1      43.656   2.609  11.087  0.00  0.00    +0.000 NA
ATOM     13  C   UNL     1      44.791   3.287  10.422  0.00  0.00    +0.000 C 
ATOM     14  C   UNL     1      44.686   4.830  10.435  0.00  0.00    +0.000 C 
ATOM     15  H   UNL     1      42.805   2.863  10.585  0.00  0.00    +0.000 HD
ENDBRANCH   6   9
BRANCH   1  16
ATOM     16  C   UNL     1      48.512   6.456  14.479  0.00  0.00    +0.000 C 
BRANCH  16  17
ATOM     17  O   UNL     1      48.154   6.327  15.855  0.00  0.00    +0.000 OA
BRANCH  17  22
ATOM     18  C   UNL     1      49.272   3.060  17.201  0.00  0.00    +0.000 A 
ATOM     19  C   UNL     1      48.010   2.555  17.484  0.00  0.00    +0.000 A 
ATOM     20  N   UNL     1      46.867   3.226  17.227  0.00  0.00    +0.000 NA
ATOM     21  C   UNL     1      47.002   4.468  16.696  0.00  0.00    +0.000 A 
ATOM     22  C   UNL     1      48.219   5.071  16.388  0.00  0.00    +0.000 A 
ATOM     23  C   UNL     1      49.375   4.343  16.652  0.00  0.00    +0.000 A 
BRANCH  18  25
ATOM     24  O   UNL     1      50.738   1.216  17.013  0.00  0.00    +0.000 OA
ATOM     25  C   UNL     1      50.496   2.309  17.515  0.00  0.00    +0.000 C 
BRANCH  25  26
ATOM     26  O   UNL     1      51.293   2.897  18.424  0.00  0.00    +0.000 OA
ATOM     27  H   UNL     1      51.393   3.864  18.347  0.00  0.00    +0.000 HD
ENDBRANCH  25  26
ENDBRANCH  18  25
ENDBRANCH  17  22
ENDBRANCH  16  17
ENDBRANCH   1  16
TORSDOF 6
ENDMDL
MODEL 6
REMARK VINA RESULT:    -6.595      4.552      8.248
REMARK INTER + INTRA:          -9.157
REMARK INTER:                  -8.191
REMARK INTRA:                  -0.965
REMARK UNBOUND:                -0.442
REMARK  Name = 
REMARK  6 active torsions:
REMARK  status: ('A' for Active; 'I' for Inactive)
REMARK    1  A    between atoms: C_2  and  O_3
REMARK    2  A    between atoms: C_2  and  C_4
REMARK    3  A    between atoms: C_8  and  O_9
REMARK    4  A    between atoms: O_9  and  C_10
REMARK    5  A    between atoms: C_10  and  C_11
REMARK    6  A    between atoms: C_16  and  N_17
REMARK                            x       y       z     vdW  Elec       q    Type
REMARK                         _______ _______ _______ _____ _____    ______ ____
ROOT
ATOM      1  C   UNL     1      48.140   6.715  13.856  0.00  0.00    +0.000 A 
ATOM      2  C   UNL     1      48.213   7.680  12.860  0.00  0.00    +0.000 A 
ATOM      3  F   UNL     1      49.197   8.590  12.885  0.00  0.00    +0.000 F 
ATOM      4  C   UNL     1      47.297   7.720  11.819  0.00  0.00    +0.000 A 
ATOM      5  C   UNL     1      46.277   6.771  11.762  0.00  0.00    +0.000 A 
ATOM      6  C   UNL     1      46.143   5.787  12.752  0.00  0.00    +0.000 A 
ATOM      7  C   UNL     1      47.093   5.793  13.795  0.00  0.00    +0.000 A 
ATOM      8  F   UNL     1      47.033   4.851  14.751  0.00  0.00    +0.000 F 
ENDROOT
BRANCH   6   9
ATOM      9  N   UNL     1      45.113   4.870  12.703  0.00  0.00    +0.000 N 
ATOM     10  C   UNL     1      45.304   3.475  12.303  0.00  0.00    +0.000 C 
ATOM     11  C   UNL     1      44.321   3.098  11.176  0.00  0.00    +0.000 C 
ATOM     12  N   UNL     1      42.909   3.419  11.483  0.00  0.00    +0.000 NA
ATOM     13  C   UNL     1      42.809   4.853  11.840  0.00  0.00    +0.000 C 
ATOM     14  C   UNL     1      43.736   5.269  13.006  0.00  0.00    +0.000 C 
ATOM     15  H   UNL     1      42.634   2.877  12.302  0.00  0.00    +0.000 HD
ENDBRANCH   6   9
BRANCH   1  16
ATOM     16  C   UNL     1      49.151   6.661  14.960  0.00  0.00    +0.000 C 
BRANCH  16  17
ATOM     17  O   UNL     1      48.752   7.550  16.003  0.00  0.00    +0.000 OA
BRANCH  17  22
ATOM     18  C   UNL     1      48.339   5.224  18.859  0.00  0.00    +0.000 A 
ATOM     19  C   UNL     1      47.989   6.179  19.803  0.00  0.00    +0.000 A 
ATOM     20  N   UNL     1      47.869   7.495  19.520  0.00  0.00    +0.000 NA
ATOM     21  C   UNL     1      48.145   7.865  18.244  0.00  0.00    +0.000 A 
ATOM     22  C   UNL     1      48.518   6.990  17.227  0.00  0.00    +0.000 A 
ATOM     23  C   UNL     1      48.616   5.640  17.552  0.00  0.00    +0.000 A 
BRANCH  18  25
ATOM     24  O   UNL     1      48.641   2.935  18.358  0.00  0.00    +0.000 OA
ATOM     25  C   UNL     1      48.482   3.804  19.209  0.00  0.00    +0.000 C 
BRANCH  25  26
ATOM     26  O   UNL     1      48.378   3.539  20.523  0.00  0.00    +0.000 OA
ATOM     27  H   UNL     1      47.482   3.599  20.904  0.00  0.00    +0.000 HD
ENDBRANCH  25  26
ENDBRANCH  18  25
ENDBRANCH  17  22
ENDBRANCH  16  17
ENDBRANCH   1  16
TORSDOF 6
ENDMDL
MODEL 7
REMARK VINA RESULT:    -6.075      3.063      4.557
REMARK INTER + INTRA:          -8.470
REMARK INTER:                  -7.559
REMARK INTRA:                  -0.911
REMARK UNBOUND:                -0.442
REMARK  Name = 
REMARK  6 active torsions:
REMARK  status: ('A' for Active; 'I' for Inactive)
REMARK    1  A    between atoms: C_2  and  O_3
REMARK    2  A    between atoms: C_2  and  C_4
REMARK    3  A    between atoms: C_8  and  O_9
REMARK    4  A    between atoms: O_9  and  C_10
REMARK    5  A    between atoms: C_10  and  C_11
REMARK    6  A    between atoms: C_16  and  N_17
REMARK                            x       y       z     vdW  Elec       q    Type
REMARK                         _______ _______ _______ _____ _____    ______ ____
ROOT
ATOM      1  C   UNL     1      46.817   8.687  12.444  0.00  0.00    +0.000 A 
ATOM      2  C   UNL     1      46.660  10.008  12.045  0.00  0.00    +0.000 A 
ATOM      3  F   UNL     1      45.439  10.563  12.044  0.00  0.00    +0.000 F 
ATOM      4  C   UNL     1      47.743  10.785  11.661  0.00  0.00    +0.000 A 
ATOM      5  C   UNL     1      49.025  10.236  11.674  0.00  0.00    +0.000 A 
ATOM      6  C   UNL     1      49.239   8.900  12.047  0.00  0.00    +0.000 A 
ATOM      7  C   UNL     1      48.105   8.148  12.421  0.00  0.00    +0.000 A 
ATOM      8  F   UNL     1      48.258   6.875  12.821  0.00  0.00    +0.000 F 
ENDROOT
BRANCH   6   9
ATOM      9  N   UNL     1      50.507   8.356  12.029  0.00  0.00    +0.000 N 
ATOM     10  C   UNL     1      51.472   8.542  13.114  0.00  0.00    +0.000 C 
ATOM     11  C   UNL     1      52.809   9.078  12.562  0.00  0.00    +0.000 C 
ATOM     12  N   UNL     1      53.352   8.281  11.439  0.00  0.00    +0.000 NA
ATOM     13  C   UNL     1      52.324   8.177  10.379  0.00  0.00    +0.000 C 
ATOM     14  C   UNL     1      50.981   7.591  10.872  0.00  0.00    +0.000 C 
ATOM     15  H   UNL     1      53.537   7.339  11.784  0.00  0.00    +0.000 HD
ENDBRANCH   6   9
BRANCH   1  16
ATOM     16  C   UNL     1      45.646   7.865  12.886  0.00  0.00    +0.000 C 
BRANCH  16  17
ATOM     17  O   UNL     1      44.991   7.328  11.737  0.00  0.00    +0.000 OA
BRANCH  17  22
ATOM     18  C   UNL     1      44.777   3.830  10.533  0.00  0.00    +0.000 A 
ATOM     19  C   UNL     1      44.910   3.218  11.772  0.00  0.00    +0.000 A 
ATOM     20  N   UNL     1      45.035   3.904  12.929  0.00  0.00    +0.000 NA
ATOM     21  C   UNL     1      45.060   5.257  12.830  0.00  0.00    +0.000 A 
ATOM     22  C   UNL     1      44.948   5.967  11.637  0.00  0.00    +0.000 A 
ATOM     23  C   UNL     1      44.805   5.227  10.466  0.00  0.00    +0.000 A 
BRANCH  18  25
ATOM     24  O   UNL     1      44.580   3.585   8.191  0.00  0.00    +0.000 OA
ATOM     25  C   UNL     1      44.667   3.051   9.292  0.00  0.00    +0.000 C 
BRANCH  25  26
ATOM     26  O   UNL     1      44.624   1.719   9.471  0.00  0.00    +0.000 OA
ATOM     27  H   UNL     1      43.992   1.395  10.140  0.00  0.00    +0.000 HD
ENDBRANCH  25  26
ENDBRANCH  18  25
ENDBRANCH  17  22
ENDBRANCH  16  17
ENDBRANCH   1  16
TORSDOF 6
ENDMDL
MODEL 8
REMARK VINA RESULT:    -6.068      3.911      6.930
REMARK INTER + INTRA:          -8.460
REMARK INTER:                  -7.503
REMARK INTRA:                  -0.957
REMARK UNBOUND:                -0.442
REMARK  Name = 
REMARK  6 active torsions:
REMARK  status: ('A' for Active; 'I' for Inactive)
REMARK    1  A    between atoms: C_2  and  O_3
REMARK    2  A    between atoms: C_2  and  C_4
REMARK    3  A    between atoms: C_8  and  O_9
REMARK    4  A    between atoms: O_9  and  C_10
REMARK    5  A    between atoms: C_10  and  C_11
REMARK    6  A    between atoms: C_16  and  N_17
REMARK                            x       y       z     vdW  Elec       q    Type
REMARK                         _______ _______ _______ _____ _____    ______ ____
ROOT
ATOM      1  C   UNL     1      46.728   7.105  13.012  0.00  0.00    +0.000 A 
ATOM      2  C   UNL     1      46.302   8.373  12.636  0.00  0.00    +0.000 A 
ATOM      3  F   UNL     1      47.009   9.450  13.008  0.00  0.00    +0.000 F 
ATOM      4  C   UNL     1      45.164   8.558  11.865  0.00  0.00    +0.000 A 
ATOM      5  C   UNL     1      44.424   7.451  11.450  0.00  0.00    +0.000 A 
ATOM      6  C   UNL     1      44.796   6.149  11.818  0.00  0.00    +0.000 A 
ATOM      7  C   UNL     1      45.956   6.013  12.611  0.00  0.00    +0.000 A 
ATOM      8  F   UNL     1      46.377   4.786  12.961  0.00  0.00    +0.000 F 
ENDROOT
BRANCH   6   9
ATOM      9  N   UNL     1      44.042   5.062  11.427  0.00  0.00    +0.000 N 
ATOM     10  C   UNL     1      43.168   4.325  12.343  0.00  0.00    +0.000 C 
ATOM     11  C   UNL     1      43.491   2.818  12.300  0.00  0.00    +0.000 C 
ATOM     12  N   UNL     1      43.502   2.249  10.933  0.00  0.00    +0.000 NA
ATOM     13  C   UNL     1      44.436   3.032  10.093  0.00  0.00    +0.000 C 
ATOM     14  C   UNL     1      44.120   4.545  10.058  0.00  0.00    +0.000 C 
ATOM     15  H   UNL     1      42.567   2.357  10.541  0.00  0.00    +0.000 HD
ENDBRANCH   6   9
BRANCH   1  16
ATOM     16  C   UNL     1      47.974   6.913  13.819  0.00  0.00    +0.000 C 
BRANCH  16  17
ATOM     17  O   UNL     1      49.043   6.544  12.947  0.00  0.00    +0.000 OA
BRANCH  17  22
ATOM     18  C   UNL     1      51.522   8.760  11.311  0.00  0.00    +0.000 A 
ATOM     19  C   UNL     1      51.771   9.572  12.410  0.00  0.00    +0.000 A 
ATOM     20  N   UNL     1      51.188   9.391  13.615  0.00  0.00    +0.000 NA
ATOM     21  C   UNL     1      50.294   8.374  13.706  0.00  0.00    +0.000 A 
ATOM     22  C   UNL     1      49.963   7.512  12.663  0.00  0.00    +0.000 A 
ATOM     23  C   UNL     1      50.596   7.719  11.441  0.00  0.00    +0.000 A 
BRANCH  18  25
ATOM     24  O   UNL     1      52.205  10.118   9.502  0.00  0.00    +0.000 OA
ATOM     25  C   UNL     1      52.159   9.001  10.009  0.00  0.00    +0.000 C 
BRANCH  25  26
ATOM     26  O   UNL     1      52.639   7.898   9.409  0.00  0.00    +0.000 OA
ATOM     27  H   UNL     1      53.318   7.401   9.903  0.00  0.00    +0.000 HD
ENDBRANCH  25  26
ENDBRANCH  18  25
ENDBRANCH  17  22
ENDBRANCH  16  17
ENDBRANCH   1  16
TORSDOF 6
ENDMDL
MODEL 9
REMARK VINA RESULT:    -5.999      3.137      5.397
REMARK INTER + INTRA:          -8.370
REMARK INTER:                  -7.767
REMARK INTRA:                  -0.603
REMARK UNBOUND:                -0.442
REMARK  Name = 
REMARK  6 active torsions:
REMARK  status: ('A' for Active; 'I' for Inactive)
REMARK    1  A    between atoms: C_2  and  O_3
REMARK    2  A    between atoms: C_2  and  C_4
REMARK    3  A    between atoms: C_8  and  O_9
REMARK    4  A    between atoms: O_9  and  C_10
REMARK    5  A    between atoms: C_10  and  C_11
REMARK    6  A    between atoms: C_16  and  N_17
REMARK                            x       y       z     vdW  Elec       q    Type
REMARK                         _______ _______ _______ _____ _____    ______ ____
ROOT
ATOM      1  C   UNL     1      47.788   4.328  16.331  0.00  0.00    +0.000 A 
ATOM      2  C   UNL     1      47.617   3.574  17.484  0.00  0.00    +0.000 A 
ATOM      3  F   UNL     1      46.873   2.459  17.447  0.00  0.00    +0.000 F 
ATOM      4  C   UNL     1      48.215   3.934  18.683  0.00  0.00    +0.000 A 
ATOM      5  C   UNL     1      49.009   5.079  18.741  0.00  0.00    +0.000 A 
ATOM      6  C   UNL     1      49.199   5.889  17.612  0.00  0.00    +0.000 A 
ATOM      7  C   UNL     1      48.563   5.486  16.418  0.00  0.00    +0.000 A 
ATOM      8  F   UNL     1      48.741   6.206  15.298  0.00  0.00    +0.000 F 
ENDROOT
BRANCH   6   9
ATOM      9  N   UNL     1      49.963   7.036  17.685  0.00  0.00    +0.000 N 
ATOM     10  C   UNL     1      51.427   7.021  17.698  0.00  0.00    +0.000 C 
ATOM     11  C   UNL     1      51.964   7.819  18.904  0.00  0.00    +0.000 C 
ATOM     12  N   UNL     1      51.402   9.184  19.013  0.00  0.00    +0.000 NA
ATOM     13  C   UNL     1      49.924   9.096  19.029  0.00  0.00    +0.000 C 
ATOM     14  C   UNL     1      49.333   8.353  17.809  0.00  0.00    +0.000 C 
ATOM     15  H   UNL     1      51.673   9.703  18.178  0.00  0.00    +0.000 HD
ENDBRANCH   6   9
BRANCH   1  16
ATOM     16  C   UNL     1      47.164   3.915  15.033  0.00  0.00    +0.000 C 
BRANCH  16  17
ATOM     17  O   UNL     1      46.291   4.951  14.583  0.00  0.00    +0.000 OA
BRANCH  17  22
ATOM     18  C   UNL     1      44.820   4.004  11.316  0.00  0.00    +0.000 A 
ATOM     19  C   UNL     1      45.291   5.095  10.598  0.00  0.00    +0.000 A 
ATOM     20  N   UNL     1      46.061   6.064  11.139  0.00  0.00    +0.000 NA
ATOM     21  C   UNL     1      46.340   5.946  12.462  0.00  0.00    +0.000 A 
ATOM     22  C   UNL     1      45.906   4.901  13.274  0.00  0.00    +0.000 A 
ATOM     23  C   UNL     1      45.128   3.912  12.678  0.00  0.00    +0.000 A 
BRANCH  18  25
ATOM     24  O   UNL     1      44.242   2.462   9.622  0.00  0.00    +0.000 OA
ATOM     25  C   UNL     1      43.965   2.981  10.699  0.00  0.00    +0.000 C 
BRANCH  25  26
ATOM     26  O   UNL     1      42.845   2.700  11.387  0.00  0.00    +0.000 OA
ATOM     27  H   UNL     1      42.957   2.530  12.341  0.00  0.00    +0.000 HD
ENDBRANCH  25  26
ENDBRANCH  18  25
ENDBRANCH  17  22
ENDBRANCH  16  17
ENDBRANCH   1  16
TORSDOF 6
ENDMDL
