MODEL 1
REMARK VINA RESULT:    -8.206      0.000      0.000
REMARK INTER + INTRA:         -12.129
REMARK INTER:                 -11.084
REMARK INTRA:                  -1.045
REMARK UNBOUND:                -1.045
REMARK  Name = 
REMARK  7 active torsions:
REMARK  status: ('A' for Active; 'I' for Inactive)
REMARK    1  A    between atoms: C_1  and  N_2
REMARK    2  A    between atoms: N_2  and  C_3
REMARK    3  A    between atoms: C_3  and  C_4
REMARK    4  A    between atoms: C_7  and  C_8
REMARK    5  A    between atoms: C_8  and  N_9
REMARK    6  A    between atoms: C_10  and  C_12
REMARK    7  A    between atoms: C_24  and  C_26
REMARK                            x       y       z     vdW  Elec       q    Type
REMARK                         _______ _______ _______ _____ _____    ______ ____
ROOT
ATOM      1  C   UNL     1      46.343   4.359  13.458  0.00  0.00    +0.000 A 
ATOM      2  C   UNL     1      46.609   3.889  14.755  0.00  0.00    +0.000 A 
ATOM      3  C   UNL     1      47.479   4.579  15.599  0.00  0.00    +0.000 A 
ATOM      4  C   UNL     1      48.087   5.764  15.169  0.00  0.00    +0.000 A 
ATOM      5  C   UNL     1      47.861   6.206  13.858  0.00  0.00    +0.000 A 
ATOM      6  C   UNL     1      46.989   5.516  13.012  0.00  0.00    +0.000 A 
ENDROOT
BRANCH   1   7
ATOM      7  C   UNL     1      45.410   3.593  12.553  0.00  0.00    +0.000 C 
BRANCH   7   9
ATOM      8  C   UNL     1      43.354   5.000  12.983  0.00  0.00    +0.000 C 
ATOM      9  N   UNL     1      44.201   4.261  12.052  0.00  0.00    +0.000 N 
ATOM     10  C   UNL     1      43.964   4.503  10.684  0.00  0.00    +0.000 C 
ATOM     11  O   UNL     1      43.099   5.292  10.301  0.00  0.00    +0.000 OA
BRANCH  10  12
ATOM     12  C   UNL     1      44.772   3.846   9.622  0.00  0.00    +0.000 A 
ATOM     13  C   UNL     1      44.835   2.470   9.405  0.00  0.00    +0.000 A 
ATOM     14  C   UNL     1      45.662   1.957   8.407  0.00  0.00    +0.000 A 
ATOM     15  C   UNL     1      46.347   2.846   7.599  0.00  0.00    +0.000 A 
ATOM     16  N   UNL     1      46.259   4.186   7.727  0.00  0.00    +0.000 NA
ATOM     17  C   UNL     1      45.469   4.655   8.728  0.00  0.00    +0.000 A 
ENDBRANCH  10  12
ENDBRANCH   7   9
ENDBRANCH   1   7
BRANCH   4  18
ATOM     18  C   UNL     1      48.972   6.551  16.097  0.00  0.00    +0.000 C 
BRANCH  18  19
ATOM     19  N   UNL     1      50.074   5.766  16.587  0.00  0.00    +0.000 N 
ATOM     20  C   UNL     1      50.108   5.363  17.898  0.00  0.00    +0.000 C 
ATOM     21  O   UNL     1      49.192   5.614  18.677  0.00  0.00    +0.000 OA
ATOM     22  H   UNL     1      50.923   5.751  16.031  0.00  0.00    +0.000 HD
BRANCH  20  23
ATOM     23  C   UNL     1      51.265   4.563  18.312  0.00  0.00    +0.000 A 
ATOM     24  C   UNL     1      52.248   5.142  19.103  0.00  0.00    +0.000 A 
ATOM     25  S   UNL     1      53.498   4.069  19.538  0.00  0.00    +0.000 S 
ATOM     26  C   UNL     1      52.796   2.804  18.642  0.00  0.00    +0.000 A 
ATOM     27  N   UNL     1      53.393   1.583  18.571  0.00  0.00    +0.000 NA
ATOM     28  C   UNL     1      52.773   0.730  17.826  0.00  0.00    +0.000 A 
ATOM     29  N   UNL     1      51.608   0.983  17.153  0.00  0.00    +0.000 N 
ATOM     30  C   UNL     1      50.950   2.189  17.223  0.00  0.00    +0.000 A 
ATOM     31  O   UNL     1      49.881   2.366  16.647  0.00  0.00    +0.000 OA
ATOM     32  C   UNL     1      51.615   3.190  18.035  0.00  0.00    +0.000 A 
ATOM     33  H   UNL     1      51.168   0.265  16.596  0.00  0.00    +0.000 HD
ENDBRANCH  20  23
ENDBRANCH  18  19
ENDBRANCH   4  18
TORSDOF 6
ENDMDL
MODEL 2
REMARK VINA RESULT:    -7.501      2.650      3.168
REMARK INTER + INTRA:         -11.177
REMARK INTER:                 -10.803
REMARK INTRA:                  -0.374
REMARK UNBOUND:                -1.045
REMARK  Name = 
REMARK  7 active torsions:
REMARK  status: ('A' for Active; 'I' for Inactive)
REMARK    1  A    between atoms: C_1  and  N_2
REMARK    2  A    between atoms: N_2  and  C_3
REMARK    3  A    between atoms: C_3  and  C_4
REMARK    4  A    between atoms: C_7  and  C_8
REMARK    5  A    between atoms: C_8  and  N_9
REMARK    6  A    between atoms: C_10  and  C_12
REMARK    7  A    between atoms: C_24  and  C_26
REMARK                            x       y       z     vdW  Elec       q    Type
REMARK                         _______ _______ _______ _____ _____    ______ ____
ROOT
ATOM      1  C   UNL     1      45.367   6.680  11.728  0.00  0.00    +0.000 A 
ATOM      2  C   UNL     1      46.568   6.111  12.186  0.00  0.00    +0.000 A 
ATOM      3  C   UNL     1      47.451   6.847  12.976  0.00  0.00    +0.000 A 
ATOM      4  C   UNL     1      47.142   8.164  13.339  0.00  0.00    +0.000 A 
ATOM      5  C   UNL     1      45.969   8.748  12.841  0.00  0.00    +0.000 A 
ATOM      6  C   UNL     1      45.084   8.011  12.050  0.00  0.00    +0.000 A 
ENDROOT
BRANCH   1   7
ATOM      7  C   UNL     1      44.431   5.874  10.864  0.00  0.00    +0.000 C 
BRANCH   7   9
ATOM      8  C   UNL     1      42.926   4.688  12.514  0.00  0.00    +0.000 C 
ATOM      9  N   UNL     1      43.867   4.627  11.400  0.00  0.00    +0.000 N 
ATOM     10  C   UNL     1      43.927   3.396  10.716  0.00  0.00    +0.000 C 
ATOM     11  O   UNL     1      43.226   2.436  11.037  0.00  0.00    +0.000 OA
BRANCH  10  12
ATOM     12  C   UNL     1      44.816   3.198   9.539  0.00  0.00    +0.000 A 
ATOM     13  C   UNL     1      45.331   1.970   9.129  0.00  0.00    +0.000 A 
ATOM     14  C   UNL     1      46.193   1.904   8.035  0.00  0.00    +0.000 A 
ATOM     15  C   UNL     1      46.453   3.066   7.332  0.00  0.00    +0.000 A 
ATOM     16  N   UNL     1      45.918   4.262   7.650  0.00  0.00    +0.000 NA
ATOM     17  C   UNL     1      45.107   4.300   8.740  0.00  0.00    +0.000 A 
ENDBRANCH  10  12
ENDBRANCH   7   9
ENDBRANCH   1   7
BRANCH   4  18
ATOM     18  C   UNL     1      48.054   8.942  14.247  0.00  0.00    +0.000 C 
BRANCH  18  19
ATOM     19  N   UNL     1      48.272   8.269  15.500  0.00  0.00    +0.000 N 
ATOM     20  C   UNL     1      49.544   7.951  15.903  0.00  0.00    +0.000 C 
ATOM     21  O   UNL     1      50.531   8.266  15.244  0.00  0.00    +0.000 OA
ATOM     22  H   UNL     1      47.476   7.809  15.930  0.00  0.00    +0.000 HD
BRANCH  20  23
ATOM     23  C   UNL     1      49.677   7.270  17.195  0.00  0.00    +0.000 A 
ATOM     24  C   UNL     1      50.347   7.901  18.235  0.00  0.00    +0.000 A 
ATOM     25  S   UNL     1      50.371   7.000  19.681  0.00  0.00    +0.000 S 
ATOM     26  C   UNL     1      49.531   5.710  18.954  0.00  0.00    +0.000 A 
ATOM     27  N   UNL     1      49.244   4.580  19.655  0.00  0.00    +0.000 NA
ATOM     28  C   UNL     1      48.639   3.667  18.970  0.00  0.00    +0.000 A 
ATOM     29  N   UNL     1      48.289   3.785  17.652  0.00  0.00    +0.000 N 
ATOM     30  C   UNL     1      48.527   4.921  16.912  0.00  0.00    +0.000 A 
ATOM     31  O   UNL     1      48.155   5.011  15.747  0.00  0.00    +0.000 OA
ATOM     32  C   UNL     1      49.220   5.972  17.632  0.00  0.00    +0.000 A 
ATOM     33  H   UNL     1      47.806   3.037  17.179  0.00  0.00    +0.000 HD
ENDBRANCH  20  23
ENDBRANCH  18  19
ENDBRANCH   4  18
TORSDOF 6
ENDMDL
MODEL 3
REMARK VINA RESULT:    -7.457      3.011      4.282
REMARK INTER + INTRA:         -11.117
REMARK INTER:                 -10.663
REMARK INTRA:                  -0.454
REMARK UNBOUND:                -1.045
REMARK  Name = 
REMARK  7 active torsions:
REMARK  status: ('A' for Active; 'I' for Inactive)
REMARK    1  A    between atoms: C_1  and  N_2
REMARK    2  A    between atoms: N_2  and  C_3
REMARK    3  A    between atoms: C_3  and  C_4
REMARK    4  A    between atoms: C_7  and  C_8
REMARK    5  A    between atoms: C_8  and  N_9
REMARK    6  A    between atoms: C_10  and  C_12
REMARK    7  A    between atoms: C_24  and  C_26
REMARK                            x       y       z     vdW  Elec       q    Type
REMARK                         _______ _______ _______ _____ _____    ______ ____
ROOT
ATOM      1  C   UNL     1      45.851   5.526  11.579  0.00  0.00    +0.000 A 
ATOM      2  C   UNL     1      46.555   6.716  11.328  0.00  0.00    +0.000 A 
ATOM      3  C   UNL     1      47.499   7.192  12.238  0.00  0.00    +0.000 A 
ATOM      4  C   UNL     1      47.770   6.477  13.411  0.00  0.00    +0.000 A 
ATOM      5  C   UNL     1      47.032   5.317  13.685  0.00  0.00    +0.000 A 
ATOM      6  C   UNL     1      46.088   4.840  12.773  0.00  0.00    +0.000 A 
ENDROOT
BRANCH   1   7
ATOM      7  C   UNL     1      44.824   5.033  10.590  0.00  0.00    +0.000 C 
BRANCH   7   9
ATOM      8  C   UNL     1      43.195   3.519  11.793  0.00  0.00    +0.000 C 
ATOM      9  N   UNL     1      44.234   3.701  10.785  0.00  0.00    +0.000 N 
ATOM     10  C   UNL     1      44.377   2.650   9.856  0.00  0.00    +0.000 C 
ATOM     11  O   UNL     1      43.665   1.646   9.892  0.00  0.00    +0.000 OA
BRANCH  10  12
ATOM     12  C   UNL     1      45.373   2.712   8.753  0.00  0.00    +0.000 A 
ATOM     13  C   UNL     1      45.709   3.866   8.047  0.00  0.00    +0.000 A 
ATOM     14  C   UNL     1      46.625   3.802   6.998  0.00  0.00    +0.000 A 
ATOM     15  C   UNL     1      47.240   2.592   6.735  0.00  0.00    +0.000 A 
ATOM     16  N   UNL     1      46.999   1.467   7.440  0.00  0.00    +0.000 NA
ATOM     17  C   UNL     1      46.078   1.554   8.436  0.00  0.00    +0.000 A 
ENDBRANCH  10  12
ENDBRANCH   7   9
ENDBRANCH   1   7
BRANCH   4  18
ATOM     18  C   UNL     1      48.834   6.946  14.365  0.00  0.00    +0.000 C 
BRANCH  18  19
ATOM     19  N   UNL     1      48.498   6.656  15.733  0.00  0.00    +0.000 N 
ATOM     20  C   UNL     1      49.458   6.201  16.601  0.00  0.00    +0.000 C 
ATOM     21  O   UNL     1      50.631   6.072  16.260  0.00  0.00    +0.000 OA
ATOM     22  H   UNL     1      47.516   6.539  15.960  0.00  0.00    +0.000 HD
BRANCH  20  23
ATOM     23  C   UNL     1      49.031   5.934  17.978  0.00  0.00    +0.000 A 
ATOM     24  C   UNL     1      49.159   4.652  18.497  0.00  0.00    +0.000 A 
ATOM     25  S   UNL     1      48.664   4.518  20.122  0.00  0.00    +0.000 S 
ATOM     26  C   UNL     1      48.212   6.158  20.175  0.00  0.00    +0.000 A 
ATOM     27  N   UNL     1      47.673   6.698  21.301  0.00  0.00    +0.000 NA
ATOM     28  C   UNL     1      47.339   7.941  21.190  0.00  0.00    +0.000 A 
ATOM     29  N   UNL     1      47.503   8.694  20.059  0.00  0.00    +0.000 N 
ATOM     30  C   UNL     1      48.075   8.202  18.908  0.00  0.00    +0.000 A 
ATOM     31  O   UNL     1      48.253   8.919  17.929  0.00  0.00    +0.000 OA
ATOM     32  C   UNL     1      48.453   6.803  18.976  0.00  0.00    +0.000 A 
ATOM     33  H   UNL     1      47.232   9.665  20.043  0.00  0.00    +0.000 HD
ENDBRANCH  20  23
ENDBRANCH  18  19
ENDBRANCH   4  18
TORSDOF 6
ENDMDL
MODEL 4
REMARK VINA RESULT:    -7.330      3.740      8.680
REMARK INTER + INTRA:         -10.946
REMARK INTER:                  -9.491
REMARK INTRA:                  -1.455
REMARK UNBOUND:                -1.045
REMARK  Name = 
REMARK  7 active torsions:
REMARK  status: ('A' for Active; 'I' for Inactive)
REMARK    1  A    between atoms: C_1  and  N_2
REMARK    2  A    between atoms: N_2  and  C_3
REMARK    3  A    between atoms: C_3  and  C_4
REMARK    4  A    between atoms: C_7  and  C_8
REMARK    5  A    between atoms: C_8  and  N_9
REMARK    6  A    between atoms: C_10  and  C_12
REMARK    7  A    between atoms: C_24  and  C_26
REMARK                            x       y       z     vdW  Elec       q    Type
REMARK                         _______ _______ _______ _____ _____    ______ ____
ROOT
ATOM      1  C   UNL     1      49.209   7.563  16.298  0.00  0.00    +0.000 A 
ATOM      2  C   UNL     1      48.574   8.781  16.001  0.00  0.00    +0.000 A 
ATOM      3  C   UNL     1      48.129   9.057  14.708  0.00  0.00    +0.000 A 
ATOM      4  C   UNL     1      48.294   8.111  13.689  0.00  0.00    +0.000 A 
ATOM      5  C   UNL     1      48.972   6.918  13.973  0.00  0.00    +0.000 A 
ATOM      6  C   UNL     1      49.418   6.641  15.268  0.00  0.00    +0.000 A 
ENDROOT
BRANCH   1   7
ATOM      7  C   UNL     1      49.696   7.287  17.698  0.00  0.00    +0.000 C 
BRANCH   7   9
ATOM      8  C   UNL     1      48.299   8.269  19.563  0.00  0.00    +0.000 C 
ATOM      9  N   UNL     1      48.707   7.113  18.772  0.00  0.00    +0.000 N 
ATOM     10  C   UNL     1      47.891   5.970  18.890  0.00  0.00    +0.000 C 
ATOM     11  O   UNL     1      46.894   5.952  19.613  0.00  0.00    +0.000 OA
BRANCH  10  12
ATOM     12  C   UNL     1      48.166   4.728  18.118  0.00  0.00    +0.000 A 
ATOM     13  C   UNL     1      49.266   3.895  18.314  0.00  0.00    +0.000 A 
ATOM     14  C   UNL     1      49.451   2.778  17.501  0.00  0.00    +0.000 A 
ATOM     15  C   UNL     1      48.481   2.482  16.561  0.00  0.00    +0.000 A 
ATOM     16  N   UNL     1      47.365   3.219  16.386  0.00  0.00    +0.000 NA
ATOM     17  C   UNL     1      47.229   4.320  17.172  0.00  0.00    +0.000 A 
ENDBRANCH  10  12
ENDBRANCH   7   9
ENDBRANCH   1   7
BRANCH   4  18
ATOM     18  C   UNL     1      47.757   8.371  12.308  0.00  0.00    +0.000 C 
BRANCH  18  19
ATOM     19  N   UNL     1      47.245   7.175  11.694  0.00  0.00    +0.000 N 
ATOM     20  C   UNL     1      45.902   7.047  11.440  0.00  0.00    +0.000 C 
ATOM     21  O   UNL     1      45.108   7.952  11.680  0.00  0.00    +0.000 OA
ATOM     22  H   UNL     1      47.838   6.351  11.705  0.00  0.00    +0.000 HD
BRANCH  20  23
ATOM     23  C   UNL     1      45.466   5.797  10.809  0.00  0.00    +0.000 A 
ATOM     24  C   UNL     1      45.762   5.568   9.472  0.00  0.00    +0.000 A 
ATOM     25  S   UNL     1      45.230   4.053   8.902  0.00  0.00    +0.000 S 
ATOM     26  C   UNL     1      44.538   3.670  10.410  0.00  0.00    +0.000 A 
ATOM     27  N   UNL     1      43.882   2.493  10.598  0.00  0.00    +0.000 NA
ATOM     28  C   UNL     1      43.374   2.349  11.776  0.00  0.00    +0.000 A 
ATOM     29  N   UNL     1      43.468   3.270  12.784  0.00  0.00    +0.000 N 
ATOM     30  C   UNL     1      44.151   4.458  12.652  0.00  0.00    +0.000 A 
ATOM     31  O   UNL     1      44.258   5.238  13.592  0.00  0.00    +0.000 OA
ATOM     32  C   UNL     1      44.728   4.675  11.339  0.00  0.00    +0.000 A 
ATOM     33  H   UNL     1      43.057   3.089  13.687  0.00  0.00    +0.000 HD
ENDBRANCH  20  23
ENDBRANCH  18  19
ENDBRANCH   4  18
TORSDOF 6
ENDMDL
MODEL 5
REMARK VINA RESULT:    -7.314      3.544      8.918
REMARK INTER + INTRA:         -10.925
REMARK INTER:                  -9.509
REMARK INTRA:                  -1.416
REMARK UNBOUND:                -1.045
REMARK  Name = 
REMARK  7 active torsions:
REMARK  status: ('A' for Active; 'I' for Inactive)
REMARK    1  A    between atoms: C_1  and  N_2
REMARK    2  A    between atoms: N_2  and  C_3
REMARK    3  A    between atoms: C_3  and  C_4
REMARK    4  A    between atoms: C_7  and  C_8
REMARK    5  A    between atoms: C_8  and  N_9
REMARK    6  A    between atoms: C_10  and  C_12
REMARK    7  A    between atoms: C_24  and  C_26
REMARK                            x       y       z     vdW  Elec       q    Type
REMARK                         _______ _______ _______ _____ _____    ______ ____
ROOT
ATOM      1  C   UNL     1      49.164   7.692  16.078  0.00  0.00    +0.000 A 
ATOM      2  C   UNL     1      49.201   6.575  15.227  0.00  0.00    +0.000 A 
ATOM      3  C   UNL     1      48.585   6.610  13.976  0.00  0.00    +0.000 A 
ATOM      4  C   UNL     1      47.933   7.771  13.544  0.00  0.00    +0.000 A 
ATOM      5  C   UNL     1      47.852   8.868  14.414  0.00  0.00    +0.000 A 
ATOM      6  C   UNL     1      48.470   8.833  15.666  0.00  0.00    +0.000 A 
ENDROOT
BRANCH   1   7
ATOM      7  C   UNL     1      49.824   7.631  17.433  0.00  0.00    +0.000 C 
BRANCH   7   9
ATOM      8  C   UNL     1      48.695   8.805  19.367  0.00  0.00    +0.000 C 
ATOM      9  N   UNL     1      48.977   7.576  18.633  0.00  0.00    +0.000 N 
ATOM     10  C   UNL     1      48.162   6.471  18.951  0.00  0.00    +0.000 C 
ATOM     11  O   UNL     1      47.265   6.542  19.792  0.00  0.00    +0.000 OA
BRANCH  10  12
ATOM     12  C   UNL     1      48.313   5.162  18.259  0.00  0.00    +0.000 A 
ATOM     13  C   UNL     1      49.465   4.378  18.283  0.00  0.00    +0.000 A 
ATOM     14  C   UNL     1      49.514   3.186  17.561  0.00  0.00    +0.000 A 
ATOM     15  C   UNL     1      48.375   2.774  16.895  0.00  0.00    +0.000 A 
ATOM     16  N   UNL     1      47.216   3.465  16.905  0.00  0.00    +0.000 NA
ATOM     17  C   UNL     1      47.209   4.638  17.592  0.00  0.00    +0.000 A 
ENDBRANCH  10  12
ENDBRANCH   7   9
ENDBRANCH   1   7
BRANCH   4  18
ATOM     18  C   UNL     1      47.324   7.843  12.170  0.00  0.00    +0.000 C 
BRANCH  18  19
ATOM     19  N   UNL     1      46.710   6.599  11.787  0.00  0.00    +0.000 N 
ATOM     20  C   UNL     1      45.397   6.350  12.100  0.00  0.00    +0.000 C 
ATOM     21  O   UNL     1      44.696   7.184  12.667  0.00  0.00    +0.000 OA
ATOM     22  H   UNL     1      47.323   5.831  11.533  0.00  0.00    +0.000 HD
BRANCH  20  23
ATOM     23  C   UNL     1      44.849   5.060  11.668  0.00  0.00    +0.000 A 
ATOM     24  C   UNL     1      44.137   4.284  12.572  0.00  0.00    +0.000 A 
ATOM     25  S   UNL     1      43.525   2.840  11.904  0.00  0.00    +0.000 S 
ATOM     26  C   UNL     1      44.236   3.176  10.394  0.00  0.00    +0.000 A 
ATOM     27  N   UNL     1      44.116   2.305   9.356  0.00  0.00    +0.000 NA
ATOM     28  C   UNL     1      44.736   2.666   8.283  0.00  0.00    +0.000 A 
ATOM     29  N   UNL     1      45.459   3.821   8.151  0.00  0.00    +0.000 N 
ATOM     30  C   UNL     1      45.580   4.749   9.160  0.00  0.00    +0.000 A 
ATOM     31  O   UNL     1      46.194   5.797   8.991  0.00  0.00    +0.000 OA
ATOM     32  C   UNL     1      44.913   4.382  10.395  0.00  0.00    +0.000 A 
ATOM     33  H   UNL     1      45.911   4.050   7.278  0.00  0.00    +0.000 HD
ENDBRANCH  20  23
ENDBRANCH  18  19
ENDBRANCH   4  18
TORSDOF 6
ENDMDL
MODEL 6
REMARK VINA RESULT:    -7.313      3.446      3.896
REMARK INTER + INTRA:         -10.923
REMARK INTER:                 -10.617
REMARK INTRA:                  -0.306
REMARK UNBOUND:                -1.045
REMARK  Name = 
REMARK  7 active torsions:
REMARK  status: ('A' for Active; 'I' for Inactive)
REMARK    1  A    between atoms: C_1  and  N_2
REMARK    2  A    between atoms: N_2  and  C_3
REMARK    3  A    between atoms: C_3  and  C_4
REMARK    4  A    between atoms: C_7  and  C_8
REMARK    5  A    between atoms: C_8  and  N_9
REMARK    6  A    between atoms: C_10  and  C_12
REMARK    7  A    between atoms: C_24  and  C_26
REMARK                            x       y       z     vdW  Elec       q    Type
REMARK                         _______ _______ _______ _____ _____    ______ ____
ROOT
ATOM      1  C   UNL     1      45.931   6.275  11.842  0.00  0.00    +0.000 A 
ATOM      2  C   UNL     1      46.329   7.622  11.794  0.00  0.00    +0.000 A 
ATOM      3  C   UNL     1      47.455   8.059  12.493  0.00  0.00    +0.000 A 
ATOM      4  C   UNL     1      48.216   7.153  13.240  0.00  0.00    +0.000 A 
ATOM      5  C   UNL     1      47.792   5.820  13.329  0.00  0.00    +0.000 A 
ATOM      6  C   UNL     1      46.665   5.382  12.629  0.00  0.00    +0.000 A 
ENDROOT
BRANCH   1   7
ATOM      7  C   UNL     1      44.704   5.822  11.092  0.00  0.00    +0.000 C 
BRANCH   7   9
ATOM      8  C   UNL     1      43.080   4.664  12.646  0.00  0.00    +0.000 C 
ATOM      9  N   UNL     1      44.017   4.599  11.529  0.00  0.00    +0.000 N 
ATOM     10  C   UNL     1      43.961   3.426  10.750  0.00  0.00    +0.000 C 
ATOM     11  O   UNL     1      43.166   2.517  10.995  0.00  0.00    +0.000 OA
BRANCH  10  12
ATOM     12  C   UNL     1      44.833   3.234   9.560  0.00  0.00    +0.000 A 
ATOM     13  C   UNL     1      45.361   2.011   9.149  0.00  0.00    +0.000 A 
ATOM     14  C   UNL     1      46.207   1.951   8.042  0.00  0.00    +0.000 A 
ATOM     15  C   UNL     1      46.437   3.113   7.328  0.00  0.00    +0.000 A 
ATOM     16  N   UNL     1      45.889   4.303   7.647  0.00  0.00    +0.000 NA
ATOM     17  C   UNL     1      45.094   4.335   8.750  0.00  0.00    +0.000 A 
ENDBRANCH  10  12
ENDBRANCH   7   9
ENDBRANCH   1   7
BRANCH   4  18
ATOM     18  C   UNL     1      49.470   7.601  13.940  0.00  0.00    +0.000 C 
BRANCH  18  19
ATOM     19  N   UNL     1      49.226   7.942  15.317  0.00  0.00    +0.000 N 
ATOM     20  C   UNL     1      49.602   7.084  16.320  0.00  0.00    +0.000 C 
ATOM     21  O   UNL     1      50.192   6.032  16.086  0.00  0.00    +0.000 OA
ATOM     22  H   UNL     1      48.551   8.676  15.506  0.00  0.00    +0.000 HD
BRANCH  20  23
ATOM     23  C   UNL     1      49.320   7.511  17.694  0.00  0.00    +0.000 A 
ATOM     24  C   UNL     1      49.888   8.683  18.175  0.00  0.00    +0.000 A 
ATOM     25  S   UNL     1      49.425   9.065  19.770  0.00  0.00    +0.000 S 
ATOM     26  C   UNL     1      48.489   7.648  19.893  0.00  0.00    +0.000 A 
ATOM     27  N   UNL     1      47.829   7.346  21.044  0.00  0.00    +0.000 NA
ATOM     28  C   UNL     1      47.190   6.224  21.012  0.00  0.00    +0.000 A 
ATOM     29  N   UNL     1      47.146   5.382  19.934  0.00  0.00    +0.000 N 
ATOM     30  C   UNL     1      47.769   5.662  18.740  0.00  0.00    +0.000 A 
ATOM     31  O   UNL     1      47.667   4.908  17.777  0.00  0.00    +0.000 OA
ATOM     32  C   UNL     1      48.515   6.905  18.728  0.00  0.00    +0.000 A 
ATOM     33  H   UNL     1      46.617   4.524  19.972  0.00  0.00    +0.000 HD
ENDBRANCH  20  23
ENDBRANCH  18  19
ENDBRANCH   4  18
TORSDOF 6
ENDMDL
MODEL 7
REMARK VINA RESULT:    -6.807      3.839      9.504
REMARK INTER + INTRA:         -10.240
REMARK INTER:                  -8.806
REMARK INTRA:                  -1.435
REMARK UNBOUND:                -1.045
REMARK  Name = 
REMARK  7 active torsions:
REMARK  status: ('A' for Active; 'I' for Inactive)
REMARK    1  A    between atoms: C_1  and  N_2
REMARK    2  A    between atoms: N_2  and  C_3
REMARK    3  A    between atoms: C_3  and  C_4
REMARK    4  A    between atoms: C_7  and  C_8
REMARK    5  A    between atoms: C_8  and  N_9
REMARK    6  A    between atoms: C_10  and  C_12
REMARK    7  A    between atoms: C_24  and  C_26
REMARK                            x       y       z     vdW  Elec       q    Type
REMARK                         _______ _______ _______ _____ _____    ______ ____
ROOT
ATOM      1  C   UNL     1      49.267   5.570  19.796  0.00  0.00    +0.000 A 
ATOM      2  C   UNL     1      49.878   4.471  19.171  0.00  0.00    +0.000 A 
ATOM      3  C   UNL     1      49.238   3.793  18.133  0.00  0.00    +0.000 A 
ATOM      4  C   UNL     1      47.978   4.212  17.689  0.00  0.00    +0.000 A 
ATOM      5  C   UNL     1      47.346   5.277  18.346  0.00  0.00    +0.000 A 
ATOM      6  C   UNL     1      47.988   5.957  19.384  0.00  0.00    +0.000 A 
ENDROOT
BRANCH   1   7
ATOM      7  C   UNL     1      49.968   6.284  20.925  0.00  0.00    +0.000 C 
BRANCH   7   9
ATOM      8  C   UNL     1      49.704   8.552  22.011  0.00  0.00    +0.000 C 
ATOM      9  N   UNL     1      50.105   7.746  20.863  0.00  0.00    +0.000 N 
ATOM     10  C   UNL     1      50.887   8.406  19.894  0.00  0.00    +0.000 C 
ATOM     11  O   UNL     1      51.214   9.588  20.014  0.00  0.00    +0.000 OA
BRANCH  10  12
ATOM     12  C   UNL     1      51.396   7.702  18.686  0.00  0.00    +0.000 A 
ATOM     13  C   UNL     1      50.750   7.670  17.451  0.00  0.00    +0.000 A 
ATOM     14  C   UNL     1      51.294   6.940  16.396  0.00  0.00    +0.000 A 
ATOM     15  C   UNL     1      52.518   6.324  16.586  0.00  0.00    +0.000 A 
ATOM     16  N   UNL     1      53.213   6.390  17.740  0.00  0.00    +0.000 NA
ATOM     17  C   UNL     1      52.641   7.082  18.760  0.00  0.00    +0.000 A 
ENDBRANCH  10  12
ENDBRANCH   7   9
ENDBRANCH   1   7
BRANCH   4  18
ATOM     18  C   UNL     1      47.310   3.530  16.526  0.00  0.00    +0.000 C 
BRANCH  18  19
ATOM     19  N   UNL     1      46.718   4.474  15.615  0.00  0.00    +0.000 N 
ATOM     20  C   UNL     1      46.759   4.249  14.262  0.00  0.00    +0.000 C 
ATOM     21  O   UNL     1      47.252   3.228  13.789  0.00  0.00    +0.000 OA
ATOM     22  H   UNL     1      46.521   5.405  15.967  0.00  0.00    +0.000 HD
BRANCH  20  23
ATOM     23  C   UNL     1      46.128   5.258  13.405  0.00  0.00    +0.000 A 
ATOM     24  C   UNL     1      46.808   6.435  13.123  0.00  0.00    +0.000 A 
ATOM     25  S   UNL     1      45.962   7.481  12.077  0.00  0.00    +0.000 S 
ATOM     26  C   UNL     1      44.633   6.420  12.006  0.00  0.00    +0.000 A 
ATOM     27  N   UNL     1      43.525   6.736  11.282  0.00  0.00    +0.000 NA
ATOM     28  C   UNL     1      42.578   5.861  11.347  0.00  0.00    +0.000 A 
ATOM     29  N   UNL     1      42.641   4.696  12.063  0.00  0.00    +0.000 N 
ATOM     30  C   UNL     1      43.752   4.317  12.782  0.00  0.00    +0.000 A 
ATOM     31  O   UNL     1      43.793   3.243  13.372  0.00  0.00    +0.000 OA
ATOM     32  C   UNL     1      44.840   5.276  12.754  0.00  0.00    +0.000 A 
ATOM     33  H   UNL     1      41.868   4.048  12.062  0.00  0.00    +0.000 HD
ENDBRANCH  20  23
ENDBRANCH  18  19
ENDBRANCH   4  18
TORSDOF 6
ENDMDL
MODEL 8
REMARK VINA RESULT:    -6.641      3.870      9.606
REMARK INTER + INTRA:         -10.016
REMARK INTER:                  -8.637
REMARK INTRA:                  -1.379
REMARK UNBOUND:                -1.045
REMARK  Name = 
REMARK  7 active torsions:
REMARK  status: ('A' for Active; 'I' for Inactive)
REMARK    1  A    between atoms: C_1  and  N_2
REMARK    2  A    between atoms: N_2  and  C_3
REMARK    3  A    between atoms: C_3  and  C_4
REMARK    4  A    between atoms: C_7  and  C_8
REMARK    5  A    between atoms: C_8  and  N_9
REMARK    6  A    between atoms: C_10  and  C_12
REMARK    7  A    between atoms: C_24  and  C_26
REMARK                            x       y       z     vdW  Elec       q    Type
REMARK                         _______ _______ _______ _____ _____    ______ ____
ROOT
ATOM      1  C   UNL     1      49.822   5.468  19.336  0.00  0.00    +0.000 A 
ATOM      2  C   UNL     1      50.399   4.672  18.332  0.00  0.00    +0.000 A 
ATOM      3  C   UNL     1      49.599   3.994  17.411  0.00  0.00    +0.000 A 
ATOM      4  C   UNL     1      48.205   4.113  17.466  0.00  0.00    +0.000 A 
ATOM      5  C   UNL     1      47.628   4.866  18.498  0.00  0.00    +0.000 A 
ATOM      6  C   UNL     1      48.429   5.546  19.419  0.00  0.00    +0.000 A 
ENDROOT
BRANCH   1   7
ATOM      7  C   UNL     1      50.701   6.183  20.331  0.00  0.00    +0.000 C 
BRANCH   7   9
ATOM      8  C   UNL     1      53.170   6.565  19.941  0.00  0.00    +0.000 C 
ATOM      9  N   UNL     1      51.792   7.033  19.832  0.00  0.00    +0.000 N 
ATOM     10  C   UNL     1      51.583   8.130  18.972  0.00  0.00    +0.000 C 
ATOM     11  O   UNL     1      52.506   8.656  18.349  0.00  0.00    +0.000 OA
BRANCH  10  12
ATOM     12  C   UNL     1      50.226   8.692  18.736  0.00  0.00    +0.000 A 
ATOM     13  C   UNL     1      49.476   8.504  17.576  0.00  0.00    +0.000 A 
ATOM     14  C   UNL     1      48.231   9.115  17.441  0.00  0.00    +0.000 A 
ATOM     15  C   UNL     1      47.734   9.838  18.511  0.00  0.00    +0.000 A 
ATOM     16  N   UNL     1      48.393   9.985  19.679  0.00  0.00    +0.000 NA
ATOM     17  C   UNL     1      49.619   9.404  19.768  0.00  0.00    +0.000 A 
ENDBRANCH  10  12
ENDBRANCH   7   9
ENDBRANCH   1   7
BRANCH   4  18
ATOM     18  C   UNL     1      47.338   3.442  16.436  0.00  0.00    +0.000 C 
BRANCH  18  19
ATOM     19  N   UNL     1      46.684   4.393  15.578  0.00  0.00    +0.000 N 
ATOM     20  C   UNL     1      46.871   4.344  14.220  0.00  0.00    +0.000 C 
ATOM     21  O   UNL     1      47.555   3.472  13.691  0.00  0.00    +0.000 OA
ATOM     22  H   UNL     1      46.315   5.236  16.007  0.00  0.00    +0.000 HD
BRANCH  20  23
ATOM     23  C   UNL     1      46.164   5.349  13.419  0.00  0.00    +0.000 A 
ATOM     24  C   UNL     1      46.755   6.585  13.198  0.00  0.00    +0.000 A 
ATOM     25  S   UNL     1      45.829   7.620  12.209  0.00  0.00    +0.000 S 
ATOM     26  C   UNL     1      44.580   6.470  12.085  0.00  0.00    +0.000 A 
ATOM     27  N   UNL     1      43.448   6.742  11.381  0.00  0.00    +0.000 NA
ATOM     28  C   UNL     1      42.567   5.798  11.402  0.00  0.00    +0.000 A 
ATOM     29  N   UNL     1      42.719   4.605  12.056  0.00  0.00    +0.000 N 
ATOM     30  C   UNL     1      43.859   4.271  12.751  0.00  0.00    +0.000 A 
ATOM     31  O   UNL     1      43.981   3.173  13.284  0.00  0.00    +0.000 OA
ATOM     32  C   UNL     1      44.874   5.307  12.772  0.00  0.00    +0.000 A 
ATOM     33  H   UNL     1      41.995   3.903  12.022  0.00  0.00    +0.000 HD
ENDBRANCH  20  23
ENDBRANCH  18  19
ENDBRANCH   4  18
TORSDOF 6
ENDMDL
MODEL 9
REMARK VINA RESULT:    -6.534      5.159      5.450
REMARK INTER + INTRA:          -9.871
REMARK INTER:                  -9.560
REMARK INTRA:                  -0.311
REMARK UNBOUND:                -1.045
REMARK  Name = 
REMARK  7 active torsions:
REMARK  status: ('A' for Active; 'I' for Inactive)
REMARK    1  A    between atoms: C_1  and  N_2
REMARK    2  A    between atoms: N_2  and  C_3
REMARK    3  A    between atoms: C_3  and  C_4
REMARK    4  A    between atoms: C_7  and  C_8
REMARK    5  A    between atoms: C_8  and  N_9
REMARK    6  A    between atoms: C_10  and  C_12
REMARK    7  A    between atoms: C_24  and  C_26
REMARK                            x       y       z     vdW  Elec       q    Type
REMARK                         _______ _______ _______ _____ _____    ______ ____
ROOT
ATOM      1  C   UNL     1      45.596   6.682  11.768  0.00  0.00    +0.000 A 
ATOM      2  C   UNL     1      45.197   7.972  12.159  0.00  0.00    +0.000 A 
ATOM      3  C   UNL     1      45.989   8.731  13.021  0.00  0.00    +0.000 A 
ATOM      4  C   UNL     1      47.204   8.223  13.495  0.00  0.00    +0.000 A 
ATOM      5  C   UNL     1      47.576   6.918  13.145  0.00  0.00    +0.000 A 
ATOM      6  C   UNL     1      46.785   6.157  12.281  0.00  0.00    +0.000 A 
ENDROOT
BRANCH   1   7
ATOM      7  C   UNL     1      44.721   5.869  10.846  0.00  0.00    +0.000 C 
BRANCH   7   9
ATOM      8  C   UNL     1      43.122   4.801  12.487  0.00  0.00    +0.000 C 
ATOM      9  N   UNL     1      44.056   4.670  11.374  0.00  0.00    +0.000 N 
ATOM     10  C   UNL     1      44.017   3.442  10.683  0.00  0.00    +0.000 C 
ATOM     11  O   UNL     1      43.239   2.541  10.998  0.00  0.00    +0.000 OA
BRANCH  10  12
ATOM     12  C   UNL     1      44.889   3.178   9.507  0.00  0.00    +0.000 A 
ATOM     13  C   UNL     1      45.352   1.919   9.126  0.00  0.00    +0.000 A 
ATOM     14  C   UNL     1      46.204   1.791   8.029  0.00  0.00    +0.000 A 
ATOM     15  C   UNL     1      46.506   2.923   7.295  0.00  0.00    +0.000 A 
ATOM     16  N   UNL     1      46.022   4.148   7.585  0.00  0.00    +0.000 NA
ATOM     17  C   UNL     1      45.220   4.247   8.678  0.00  0.00    +0.000 A 
ENDBRANCH  10  12
ENDBRANCH   7   9
ENDBRANCH   1   7
BRANCH   4  18
ATOM     18  C   UNL     1      48.096   9.061  14.370  0.00  0.00    +0.000 C 
BRANCH  18  19
ATOM     19  N   UNL     1      49.490   8.834  14.093  0.00  0.00    +0.000 N 
ATOM     20  C   UNL     1      50.160   9.638  13.205  0.00  0.00    +0.000 C 
ATOM     21  O   UNL     1      49.615  10.594  12.658  0.00  0.00    +0.000 OA
ATOM     22  H   UNL     1      49.879   7.933  14.352  0.00  0.00    +0.000 HD
BRANCH  20  23
ATOM     23  C   UNL     1      51.578   9.340  12.986  0.00  0.00    +0.000 A 
ATOM     24  C   UNL     1      52.539   9.998  13.741  0.00  0.00    +0.000 A 
ATOM     25  S   UNL     1      54.135   9.505  13.400  0.00  0.00    +0.000 S 
ATOM     26  C   UNL     1      53.601   8.431  12.192  0.00  0.00    +0.000 A 
ATOM     27  N   UNL     1      54.489   7.694  11.471  0.00  0.00    +0.000 NA
ATOM     28  C   UNL     1      53.951   6.951  10.563  0.00  0.00    +0.000 A 
ATOM     29  N   UNL     1      52.607   6.871  10.316  0.00  0.00    +0.000 N 
ATOM     30  C   UNL     1      51.669   7.570  11.041  0.00  0.00    +0.000 A 
ATOM     31  O   UNL     1      50.469   7.437  10.826  0.00  0.00    +0.000 OA
ATOM     32  C   UNL     1      52.224   8.434  12.065  0.00  0.00    +0.000 A 
ATOM     33  H   UNL     1      52.250   6.260   9.597  0.00  0.00    +0.000 HD
ENDBRANCH  20  23
ENDBRANCH  18  19
ENDBRANCH   4  18
TORSDOF 6
ENDMDL
