MODEL 1
REMARK VINA RESULT:    -7.842      0.000      0.000
REMARK INTER + INTRA:         -12.027
REMARK INTER:                 -11.051
REMARK INTRA:                  -0.976
REMARK UNBOUND:                -0.976
REMARK  Name = 
REMARK  8 active torsions:
REMARK  status: ('A' for Active; 'I' for Inactive)
REMARK    1  A    between atoms: C_1  and  N_2
REMARK    2  A    between atoms: N_2  and  C_3
REMARK    3  A    between atoms: N_2  and  C_15
REMARK    4  A    between atoms: C_3  and  C_4
REMARK    5  A    between atoms: C_4  and  N_5
REMARK    6  A    between atoms: C_9  and  C_10
REMARK    7  A    between atoms: C_20  and  O_21
REMARK    8  A    between atoms: O_21  and  C_22
REMARK                            x       y       z     vdW  Elec       q    Type
REMARK                         _______ _______ _______ _____ _____    ______ ____
ROOT
ATOM      1  C   UNL     1      45.753   3.292  12.891  0.00  0.00    +0.000 C 
ATOM      2  N   UNL     1      45.043   4.569  12.817  0.00  0.00    +0.000 N 
ENDROOT
BRANCH   2   3
ATOM      3  C   UNL     1      45.781   5.755  12.903  0.00  0.00    +0.000 A 
ATOM      4  C   UNL     1      47.172   5.760  13.089  0.00  0.00    +0.000 A 
ATOM      5  C   UNL     1      47.902   6.952  13.183  0.00  0.00    +0.000 A 
ATOM      6  C   UNL     1      47.252   8.178  13.101  0.00  0.00    +0.000 A 
ATOM      7  F   UNL     1      47.987   9.295  13.170  0.00  0.00    +0.000 F 
ATOM      8  C   UNL     1      45.873   8.221  12.929  0.00  0.00    +0.000 A 
ATOM      9  C   UNL     1      45.168   7.021  12.809  0.00  0.00    +0.000 A 
BRANCH   8  10
ATOM     10  O   UNL     1      45.103   9.356  12.827  0.00  0.00    +0.000 OA
BRANCH  10  11
ATOM     11  C   UNL     1      45.056  10.067  11.568  0.00  0.00    +0.000 C 
ATOM     12  C   UNL     1      45.854  11.380  11.435  0.00  0.00    +0.000 C 
ATOM     13  N   UNL     1      44.654  12.081  10.950  0.00  0.00    +0.000 NA
ATOM     14  C   UNL     1      43.807  10.956  11.372  0.00  0.00    +0.000 C 
ATOM     15  H   UNL     1      44.649  12.245   9.943  0.00  0.00    +0.000 HD
ENDBRANCH  10  11
ENDBRANCH   8  10
ENDBRANCH   2   3
BRANCH   2  16
ATOM     16  C   UNL     1      43.602   4.631  12.477  0.00  0.00    +0.000 C 
BRANCH  16  17
ATOM     17  C   UNL     1      43.251   4.232  11.039  0.00  0.00    +0.000 C 
BRANCH  17  18
ATOM     18  N   UNL     1      44.040   4.970  10.040  0.00  0.00    +0.000 N 
ATOM     19  C   UNL     1      44.847   4.096   9.284  0.00  0.00    +0.000 A 
ATOM     20  C   UNL     1      45.653   4.616   8.277  0.00  0.00    +0.000 A 
ATOM     21  C   UNL     1      46.445   3.747   7.520  0.00  0.00    +0.000 A 
ATOM     22  C   UNL     1      46.421   2.376   7.783  0.00  0.00    +0.000 A 
ATOM     23  C   UNL     1      45.587   1.946   8.796  0.00  0.00    +0.000 A 
ATOM     24  N   UNL     1      44.807   2.769   9.535  0.00  0.00    +0.000 NA
ATOM     25  H   UNL     1      44.639   5.676  10.460  0.00  0.00    +0.000 HD
BRANCH  22  26
ATOM     26  C   UNL     1      47.267   1.458   6.991  0.00  0.00    +0.000 C 
ATOM     27  N   UNL     1      48.352   1.955   6.323  0.00  0.00    +0.000 N 
ATOM     28  O   UNL     1      47.009   0.259   6.926  0.00  0.00    +0.000 OA
ATOM     29  H   UNL     1      48.665   2.914   6.313  0.00  0.00    +0.000 HD
ATOM     30  H   UNL     1      48.903   1.286   5.796  0.00  0.00    +0.000 HD
ENDBRANCH  22  26
ENDBRANCH  17  18
ENDBRANCH  16  17
ENDBRANCH   2  16
TORSDOF 7
ENDMDL
MODEL 2
REMARK VINA RESULT:    -7.752      2.550      4.362
REMARK INTER + INTRA:         -11.901
REMARK INTER:                 -11.121
REMARK INTRA:                  -0.780
REMARK UNBOUND:                -0.976
REMARK  Name = 
REMARK  8 active torsions:
REMARK  status: ('A' for Active; 'I' for Inactive)
REMARK    1  A    between atoms: C_1  and  N_2
REMARK    2  A    between atoms: N_2  and  C_3
REMARK    3  A    between atoms: N_2  and  C_15
REMARK    4  A    between atoms: C_3  and  C_4
REMARK    5  A    between atoms: C_4  and  N_5
REMARK    6  A    between atoms: C_9  and  C_10
REMARK    7  A    between atoms: C_20  and  O_21
REMARK    8  A    between atoms: O_21  and  C_22
REMARK                            x       y       z     vdW  Elec       q    Type
REMARK                         _______ _______ _______ _____ _____    ______ ____
ROOT
ATOM      1  C   UNL     1      45.473   2.924  12.644  0.00  0.00    +0.000 C 
ATOM      2  N   UNL     1      45.166   4.349  12.770  0.00  0.00    +0.000 N 
ENDROOT
BRANCH   2   3
ATOM      3  C   UNL     1      46.178   5.221  13.188  0.00  0.00    +0.000 A 
ATOM      4  C   UNL     1      46.477   6.406  12.499  0.00  0.00    +0.000 A 
ATOM      5  C   UNL     1      47.498   7.269  12.919  0.00  0.00    +0.000 A 
ATOM      6  C   UNL     1      48.255   6.961  14.043  0.00  0.00    +0.000 A 
ATOM      7  F   UNL     1      49.205   7.822  14.428  0.00  0.00    +0.000 F 
ATOM      8  C   UNL     1      48.001   5.790  14.750  0.00  0.00    +0.000 A 
ATOM      9  C   UNL     1      46.961   4.958  14.330  0.00  0.00    +0.000 A 
BRANCH   8  10
ATOM     10  O   UNL     1      48.664   5.363  15.876  0.00  0.00    +0.000 OA
BRANCH  10  11
ATOM     11  C   UNL     1      48.099   4.291  16.665  0.00  0.00    +0.000 C 
ATOM     12  C   UNL     1      47.288   4.654  17.926  0.00  0.00    +0.000 C 
ATOM     13  N   UNL     1      48.102   3.733  18.736  0.00  0.00    +0.000 NA
ATOM     14  C   UNL     1      49.084   3.619  17.648  0.00  0.00    +0.000 C 
ATOM     15  H   UNL     1      47.634   2.856  18.962  0.00  0.00    +0.000 HD
ENDBRANCH  10  11
ENDBRANCH   8  10
ENDBRANCH   2   3
BRANCH   2  16
ATOM     16  C   UNL     1      43.876   4.903  12.296  0.00  0.00    +0.000 C 
BRANCH  16  17
ATOM     17  C   UNL     1      43.465   4.487  10.879  0.00  0.00    +0.000 C 
BRANCH  17  18
ATOM     18  N   UNL     1      44.269   5.149   9.840  0.00  0.00    +0.000 N 
ATOM     19  C   UNL     1      45.034   4.211   9.116  0.00  0.00    +0.000 A 
ATOM     20  C   UNL     1      45.847   4.654   8.079  0.00  0.00    +0.000 A 
ATOM     21  C   UNL     1      46.596   3.722   7.354  0.00  0.00    +0.000 A 
ATOM     22  C   UNL     1      46.523   2.367   7.678  0.00  0.00    +0.000 A 
ATOM     23  C   UNL     1      45.685   2.015   8.718  0.00  0.00    +0.000 A 
ATOM     24  N   UNL     1      44.946   2.899   9.427  0.00  0.00    +0.000 NA
ATOM     25  H   UNL     1      44.900   5.849  10.222  0.00  0.00    +0.000 HD
BRANCH  22  26
ATOM     26  C   UNL     1      47.324   1.382   6.921  0.00  0.00    +0.000 C 
ATOM     27  N   UNL     1      48.471   1.789   6.297  0.00  0.00    +0.000 N 
ATOM     28  O   UNL     1      46.974   0.208   6.844  0.00  0.00    +0.000 OA
ATOM     29  H   UNL     1      48.860   2.720   6.300  0.00  0.00    +0.000 HD
ATOM     30  H   UNL     1      48.987   1.077   5.792  0.00  0.00    +0.000 HD
ENDBRANCH  22  26
ENDBRANCH  17  18
ENDBRANCH  16  17
ENDBRANCH   2  16
TORSDOF 7
ENDMDL
MODEL 3
REMARK VINA RESULT:    -7.558      1.975      3.118
REMARK INTER + INTRA:         -11.627
REMARK INTER:                 -10.813
REMARK INTRA:                  -0.814
REMARK UNBOUND:                -0.976
REMARK  Name = 
REMARK  8 active torsions:
REMARK  status: ('A' for Active; 'I' for Inactive)
REMARK    1  A    between atoms: C_1  and  N_2
REMARK    2  A    between atoms: N_2  and  C_3
REMARK    3  A    between atoms: N_2  and  C_15
REMARK    4  A    between atoms: C_3  and  C_4
REMARK    5  A    between atoms: C_4  and  N_5
REMARK    6  A    between atoms: C_9  and  C_10
REMARK    7  A    between atoms: C_20  and  O_21
REMARK    8  A    between atoms: O_21  and  C_22
REMARK                            x       y       z     vdW  Elec       q    Type
REMARK                         _______ _______ _______ _____ _____    ______ ____
ROOT
ATOM      1  C   UNL     1      46.033   3.682  12.861  0.00  0.00    +0.000 C 
ATOM      2  N   UNL     1      45.104   4.802  12.710  0.00  0.00    +0.000 N 
ENDROOT
BRANCH   2   3
ATOM      3  C   UNL     1      45.625   6.095  12.583  0.00  0.00    +0.000 A 
ATOM      4  C   UNL     1      44.804   7.234  12.558  0.00  0.00    +0.000 A 
ATOM      5  C   UNL     1      45.333   8.524  12.421  0.00  0.00    +0.000 A 
ATOM      6  C   UNL     1      46.705   8.707  12.295  0.00  0.00    +0.000 A 
ATOM      7  F   UNL     1      47.175   9.956  12.191  0.00  0.00    +0.000 F 
ATOM      8  C   UNL     1      47.555   7.606  12.303  0.00  0.00    +0.000 A 
ATOM      9  C   UNL     1      47.010   6.331  12.469  0.00  0.00    +0.000 A 
BRANCH   8  10
ATOM     10  O   UNL     1      48.925   7.639  12.194  0.00  0.00    +0.000 OA
BRANCH  10  11
ATOM     11  C   UNL     1      49.703   8.273  13.236  0.00  0.00    +0.000 C 
ATOM     12  C   UNL     1      51.239   8.284  13.102  0.00  0.00    +0.000 C 
ATOM     13  N   UNL     1      51.379   7.726  14.457  0.00  0.00    +0.000 NA
ATOM     14  C   UNL     1      49.946   7.399  14.487  0.00  0.00    +0.000 C 
ATOM     15  H   UNL     1      51.660   8.411  15.160  0.00  0.00    +0.000 HD
ENDBRANCH  10  11
ENDBRANCH   8  10
ENDBRANCH   2   3
BRANCH   2  16
ATOM     16  C   UNL     1      43.653   4.578  12.511  0.00  0.00    +0.000 C 
BRANCH  16  17
ATOM     17  C   UNL     1      43.249   4.108  11.109  0.00  0.00    +0.000 C 
BRANCH  17  18
ATOM     18  N   UNL     1      43.939   4.850  10.043  0.00  0.00    +0.000 N 
ATOM     19  C   UNL     1      44.776   3.999   9.293  0.00  0.00    +0.000 A 
ATOM     20  C   UNL     1      45.500   4.525   8.228  0.00  0.00    +0.000 A 
ATOM     21  C   UNL     1      46.321   3.679   7.477  0.00  0.00    +0.000 A 
ATOM     22  C   UNL     1      46.408   2.325   7.803  0.00  0.00    +0.000 A 
ATOM     23  C   UNL     1      45.650   1.887   8.871  0.00  0.00    +0.000 A 
ATOM     24  N   UNL     1      44.843   2.687   9.605  0.00  0.00    +0.000 NA
ATOM     25  H   UNL     1      44.502   5.616  10.403  0.00  0.00    +0.000 HD
BRANCH  22  26
ATOM     26  C   UNL     1      47.285   1.431   7.017  0.00  0.00    +0.000 C 
ATOM     27  N   UNL     1      48.432   1.933   6.466  0.00  0.00    +0.000 N 
ATOM     28  O   UNL     1      46.999   0.248   6.853  0.00  0.00    +0.000 OA
ATOM     29  H   UNL     1      48.772   2.880   6.542  0.00  0.00    +0.000 HD
ATOM     30  H   UNL     1      49.002   1.281   5.938  0.00  0.00    +0.000 HD
ENDBRANCH  22  26
ENDBRANCH  17  18
ENDBRANCH  16  17
ENDBRANCH   2  16
TORSDOF 7
ENDMDL
MODEL 4
REMARK VINA RESULT:    -7.219      4.064      8.267
REMARK INTER + INTRA:         -11.150
REMARK INTER:                 -10.517
REMARK INTRA:                  -0.633
REMARK UNBOUND:                -0.976
REMARK  Name = 
REMARK  8 active torsions:
REMARK  status: ('A' for Active; 'I' for Inactive)
REMARK    1  A    between atoms: C_1  and  N_2
REMARK    2  A    between atoms: N_2  and  C_3
REMARK    3  A    between atoms: N_2  and  C_15
REMARK    4  A    between atoms: C_3  and  C_4
REMARK    5  A    between atoms: C_4  and  N_5
REMARK    6  A    between atoms: C_9  and  C_10
REMARK    7  A    between atoms: C_20  and  O_21
REMARK    8  A    between atoms: O_21  and  C_22
REMARK                            x       y       z     vdW  Elec       q    Type
REMARK                         _______ _______ _______ _____ _____    ______ ____
ROOT
ATOM      1  C   UNL     1      44.724   7.633  11.423  0.00  0.00    +0.000 C 
ATOM      2  N   UNL     1      45.666   6.516  11.358  0.00  0.00    +0.000 N 
ENDROOT
BRANCH   2   3
ATOM      3  C   UNL     1      45.260   5.330  10.735  0.00  0.00    +0.000 A 
ATOM      4  C   UNL     1      44.505   4.354  11.404  0.00  0.00    +0.000 A 
ATOM      5  C   UNL     1      44.111   3.165  10.776  0.00  0.00    +0.000 A 
ATOM      6  C   UNL     1      44.472   2.917   9.457  0.00  0.00    +0.000 A 
ATOM      7  F   UNL     1      44.055   1.782   8.884  0.00  0.00    +0.000 F 
ATOM      8  C   UNL     1      45.230   3.852   8.759  0.00  0.00    +0.000 A 
ATOM      9  C   UNL     1      45.589   5.043   9.395  0.00  0.00    +0.000 A 
BRANCH   8  10
ATOM     10  O   UNL     1      45.653   3.743   7.456  0.00  0.00    +0.000 OA
BRANCH  10  11
ATOM     11  C   UNL     1      46.973   3.218   7.182  0.00  0.00    +0.000 C 
ATOM     12  C   UNL     1      47.347   2.894   5.722  0.00  0.00    +0.000 C 
ATOM     13  N   UNL     1      47.774   1.541   6.113  0.00  0.00    +0.000 NA
ATOM     14  C   UNL     1      47.132   1.700   7.425  0.00  0.00    +0.000 C 
ATOM     15  H   UNL     1      48.786   1.424   6.161  0.00  0.00    +0.000 HD
ENDBRANCH  10  11
ENDBRANCH   8  10
ENDBRANCH   2   3
BRANCH   2  16
ATOM     16  C   UNL     1      47.080   6.675  11.770  0.00  0.00    +0.000 C 
BRANCH  16  17
ATOM     17  C   UNL     1      47.330   6.631  13.282  0.00  0.00    +0.000 C 
BRANCH  17  18
ATOM     18  N   UNL     1      46.787   5.416  13.909  0.00  0.00    +0.000 N 
ATOM     19  C   UNL     1      47.465   5.117  15.108  0.00  0.00    +0.000 A 
ATOM     20  C   UNL     1      47.076   4.007  15.850  0.00  0.00    +0.000 A 
ATOM     21  C   UNL     1      47.741   3.718  17.045  0.00  0.00    +0.000 A 
ATOM     22  C   UNL     1      48.784   4.538  17.477  0.00  0.00    +0.000 A 
ATOM     23  C   UNL     1      49.100   5.623  16.682  0.00  0.00    +0.000 A 
ATOM     24  N   UNL     1      48.464   5.925  15.527  0.00  0.00    +0.000 NA
ATOM     25  H   UNL     1      46.843   4.605  13.299  0.00  0.00    +0.000 HD
BRANCH  22  26
ATOM     26  C   UNL     1      49.496   4.227  18.735  0.00  0.00    +0.000 C 
ATOM     27  N   UNL     1      50.811   3.854  18.685  0.00  0.00    +0.000 N 
ATOM     28  O   UNL     1      48.925   4.299  19.819  0.00  0.00    +0.000 OA
ATOM     29  H   UNL     1      51.383   3.770  17.858  0.00  0.00    +0.000 HD
ATOM     30  H   UNL     1      51.257   3.653  19.574  0.00  0.00    +0.000 HD
ENDBRANCH  22  26
ENDBRANCH  17  18
ENDBRANCH  16  17
ENDBRANCH   2  16
TORSDOF 7
ENDMDL
MODEL 5
REMARK VINA RESULT:    -6.967      2.557      3.398
REMARK INTER + INTRA:         -10.794
REMARK INTER:                 -10.066
REMARK INTRA:                  -0.729
REMARK UNBOUND:                -0.976
REMARK  Name = 
REMARK  8 active torsions:
REMARK  status: ('A' for Active; 'I' for Inactive)
REMARK    1  A    between atoms: C_1  and  N_2
REMARK    2  A    between atoms: N_2  and  C_3
REMARK    3  A    between atoms: N_2  and  C_15
REMARK    4  A    between atoms: C_3  and  C_4
REMARK    5  A    between atoms: C_4  and  N_5
REMARK    6  A    between atoms: C_9  and  C_10
REMARK    7  A    between atoms: C_20  and  O_21
REMARK    8  A    between atoms: O_21  and  C_22
REMARK                            x       y       z     vdW  Elec       q    Type
REMARK                         _______ _______ _______ _____ _____    ______ ____
ROOT
ATOM      1  C   UNL     1      45.956   4.307  12.952  0.00  0.00    +0.000 C 
ATOM      2  N   UNL     1      45.242   5.549  12.658  0.00  0.00    +0.000 N 
ENDROOT
BRANCH   2   3
ATOM      3  C   UNL     1      45.973   6.740  12.569  0.00  0.00    +0.000 A 
ATOM      4  C   UNL     1      45.352   7.998  12.512  0.00  0.00    +0.000 A 
ATOM      5  C   UNL     1      46.090   9.184  12.414  0.00  0.00    +0.000 A 
ATOM      6  C   UNL     1      47.478   9.141  12.361  0.00  0.00    +0.000 A 
ATOM      7  F   UNL     1      48.150  10.297  12.293  0.00  0.00    +0.000 F 
ATOM      8  C   UNL     1      48.136   7.916  12.403  0.00  0.00    +0.000 A 
ATOM      9  C   UNL     1      47.382   6.747  12.529  0.00  0.00    +0.000 A 
BRANCH   8  10
ATOM     10  O   UNL     1      49.497   7.724  12.365  0.00  0.00    +0.000 OA
BRANCH  10  11
ATOM     11  C   UNL     1      50.253   8.241  11.245  0.00  0.00    +0.000 C 
ATOM     12  C   UNL     1      51.425   7.401  10.700  0.00  0.00    +0.000 C 
ATOM     13  N   UNL     1      52.326   8.560  10.801  0.00  0.00    +0.000 NA
ATOM     14  C   UNL     1      51.336   9.279  11.616  0.00  0.00    +0.000 C 
ATOM     15  H   UNL     1      52.526   9.008   9.906  0.00  0.00    +0.000 HD
ENDBRANCH  10  11
ENDBRANCH   8  10
ENDBRANCH   2   3
BRANCH   2  16
ATOM     16  C   UNL     1      43.810   5.544  12.279  0.00  0.00    +0.000 C 
BRANCH  16  17
ATOM     17  C   UNL     1      43.517   5.120  10.834  0.00  0.00    +0.000 C 
BRANCH  17  18
ATOM     18  N   UNL     1      43.627   3.666  10.639  0.00  0.00    +0.000 N 
ATOM     19  C   UNL     1      44.554   3.360   9.622  0.00  0.00    +0.000 A 
ATOM     20  C   UNL     1      44.802   2.028   9.308  0.00  0.00    +0.000 A 
ATOM     21  C   UNL     1      45.729   1.725   8.306  0.00  0.00    +0.000 A 
ATOM     22  C   UNL     1      46.390   2.755   7.634  0.00  0.00    +0.000 A 
ATOM     23  C   UNL     1      46.087   4.047   8.015  0.00  0.00    +0.000 A 
ATOM     24  N   UNL     1      45.200   4.362   8.987  0.00  0.00    +0.000 NA
ATOM     25  H   UNL     1      42.737   3.236  10.402  0.00  0.00    +0.000 HD
BRANCH  22  26
ATOM     26  C   UNL     1      47.362   2.435   6.567  0.00  0.00    +0.000 C 
ATOM     27  N   UNL     1      47.293   3.105   5.376  0.00  0.00    +0.000 N 
ATOM     28  O   UNL     1      48.227   1.581   6.736  0.00  0.00    +0.000 OA
ATOM     29  H   UNL     1      46.636   3.829   5.130  0.00  0.00    +0.000 HD
ATOM     30  H   UNL     1      47.983   2.853   4.677  0.00  0.00    +0.000 HD
ENDBRANCH  22  26
ENDBRANCH  17  18
ENDBRANCH  16  17
ENDBRANCH   2  16
TORSDOF 7
ENDMDL
MODEL 6
REMARK VINA RESULT:    -6.946      2.619      4.281
REMARK INTER + INTRA:         -10.765
REMARK INTER:                 -10.065
REMARK INTRA:                  -0.700
REMARK UNBOUND:                -0.976
REMARK  Name = 
REMARK  8 active torsions:
REMARK  status: ('A' for Active; 'I' for Inactive)
REMARK    1  A    between atoms: C_1  and  N_2
REMARK    2  A    between atoms: N_2  and  C_3
REMARK    3  A    between atoms: N_2  and  C_15
REMARK    4  A    between atoms: C_3  and  C_4
REMARK    5  A    between atoms: C_4  and  N_5
REMARK    6  A    between atoms: C_9  and  C_10
REMARK    7  A    between atoms: C_20  and  O_21
REMARK    8  A    between atoms: O_21  and  C_22
REMARK                            x       y       z     vdW  Elec       q    Type
REMARK                         _______ _______ _______ _____ _____    ______ ____
ROOT
ATOM      1  C   UNL     1      44.580   8.574  11.445  0.00  0.00    +0.000 C 
ATOM      2  N   UNL     1      45.221   7.328  11.866  0.00  0.00    +0.000 N 
ENDROOT
BRANCH   2   3
ATOM      3  C   UNL     1      46.547   7.372  12.313  0.00  0.00    +0.000 A 
ATOM      4  C   UNL     1      47.516   8.185  11.704  0.00  0.00    +0.000 A 
ATOM      5  C   UNL     1      48.843   8.215  12.151  0.00  0.00    +0.000 A 
ATOM      6  C   UNL     1      49.239   7.422  13.222  0.00  0.00    +0.000 A 
ATOM      7  F   UNL     1      50.509   7.498  13.637  0.00  0.00    +0.000 F 
ATOM      8  C   UNL     1      48.314   6.593  13.849  0.00  0.00    +0.000 A 
ATOM      9  C   UNL     1      46.990   6.598  13.405  0.00  0.00    +0.000 A 
BRANCH   8  10
ATOM     10  O   UNL     1      48.562   5.763  14.916  0.00  0.00    +0.000 OA
BRANCH  10  11
ATOM     11  C   UNL     1      48.821   6.342  16.217  0.00  0.00    +0.000 C 
ATOM     12  C   UNL     1      50.236   6.203  16.815  0.00  0.00    +0.000 C 
ATOM     13  N   UNL     1      49.674   5.663  18.063  0.00  0.00    +0.000 NA
ATOM     14  C   UNL     1      48.368   5.476  17.415  0.00  0.00    +0.000 C 
ATOM     15  H   UNL     1      49.659   6.332  18.834  0.00  0.00    +0.000 HD
ENDBRANCH  10  11
ENDBRANCH   8  10
ENDBRANCH   2   3
BRANCH   2  16
ATOM     16  C   UNL     1      44.449   6.071  11.998  0.00  0.00    +0.000 C 
BRANCH  16  17
ATOM     17  C   UNL     1      43.796   5.564  10.707  0.00  0.00    +0.000 C 
BRANCH  17  18
ATOM     18  N   UNL     1      43.820   4.097  10.599  0.00  0.00    +0.000 N 
ATOM     19  C   UNL     1      44.712   3.677   9.592  0.00  0.00    +0.000 A 
ATOM     20  C   UNL     1      44.878   2.316   9.357  0.00  0.00    +0.000 A 
ATOM     21  C   UNL     1      45.771   1.899   8.365  0.00  0.00    +0.000 A 
ATOM     22  C   UNL     1      46.479   2.846   7.624  0.00  0.00    +0.000 A 
ATOM     23  C   UNL     1      46.258   4.175   7.929  0.00  0.00    +0.000 A 
ATOM     24  N   UNL     1      45.405   4.599   8.889  0.00  0.00    +0.000 NA
ATOM     25  H   UNL     1      42.903   3.706  10.399  0.00  0.00    +0.000 HD
BRANCH  22  26
ATOM     26  C   UNL     1      47.415   2.407   6.567  0.00  0.00    +0.000 C 
ATOM     27  N   UNL     1      47.447   3.082   5.378  0.00  0.00    +0.000 N 
ATOM     28  O   UNL     1      48.161   1.447   6.742  0.00  0.00    +0.000 OA
ATOM     29  H   UNL     1      46.892   3.886   5.127  0.00  0.00    +0.000 HD
ATOM     30  H   UNL     1      48.107   2.745   4.685  0.00  0.00    +0.000 HD
ENDBRANCH  22  26
ENDBRANCH  17  18
ENDBRANCH  16  17
ENDBRANCH   2  16
TORSDOF 7
ENDMDL
MODEL 7
REMARK VINA RESULT:    -6.697      2.594      3.256
REMARK INTER + INTRA:         -10.414
REMARK INTER:                  -9.591
REMARK INTRA:                  -0.824
REMARK UNBOUND:                -0.976
REMARK  Name = 
REMARK  8 active torsions:
REMARK  status: ('A' for Active; 'I' for Inactive)
REMARK    1  A    between atoms: C_1  and  N_2
REMARK    2  A    between atoms: N_2  and  C_3
REMARK    3  A    between atoms: N_2  and  C_15
REMARK    4  A    between atoms: C_3  and  C_4
REMARK    5  A    between atoms: C_4  and  N_5
REMARK    6  A    between atoms: C_9  and  C_10
REMARK    7  A    between atoms: C_20  and  O_21
REMARK    8  A    between atoms: O_21  and  C_22
REMARK                            x       y       z     vdW  Elec       q    Type
REMARK                         _______ _______ _______ _____ _____    ______ ____
ROOT
ATOM      1  C   UNL     1      45.535   6.956  11.041  0.00  0.00    +0.000 C 
ATOM      2  N   UNL     1      45.225   5.972  12.078  0.00  0.00    +0.000 N 
ENDROOT
BRANCH   2   3
ATOM      3  C   UNL     1      46.144   5.780  13.117  0.00  0.00    +0.000 A 
ATOM      4  C   UNL     1      46.083   4.669  13.973  0.00  0.00    +0.000 A 
ATOM      5  C   UNL     1      47.000   4.488  15.017  0.00  0.00    +0.000 A 
ATOM      6  C   UNL     1      48.003   5.426  15.237  0.00  0.00    +0.000 A 
ATOM      7  F   UNL     1      48.876   5.206  16.227  0.00  0.00    +0.000 F 
ATOM      8  C   UNL     1      48.093   6.548  14.420  0.00  0.00    +0.000 A 
ATOM      9  C   UNL     1      47.186   6.695  13.368  0.00  0.00    +0.000 A 
BRANCH   8  10
ATOM     10  O   UNL     1      49.031   7.548  14.518  0.00  0.00    +0.000 OA
BRANCH  10  11
ATOM     11  C   UNL     1      49.049   8.600  13.524  0.00  0.00    +0.000 C 
ATOM     12  C   UNL     1      50.367   8.881  12.775  0.00  0.00    +0.000 C 
ATOM     13  N   UNL     1      50.275  10.310  13.113  0.00  0.00    +0.000 NA
ATOM     14  C   UNL     1      49.216  10.027  14.093  0.00  0.00    +0.000 C 
ATOM     15  H   UNL     1      49.971  10.900  12.338  0.00  0.00    +0.000 HD
ENDBRANCH  10  11
ENDBRANCH   8  10
ENDBRANCH   2   3
BRANCH   2  16
ATOM     16  C   UNL     1      43.899   5.317  12.148  0.00  0.00    +0.000 C 
BRANCH  16  17
ATOM     17  C   UNL     1      43.396   4.714  10.831  0.00  0.00    +0.000 C 
BRANCH  17  18
ATOM     18  N   UNL     1      43.779   3.303  10.673  0.00  0.00    +0.000 N 
ATOM     19  C   UNL     1      44.656   3.135   9.582  0.00  0.00    +0.000 A 
ATOM     20  C   UNL     1      45.138   1.864   9.289  0.00  0.00    +0.000 A 
ATOM     21  C   UNL     1      46.018   1.699   8.214  0.00  0.00    +0.000 A 
ATOM     22  C   UNL     1      46.397   2.804   7.449  0.00  0.00    +0.000 A 
ATOM     23  C   UNL     1      45.875   4.029   7.816  0.00  0.00    +0.000 A 
ATOM     24  N   UNL     1      45.030   4.211   8.856  0.00  0.00    +0.000 NA
ATOM     25  H   UNL     1      42.976   2.694  10.535  0.00  0.00    +0.000 HD
BRANCH  22  26
ATOM     26  C   UNL     1      47.317   2.629   6.306  0.00  0.00    +0.000 C 
ATOM     27  N   UNL     1      48.525   2.018   6.505  0.00  0.00    +0.000 N 
ATOM     28  O   UNL     1      47.012   3.023   5.183  0.00  0.00    +0.000 OA
ATOM     29  H   UNL     1      48.875   1.648   7.375  0.00  0.00    +0.000 HD
ATOM     30  H   UNL     1      49.120   1.919   5.689  0.00  0.00    +0.000 HD
ENDBRANCH  22  26
ENDBRANCH  17  18
ENDBRANCH  16  17
ENDBRANCH   2  16
TORSDOF 7
ENDMDL
MODEL 8
REMARK VINA RESULT:    -6.432      3.364      4.979
REMARK INTER + INTRA:         -10.039
REMARK INTER:                  -9.192
REMARK INTRA:                  -0.848
REMARK UNBOUND:                -0.976
REMARK  Name = 
REMARK  8 active torsions:
REMARK  status: ('A' for Active; 'I' for Inactive)
REMARK    1  A    between atoms: C_1  and  N_2
REMARK    2  A    between atoms: N_2  and  C_3
REMARK    3  A    between atoms: N_2  and  C_15
REMARK    4  A    between atoms: C_3  and  C_4
REMARK    5  A    between atoms: C_4  and  N_5
REMARK    6  A    between atoms: C_9  and  C_10
REMARK    7  A    between atoms: C_20  and  O_21
REMARK    8  A    between atoms: O_21  and  C_22
REMARK                            x       y       z     vdW  Elec       q    Type
REMARK                         _______ _______ _______ _____ _____    ______ ____
ROOT
ATOM      1  C   UNL     1      46.931   7.473  11.969  0.00  0.00    +0.000 C 
ATOM      2  N   UNL     1      46.045   6.429  12.484  0.00  0.00    +0.000 N 
ENDROOT
BRANCH   2   3
ATOM      3  C   UNL     1      46.567   5.483  13.373  0.00  0.00    +0.000 A 
ATOM      4  C   UNL     1      46.472   4.102  13.138  0.00  0.00    +0.000 A 
ATOM      5  C   UNL     1      46.988   3.161  14.038  0.00  0.00    +0.000 A 
ATOM      6  C   UNL     1      47.611   3.581  15.208  0.00  0.00    +0.000 A 
ATOM      7  F   UNL     1      48.115   2.653  16.031  0.00  0.00    +0.000 F 
ATOM      8  C   UNL     1      47.718   4.939  15.487  0.00  0.00    +0.000 A 
ATOM      9  C   UNL     1      47.220   5.862  14.563  0.00  0.00    +0.000 A 
BRANCH   8  10
ATOM     10  O   UNL     1      48.309   5.495  16.597  0.00  0.00    +0.000 OA
BRANCH  10  11
ATOM     11  C   UNL     1      47.713   5.280  17.898  0.00  0.00    +0.000 C 
ATOM     12  C   UNL     1      47.861   6.383  18.965  0.00  0.00    +0.000 C 
ATOM     13  N   UNL     1      48.374   5.401  19.934  0.00  0.00    +0.000 NA
ATOM     14  C   UNL     1      48.555   4.413  18.861  0.00  0.00    +0.000 C 
ATOM     15  H   UNL     1      47.693   5.122  20.641  0.00  0.00    +0.000 HD
ENDBRANCH  10  11
ENDBRANCH   8  10
ENDBRANCH   2   3
BRANCH   2  16
ATOM     16  C   UNL     1      44.586   6.462  12.228  0.00  0.00    +0.000 C 
BRANCH  16  17
ATOM     17  C   UNL     1      44.151   5.955  10.848  0.00  0.00    +0.000 C 
BRANCH  17  18
ATOM     18  N   UNL     1      44.016   4.491  10.800  0.00  0.00    +0.000 N 
ATOM     19  C   UNL     1      44.770   3.947   9.741  0.00  0.00    +0.000 A 
ATOM     20  C   UNL     1      44.776   2.569   9.550  0.00  0.00    +0.000 A 
ATOM     21  C   UNL     1      45.534   2.029   8.506  0.00  0.00    +0.000 A 
ATOM     22  C   UNL     1      46.268   2.871   7.670  0.00  0.00    +0.000 A 
ATOM     23  C   UNL     1      46.210   4.225   7.937  0.00  0.00    +0.000 A 
ATOM     24  N   UNL     1      45.490   4.768   8.946  0.00  0.00    +0.000 NA
ATOM     25  H   UNL     1      43.051   4.192  10.692  0.00  0.00    +0.000 HD
BRANCH  22  26
ATOM     26  C   UNL     1      47.060   2.302   6.559  0.00  0.00    +0.000 C 
ATOM     27  N   UNL     1      47.318   3.071   5.458  0.00  0.00    +0.000 N 
ATOM     28  O   UNL     1      47.488   1.152   6.612  0.00  0.00    +0.000 OA
ATOM     29  H   UNL     1      47.029   4.026   5.309  0.00  0.00    +0.000 HD
ATOM     30  H   UNL     1      47.867   2.638   4.723  0.00  0.00    +0.000 HD
ENDBRANCH  22  26
ENDBRANCH  17  18
ENDBRANCH  16  17
ENDBRANCH   2  16
TORSDOF 7
ENDMDL
MODEL 9
REMARK VINA RESULT:    -6.306      4.206      6.672
REMARK INTER + INTRA:          -9.862
REMARK INTER:                  -9.021
REMARK INTRA:                  -0.842
REMARK UNBOUND:                -0.976
REMARK  Name = 
REMARK  8 active torsions:
REMARK  status: ('A' for Active; 'I' for Inactive)
REMARK    1  A    between atoms: C_1  and  N_2
REMARK    2  A    between atoms: N_2  and  C_3
REMARK    3  A    between atoms: N_2  and  C_15
REMARK    4  A    between atoms: C_3  and  C_4
REMARK    5  A    between atoms: C_4  and  N_5
REMARK    6  A    between atoms: C_9  and  C_10
REMARK    7  A    between atoms: C_20  and  O_21
REMARK    8  A    between atoms: O_21  and  C_22
REMARK                            x       y       z     vdW  Elec       q    Type
REMARK                         _______ _______ _______ _____ _____    ______ ____
ROOT
ATOM      1  C   UNL     1      49.230   9.773  15.108  0.00  0.00    +0.000 C 
ATOM      2  N   UNL     1      49.655   8.491  14.546  0.00  0.00    +0.000 N 
ENDROOT
BRANCH   2   3
ATOM      3  C   UNL     1      50.380   7.608  15.355  0.00  0.00    +0.000 A 
ATOM      4  C   UNL     1      51.778   7.671  15.466  0.00  0.00    +0.000 A 
ATOM      5  C   UNL     1      52.497   6.778  16.270  0.00  0.00    +0.000 A 
ATOM      6  C   UNL     1      51.832   5.788  16.984  0.00  0.00    +0.000 A 
ATOM      7  F   UNL     1      52.550   4.970  17.762  0.00  0.00    +0.000 F 
ATOM      8  C   UNL     1      50.448   5.682  16.896  0.00  0.00    +0.000 A 
ATOM      9  C   UNL     1      49.747   6.600  16.109  0.00  0.00    +0.000 A 
BRANCH   8  10
ATOM     10  O   UNL     1      49.662   4.760  17.546  0.00  0.00    +0.000 OA
BRANCH  10  11
ATOM     11  C   UNL     1      48.400   4.366  16.958  0.00  0.00    +0.000 C 
ATOM     12  C   UNL     1      47.113   4.551  17.787  0.00  0.00    +0.000 C 
ATOM     13  N   UNL     1      46.737   3.149  17.549  0.00  0.00    +0.000 NA
ATOM     14  C   UNL     1      48.086   2.856  17.045  0.00  0.00    +0.000 C 
ATOM     15  H   UNL     1      46.001   3.029  16.852  0.00  0.00    +0.000 HD
ENDBRANCH  10  11
ENDBRANCH   8  10
ENDBRANCH   2   3
BRANCH   2  16
ATOM     16  C   UNL     1      49.183   8.038  13.216  0.00  0.00    +0.000 C 
BRANCH  16  17
ATOM     17  C   UNL     1      47.688   8.245  12.946  0.00  0.00    +0.000 C 
BRANCH  17  18
ATOM     18  N   UNL     1      46.846   7.269  13.656  0.00  0.00    +0.000 N 
ATOM     19  C   UNL     1      46.175   6.423  12.750  0.00  0.00    +0.000 A 
ATOM     20  C   UNL     1      45.343   5.424  13.243  0.00  0.00    +0.000 A 
ATOM     21  C   UNL     1      44.687   4.578  12.343  0.00  0.00    +0.000 A 
ATOM     22  C   UNL     1      44.870   4.746  10.970  0.00  0.00    +0.000 A 
ATOM     23  C   UNL     1      45.719   5.758  10.570  0.00  0.00    +0.000 A 
ATOM     24  N   UNL     1      46.370   6.582  11.422  0.00  0.00    +0.000 NA
ATOM     25  H   UNL     1      46.153   7.714  14.252  0.00  0.00    +0.000 HD
BRANCH  22  26
ATOM     26  C   UNL     1      44.167   3.859  10.018  0.00  0.00    +0.000 C 
ATOM     27  N   UNL     1      44.040   4.245   8.712  0.00  0.00    +0.000 N 
ATOM     28  O   UNL     1      43.698   2.785  10.383  0.00  0.00    +0.000 OA
ATOM     29  H   UNL     1      44.392   5.095   8.299  0.00  0.00    +0.000 HD
ATOM     30  H   UNL     1      43.553   3.603   8.097  0.00  0.00    +0.000 HD
ENDBRANCH  22  26
ENDBRANCH  17  18
ENDBRANCH  16  17
ENDBRANCH   2  16
TORSDOF 7
ENDMDL
