MODEL 1
REMARK VINA RESULT:    -8.742      0.000      0.000
REMARK INTER + INTRA:         -11.811
REMARK INTER:                 -11.297
REMARK INTRA:                  -0.514
REMARK UNBOUND:                -0.514
REMARK  Name = 
REMARK  6 active torsions:
REMARK  status: ('A' for Active; 'I' for Inactive)
REMARK    1  A    between atoms: C_1  and  C_2
REMARK    2  A    between atoms: C_5  and  C_6
REMARK    3  A    between atoms: C_6  and  C_7
REMARK    4  A    between atoms: C_7  and  N_8
REMARK    5  A    between atoms: C_12  and  C_13
REMARK    6  A    between atoms: C_19  and  C_20
REMARK                            x       y       z     vdW  Elec       q    Type
REMARK                         _______ _______ _______ _____ _____    ______ ____
ROOT
ATOM      1  C   UNL     1      43.230   5.091  12.356  0.00  0.00    +0.000 C 
ENDROOT
BRANCH   1   6
ATOM      2  C   UNL     1      48.584   6.591  14.144  0.00  0.00    +0.000 C 
ATOM      3  C   UNL     1      47.230   6.265  13.565  0.00  0.00    +0.000 A 
ATOM      4  C   UNL     1      46.701   5.001  13.902  0.00  0.00    +0.000 A 
ATOM      5  C   UNL     1      45.423   4.612  13.506  0.00  0.00    +0.000 A 
ATOM      6  C   UNL     1      44.637   5.477  12.753  0.00  0.00    +0.000 A 
ATOM      7  C   UNL     1      45.185   6.709  12.355  0.00  0.00    +0.000 A 
ATOM      8  C   UNL     1      46.481   7.148  12.741  0.00  0.00    +0.000 A 
BRANCH   8   9
ATOM      9  C   UNL     1      46.952   8.497  12.286  0.00  0.00    +0.000 A 
ATOM     10  C   UNL     1      46.087   9.613  12.277  0.00  0.00    +0.000 A 
ATOM     11  C   UNL     1      46.505  10.877  11.840  0.00  0.00    +0.000 A 
ATOM     12  C   UNL     1      47.819  11.078  11.438  0.00  0.00    +0.000 A 
ATOM     13  C   UNL     1      48.699  10.005  11.432  0.00  0.00    +0.000 A 
ATOM     14  C   UNL     1      48.257   8.731  11.815  0.00  0.00    +0.000 A 
ENDBRANCH   8   9
ENDBRANCH   1   6
BRANCH   1  15
ATOM     15  C   UNL     1      43.199   4.308  11.044  0.00  0.00    +0.000 C 
BRANCH  15  16
ATOM     16  N   UNL     1      43.984   4.989  10.004  0.00  0.00    +0.000 N 
ATOM     17  C   UNL     1      44.799   4.103   9.273  0.00  0.00    +0.000 A 
ATOM     18  C   UNL     1      45.605   4.603   8.256  0.00  0.00    +0.000 A 
ATOM     19  C   UNL     1      46.413   3.727   7.524  0.00  0.00    +0.000 A 
ATOM     20  C   UNL     1      46.402   2.363   7.822  0.00  0.00    +0.000 A 
ATOM     21  C   UNL     1      45.562   1.953   8.839  0.00  0.00    +0.000 A 
ATOM     22  N   UNL     1      44.770   2.782   9.557  0.00  0.00    +0.000 NA
ATOM     23  H   UNL     1      44.570   5.727  10.384  0.00  0.00    +0.000 HD
BRANCH  20  24
ATOM     24  C   UNL     1      47.276   1.433   7.067  0.00  0.00    +0.000 C 
ATOM     25  N   UNL     1      48.405   1.920   6.468  0.00  0.00    +0.000 N 
ATOM     26  O   UNL     1      47.003   0.241   6.983  0.00  0.00    +0.000 OA
ATOM     27  H   UNL     1      48.721   2.875   6.473  0.00  0.00    +0.000 HD
ATOM     28  H   UNL     1      48.967   1.249   5.958  0.00  0.00    +0.000 HD
ENDBRANCH  20  24
ENDBRANCH  15  16
ENDBRANCH   1  15
TORSDOF 5
ENDMDL
MODEL 2
REMARK VINA RESULT:    -8.713      1.862      3.903
REMARK INTER + INTRA:         -11.774
REMARK INTER:                 -11.055
REMARK INTRA:                  -0.719
REMARK UNBOUND:                -0.514
REMARK  Name = 
REMARK  6 active torsions:
REMARK  status: ('A' for Active; 'I' for Inactive)
REMARK    1  A    between atoms: C_1  and  C_2
REMARK    2  A    between atoms: C_5  and  C_6
REMARK    3  A    between atoms: C_6  and  C_7
REMARK    4  A    between atoms: C_7  and  N_8
REMARK    5  A    between atoms: C_12  and  C_13
REMARK    6  A    between atoms: C_19  and  C_20
REMARK                            x       y       z     vdW  Elec       q    Type
REMARK                         _______ _______ _______ _____ _____    ______ ____
ROOT
ATOM      1  C   UNL     1      43.606   5.234  12.016  0.00  0.00    +0.000 C 
ENDROOT
BRANCH   1   6
ATOM      2  C   UNL     1      49.136   6.839  12.996  0.00  0.00    +0.000 C 
ATOM      3  C   UNL     1      47.687   6.434  12.876  0.00  0.00    +0.000 A 
ATOM      4  C   UNL     1      47.000   6.922  11.744  0.00  0.00    +0.000 A 
ATOM      5  C   UNL     1      45.686   6.551  11.468  0.00  0.00    +0.000 A 
ATOM      6  C   UNL     1      45.016   5.685  12.325  0.00  0.00    +0.000 A 
ATOM      7  C   UNL     1      45.671   5.252  13.491  0.00  0.00    +0.000 A 
ATOM      8  C   UNL     1      47.012   5.600  13.808  0.00  0.00    +0.000 A 
BRANCH   8   9
ATOM      9  C   UNL     1      47.622   5.054  15.064  0.00  0.00    +0.000 A 
ATOM     10  C   UNL     1      47.369   3.732  15.489  0.00  0.00    +0.000 A 
ATOM     11  C   UNL     1      47.919   3.209  16.668  0.00  0.00    +0.000 A 
ATOM     12  C   UNL     1      48.777   3.980  17.440  0.00  0.00    +0.000 A 
ATOM     13  C   UNL     1      49.050   5.285  17.055  0.00  0.00    +0.000 A 
ATOM     14  C   UNL     1      48.450   5.818  15.906  0.00  0.00    +0.000 A 
ENDBRANCH   8   9
ENDBRANCH   1   6
BRANCH   1  15
ATOM     15  C   UNL     1      43.456   4.776  10.565  0.00  0.00    +0.000 C 
BRANCH  15  16
ATOM     16  N   UNL     1      43.794   3.353  10.423  0.00  0.00    +0.000 N 
ATOM     17  C   UNL     1      44.736   3.118   9.403  0.00  0.00    +0.000 A 
ATOM     18  C   UNL     1      45.151   1.815   9.147  0.00  0.00    +0.000 A 
ATOM     19  C   UNL     1      46.090   1.578   8.138  0.00  0.00    +0.000 A 
ATOM     20  C   UNL     1      46.599   2.648   7.401  0.00  0.00    +0.000 A 
ATOM     21  C   UNL     1      46.141   3.908   7.731  0.00  0.00    +0.000 A 
ATOM     22  N   UNL     1      45.236   4.161   8.705  0.00  0.00    +0.000 NA
ATOM     23  H   UNL     1      42.975   2.777  10.244  0.00  0.00    +0.000 HD
BRANCH  20  24
ATOM     24  C   UNL     1      47.575   2.399   6.312  0.00  0.00    +0.000 C 
ATOM     25  N   UNL     1      47.470   3.107   5.149  0.00  0.00    +0.000 N 
ATOM     26  O   UNL     1      48.474   1.576   6.450  0.00  0.00    +0.000 OA
ATOM     27  H   UNL     1      46.775   3.801   4.931  0.00  0.00    +0.000 HD
ATOM     28  H   UNL     1      48.155   2.899   4.432  0.00  0.00    +0.000 HD
ENDBRANCH  20  24
ENDBRANCH  15  16
ENDBRANCH   1  15
TORSDOF 5
ENDMDL
MODEL 3
REMARK VINA RESULT:    -7.905      2.502      3.659
REMARK INTER + INTRA:         -10.730
REMARK INTER:                  -9.899
REMARK INTRA:                  -0.831
REMARK UNBOUND:                -0.514
REMARK  Name = 
REMARK  6 active torsions:
REMARK  status: ('A' for Active; 'I' for Inactive)
REMARK    1  A    between atoms: C_1  and  C_2
REMARK    2  A    between atoms: C_5  and  C_6
REMARK    3  A    between atoms: C_6  and  C_7
REMARK    4  A    between atoms: C_7  and  N_8
REMARK    5  A    between atoms: C_12  and  C_13
REMARK    6  A    between atoms: C_19  and  C_20
REMARK                            x       y       z     vdW  Elec       q    Type
REMARK                         _______ _______ _______ _____ _____    ______ ____
ROOT
ATOM      1  C   UNL     1      44.431   5.608  12.064  0.00  0.00    +0.000 C 
ENDROOT
BRANCH   1   6
ATOM      2  C   UNL     1      46.096  11.202  11.858  0.00  0.00    +0.000 C 
ATOM      3  C   UNL     1      45.616   9.773  11.787  0.00  0.00    +0.000 A 
ATOM      4  C   UNL     1      46.456   8.808  12.380  0.00  0.00    +0.000 A 
ATOM      5  C   UNL     1      46.089   7.466  12.461  0.00  0.00    +0.000 A 
ATOM      6  C   UNL     1      44.868   7.050  11.941  0.00  0.00    +0.000 A 
ATOM      7  C   UNL     1      44.058   7.994  11.287  0.00  0.00    +0.000 A 
ATOM      8  C   UNL     1      44.391   9.372  11.187  0.00  0.00    +0.000 A 
BRANCH   8   9
ATOM      9  C   UNL     1      43.436  10.298  10.495  0.00  0.00    +0.000 A 
ATOM     10  C   UNL     1      43.641  10.698   9.157  0.00  0.00    +0.000 A 
ATOM     11  C   UNL     1      42.768  11.575   8.498  0.00  0.00    +0.000 A 
ATOM     12  C   UNL     1      41.633  12.047   9.144  0.00  0.00    +0.000 A 
ATOM     13  C   UNL     1      41.398  11.676  10.460  0.00  0.00    +0.000 A 
ATOM     14  C   UNL     1      42.307  10.845  11.130  0.00  0.00    +0.000 A 
ENDBRANCH   8   9
ENDBRANCH   1   6
BRANCH   1  15
ATOM     15  C   UNL     1      43.632   5.145  10.846  0.00  0.00    +0.000 C 
BRANCH  15  16
ATOM     16  N   UNL     1      43.759   3.694  10.650  0.00  0.00    +0.000 N 
ATOM     17  C   UNL     1      44.651   3.362   9.612  0.00  0.00    +0.000 A 
ATOM     18  C   UNL     1      44.872   2.023   9.306  0.00  0.00    +0.000 A 
ATOM     19  C   UNL     1      45.759   1.689   8.279  0.00  0.00    +0.000 A 
ATOM     20  C   UNL     1      46.413   2.700   7.573  0.00  0.00    +0.000 A 
ATOM     21  C   UNL     1      46.145   4.001   7.953  0.00  0.00    +0.000 A 
ATOM     22  N   UNL     1      45.293   4.347   8.945  0.00  0.00    +0.000 NA
ATOM     23  H   UNL     1      42.864   3.249  10.460  0.00  0.00    +0.000 HD
BRANCH  20  24
ATOM     24  C   UNL     1      47.337   2.352   6.466  0.00  0.00    +0.000 C 
ATOM     25  N   UNL     1      47.381   3.153   5.359  0.00  0.00    +0.000 N 
ATOM     26  O   UNL     1      48.062   1.366   6.538  0.00  0.00    +0.000 OA
ATOM     27  H   UNL     1      46.832   3.980   5.197  0.00  0.00    +0.000 HD
ATOM     28  H   UNL     1      48.021   2.872   4.627  0.00  0.00    +0.000 HD
ENDBRANCH  20  24
ENDBRANCH  15  16
ENDBRANCH   1  15
TORSDOF 5
ENDMDL
MODEL 4
REMARK VINA RESULT:    -7.761      3.786      7.477
REMARK INTER + INTRA:         -10.544
REMARK INTER:                  -9.869
REMARK INTRA:                  -0.675
REMARK UNBOUND:                -0.514
REMARK  Name = 
REMARK  6 active torsions:
REMARK  status: ('A' for Active; 'I' for Inactive)
REMARK    1  A    between atoms: C_1  and  C_2
REMARK    2  A    between atoms: C_5  and  C_6
REMARK    3  A    between atoms: C_6  and  C_7
REMARK    4  A    between atoms: C_7  and  N_8
REMARK    5  A    between atoms: C_12  and  C_13
REMARK    6  A    between atoms: C_19  and  C_20
REMARK                            x       y       z     vdW  Elec       q    Type
REMARK                         _______ _______ _______ _____ _____    ______ ____
ROOT
ATOM      1  C   UNL     1      47.342   8.043  12.177  0.00  0.00    +0.000 C 
ENDROOT
BRANCH   1   6
ATOM      2  C   UNL     1      42.888   4.334  11.457  0.00  0.00    +0.000 C 
ATOM      3  C   UNL     1      44.056   5.289  11.509  0.00  0.00    +0.000 A 
ATOM      4  C   UNL     1      43.960   6.333  12.453  0.00  0.00    +0.000 A 
ATOM      5  C   UNL     1      45.006   7.229  12.664  0.00  0.00    +0.000 A 
ATOM      6  C   UNL     1      46.179   7.110  11.928  0.00  0.00    +0.000 A 
ATOM      7  C   UNL     1      46.254   6.115  10.937  0.00  0.00    +0.000 A 
ATOM      8  C   UNL     1      45.214   5.177  10.693  0.00  0.00    +0.000 A 
BRANCH   8   9
ATOM      9  C   UNL     1      45.414   4.137   9.632  0.00  0.00    +0.000 A 
ATOM     10  C   UNL     1      45.859   4.483   8.338  0.00  0.00    +0.000 A 
ATOM     11  C   UNL     1      46.037   3.526   7.329  0.00  0.00    +0.000 A 
ATOM     12  C   UNL     1      45.817   2.182   7.595  0.00  0.00    +0.000 A 
ATOM     13  C   UNL     1      45.379   1.802   8.856  0.00  0.00    +0.000 A 
ATOM     14  C   UNL     1      45.147   2.771   9.841  0.00  0.00    +0.000 A 
ENDBRANCH   8   9
ENDBRANCH   1   6
BRANCH   1  15
ATOM     15  C   UNL     1      48.611   7.286  12.568  0.00  0.00    +0.000 C 
BRANCH  15  16
ATOM     16  N   UNL     1      49.020   7.613  13.942  0.00  0.00    +0.000 N 
ATOM     17  C   UNL     1      48.619   6.637  14.875  0.00  0.00    +0.000 A 
ATOM     18  C   UNL     1      48.931   6.812  16.219  0.00  0.00    +0.000 A 
ATOM     19  C   UNL     1      48.539   5.843  17.148  0.00  0.00    +0.000 A 
ATOM     20  C   UNL     1      47.840   4.714  16.717  0.00  0.00    +0.000 A 
ATOM     21  C   UNL     1      47.585   4.616  15.364  0.00  0.00    +0.000 A 
ATOM     22  N   UNL     1      47.958   5.539  14.447  0.00  0.00    +0.000 NA
ATOM     23  H   UNL     1      48.663   8.515  14.246  0.00  0.00    +0.000 HD
BRANCH  20  24
ATOM     24  C   UNL     1      47.400   3.697  17.702  0.00  0.00    +0.000 C 
ATOM     25  N   UNL     1      47.992   3.662  18.934  0.00  0.00    +0.000 N 
ATOM     26  O   UNL     1      46.510   2.899  17.428  0.00  0.00    +0.000 OA
ATOM     27  H   UNL     1      48.727   4.266  19.261  0.00  0.00    +0.000 HD
ATOM     28  H   UNL     1      47.663   2.947  19.571  0.00  0.00    +0.000 HD
ENDBRANCH  20  24
ENDBRANCH  15  16
ENDBRANCH   1  15
TORSDOF 5
ENDMDL
MODEL 5
REMARK VINA RESULT:    -7.559      1.582      2.843
REMARK INTER + INTRA:         -10.282
REMARK INTER:                  -9.362
REMARK INTRA:                  -0.920
REMARK UNBOUND:                -0.514
REMARK  Name = 
REMARK  6 active torsions:
REMARK  status: ('A' for Active; 'I' for Inactive)
REMARK    1  A    between atoms: C_1  and  C_2
REMARK    2  A    between atoms: C_5  and  C_6
REMARK    3  A    between atoms: C_6  and  C_7
REMARK    4  A    between atoms: C_7  and  N_8
REMARK    5  A    between atoms: C_12  and  C_13
REMARK    6  A    between atoms: C_19  and  C_20
REMARK                            x       y       z     vdW  Elec       q    Type
REMARK                         _______ _______ _______ _____ _____    ______ ____
ROOT
ATOM      1  C   UNL     1      44.471   5.518  12.204  0.00  0.00    +0.000 C 
ENDROOT
BRANCH   1   6
ATOM      2  C   UNL     1      46.868  10.809  11.599  0.00  0.00    +0.000 C 
ATOM      3  C   UNL     1      46.335   9.421  11.857  0.00  0.00    +0.000 A 
ATOM      4  C   UNL     1      44.942   9.256  11.707  0.00  0.00    +0.000 A 
ATOM      5  C   UNL     1      44.334   8.008  11.830  0.00  0.00    +0.000 A 
ATOM      6  C   UNL     1      45.106   6.887  12.115  0.00  0.00    +0.000 A 
ATOM      7  C   UNL     1      46.484   7.057  12.335  0.00  0.00    +0.000 A 
ATOM      8  C   UNL     1      47.145   8.309  12.214  0.00  0.00    +0.000 A 
BRANCH   8   9
ATOM      9  C   UNL     1      48.626   8.369  12.439  0.00  0.00    +0.000 A 
ATOM     10  C   UNL     1      49.165   8.739  13.690  0.00  0.00    +0.000 A 
ATOM     11  C   UNL     1      50.547   8.815  13.915  0.00  0.00    +0.000 A 
ATOM     12  C   UNL     1      51.437   8.480  12.904  0.00  0.00    +0.000 A 
ATOM     13  C   UNL     1      50.946   8.112  11.660  0.00  0.00    +0.000 A 
ATOM     14  C   UNL     1      49.564   8.094  11.427  0.00  0.00    +0.000 A 
ENDBRANCH   8   9
ENDBRANCH   1   6
BRANCH   1  15
ATOM     15  C   UNL     1      43.783   5.119  10.898  0.00  0.00    +0.000 C 
BRANCH  15  16
ATOM     16  N   UNL     1      43.966   3.686  10.621  0.00  0.00    +0.000 N 
ATOM     17  C   UNL     1      44.812   3.450   9.521  0.00  0.00    +0.000 A 
ATOM     18  C   UNL     1      45.076   2.140   9.135  0.00  0.00    +0.000 A 
ATOM     19  C   UNL     1      45.919   1.900   8.045  0.00  0.00    +0.000 A 
ATOM     20  C   UNL     1      46.486   2.975   7.359  0.00  0.00    +0.000 A 
ATOM     21  C   UNL     1      46.180   4.241   7.819  0.00  0.00    +0.000 A 
ATOM     22  N   UNL     1      45.370   4.496   8.872  0.00  0.00    +0.000 NA
ATOM     23  H   UNL     1      43.083   3.209  10.458  0.00  0.00    +0.000 HD
BRANCH  20  24
ATOM     24  C   UNL     1      47.360   2.727   6.187  0.00  0.00    +0.000 C 
ATOM     25  N   UNL     1      48.679   2.434   6.391  0.00  0.00    +0.000 N 
ATOM     26  O   UNL     1      46.912   2.772   5.046  0.00  0.00    +0.000 OA
ATOM     27  H   UNL     1      49.148   2.372   7.279  0.00  0.00    +0.000 HD
ATOM     28  H   UNL     1      49.239   2.278   5.561  0.00  0.00    +0.000 HD
ENDBRANCH  20  24
ENDBRANCH  15  16
ENDBRANCH   1  15
TORSDOF 5
ENDMDL
MODEL 6
REMARK VINA RESULT:    -7.109      4.217      7.913
REMARK INTER + INTRA:          -9.701
REMARK INTER:                  -8.948
REMARK INTRA:                  -0.754
REMARK UNBOUND:                -0.514
REMARK  Name = 
REMARK  6 active torsions:
REMARK  status: ('A' for Active; 'I' for Inactive)
REMARK    1  A    between atoms: C_1  and  C_2
REMARK    2  A    between atoms: C_5  and  C_6
REMARK    3  A    between atoms: C_6  and  C_7
REMARK    4  A    between atoms: C_7  and  N_8
REMARK    5  A    between atoms: C_12  and  C_13
REMARK    6  A    between atoms: C_19  and  C_20
REMARK                            x       y       z     vdW  Elec       q    Type
REMARK                         _______ _______ _______ _____ _____    ______ ____
ROOT
ATOM      1  C   UNL     1      48.360   8.050  12.141  0.00  0.00    +0.000 C 
ENDROOT
BRANCH   1   6
ATOM      2  C   UNL     1      42.906   6.081  11.445  0.00  0.00    +0.000 C 
ATOM      3  C   UNL     1      44.337   6.557  11.495  0.00  0.00    +0.000 A 
ATOM      4  C   UNL     1      44.577   7.716  12.264  0.00  0.00    +0.000 A 
ATOM      5  C   UNL     1      45.864   8.209  12.464  0.00  0.00    +0.000 A 
ATOM      6  C   UNL     1      46.952   7.558  11.894  0.00  0.00    +0.000 A 
ATOM      7  C   UNL     1      46.713   6.444  11.070  0.00  0.00    +0.000 A 
ATOM      8  C   UNL     1      45.418   5.904  10.843  0.00  0.00    +0.000 A 
BRANCH   8   9
ATOM      9  C   UNL     1      45.283   4.692   9.972  0.00  0.00    +0.000 A 
ATOM     10  C   UNL     1      44.762   3.480  10.474  0.00  0.00    +0.000 A 
ATOM     11  C   UNL     1      44.643   2.332   9.679  0.00  0.00    +0.000 A 
ATOM     12  C   UNL     1      45.001   2.371   8.338  0.00  0.00    +0.000 A 
ATOM     13  C   UNL     1      45.518   3.544   7.808  0.00  0.00    +0.000 A 
ATOM     14  C   UNL     1      45.689   4.671   8.625  0.00  0.00    +0.000 A 
ENDBRANCH   8   9
ENDBRANCH   1   6
BRANCH   1  15
ATOM     15  C   UNL     1      49.261   6.951  12.704  0.00  0.00    +0.000 C 
BRANCH  15  16
ATOM     16  N   UNL     1      49.955   7.407  13.918  0.00  0.00    +0.000 N 
ATOM     17  C   UNL     1      49.467   6.790  15.086  0.00  0.00    +0.000 A 
ATOM     18  C   UNL     1      50.024   7.125  16.316  0.00  0.00    +0.000 A 
ATOM     19  C   UNL     1      49.546   6.511  17.478  0.00  0.00    +0.000 A 
ATOM     20  C   UNL     1      48.518   5.571  17.391  0.00  0.00    +0.000 A 
ATOM     21  C   UNL     1      48.034   5.290  16.129  0.00  0.00    +0.000 A 
ATOM     22  N   UNL     1      48.483   5.869  14.992  0.00  0.00    +0.000 NA
ATOM     23  H   UNL     1      49.899   8.416  14.039  0.00  0.00    +0.000 HD
BRANCH  20  24
ATOM     24  C   UNL     1      47.990   4.937  18.623  0.00  0.00    +0.000 C 
ATOM     25  N   UNL     1      46.773   5.329  19.105  0.00  0.00    +0.000 N 
ATOM     26  O   UNL     1      48.626   4.063  19.203  0.00  0.00    +0.000 OA
ATOM     27  H   UNL     1      46.172   6.033  18.711  0.00  0.00    +0.000 HD
ATOM     28  H   UNL     1      46.457   4.873  19.952  0.00  0.00    +0.000 HD
ENDBRANCH  20  24
ENDBRANCH  15  16
ENDBRANCH   1  15
TORSDOF 5
ENDMDL
MODEL 7
REMARK VINA RESULT:    -7.075      5.026      6.733
REMARK INTER + INTRA:          -9.657
REMARK INTER:                  -8.823
REMARK INTRA:                  -0.833
REMARK UNBOUND:                -0.514
REMARK  Name = 
REMARK  6 active torsions:
REMARK  status: ('A' for Active; 'I' for Inactive)
REMARK    1  A    between atoms: C_1  and  C_2
REMARK    2  A    between atoms: C_5  and  C_6
REMARK    3  A    between atoms: C_6  and  C_7
REMARK    4  A    between atoms: C_7  and  N_8
REMARK    5  A    between atoms: C_12  and  C_13
REMARK    6  A    between atoms: C_19  and  C_20
REMARK                            x       y       z     vdW  Elec       q    Type
REMARK                         _______ _______ _______ _____ _____    ______ ____
ROOT
ATOM      1  C   UNL     1      47.189   4.086  17.317  0.00  0.00    +0.000 C 
ENDROOT
BRANCH   1   6
ATOM      2  C   UNL     1      50.702   7.826  20.107  0.00  0.00    +0.000 C 
ATOM      3  C   UNL     1      49.714   6.965  19.360  0.00  0.00    +0.000 A 
ATOM      4  C   UNL     1      50.265   5.932  18.572  0.00  0.00    +0.000 A 
ATOM      5  C   UNL     1      49.460   5.013  17.902  0.00  0.00    +0.000 A 
ATOM      6  C   UNL     1      48.076   5.105  17.997  0.00  0.00    +0.000 A 
ATOM      7  C   UNL     1      47.521   6.173  18.723  0.00  0.00    +0.000 A 
ATOM      8  C   UNL     1      48.303   7.129  19.426  0.00  0.00    +0.000 A 
BRANCH   8   9
ATOM      9  C   UNL     1      47.604   8.209  20.196  0.00  0.00    +0.000 A 
ATOM     10  C   UNL     1      47.156   9.389  19.564  0.00  0.00    +0.000 A 
ATOM     11  C   UNL     1      46.515  10.416  20.271  0.00  0.00    +0.000 A 
ATOM     12  C   UNL     1      46.260  10.276  21.628  0.00  0.00    +0.000 A 
ATOM     13  C   UNL     1      46.685   9.130  22.285  0.00  0.00    +0.000 A 
ATOM     14  C   UNL     1      47.378   8.134  21.582  0.00  0.00    +0.000 A 
ENDBRANCH   8   9
ENDBRANCH   1   6
BRANCH   1  15
ATOM     15  C   UNL     1      47.501   3.958  15.826  0.00  0.00    +0.000 C 
BRANCH  15  16
ATOM     16  N   UNL     1      47.035   5.139  15.085  0.00  0.00    +0.000 N 
ATOM     17  C   UNL     1      46.339   4.801  13.908  0.00  0.00    +0.000 A 
ATOM     18  C   UNL     1      45.840   5.815  13.098  0.00  0.00    +0.000 A 
ATOM     19  C   UNL     1      45.145   5.485  11.931  0.00  0.00    +0.000 A 
ATOM     20  C   UNL     1      44.959   4.143  11.592  0.00  0.00    +0.000 A 
ATOM     21  C   UNL     1      45.477   3.203  12.461  0.00  0.00    +0.000 A 
ATOM     22  N   UNL     1      46.149   3.500  13.596  0.00  0.00    +0.000 NA
ATOM     23  H   UNL     1      47.796   5.767  14.841  0.00  0.00    +0.000 HD
BRANCH  20  24
ATOM     24  C   UNL     1      44.245   3.788  10.342  0.00  0.00    +0.000 C 
ATOM     25  N   UNL     1      43.834   4.786   9.504  0.00  0.00    +0.000 N 
ATOM     26  O   UNL     1      44.030   2.616  10.052  0.00  0.00    +0.000 OA
ATOM     27  H   UNL     1      43.957   5.775   9.644  0.00  0.00    +0.000 HD
ATOM     28  H   UNL     1      43.345   4.496   8.665  0.00  0.00    +0.000 HD
ENDBRANCH  20  24
ENDBRANCH  15  16
ENDBRANCH   1  15
TORSDOF 5
ENDMDL
MODEL 8
REMARK VINA RESULT:    -6.968      4.612      7.423
REMARK INTER + INTRA:          -9.519
REMARK INTER:                  -8.503
REMARK INTRA:                  -1.017
REMARK UNBOUND:                -0.514
REMARK  Name = 
REMARK  6 active torsions:
REMARK  status: ('A' for Active; 'I' for Inactive)
REMARK    1  A    between atoms: C_1  and  C_2
REMARK    2  A    between atoms: C_5  and  C_6
REMARK    3  A    between atoms: C_6  and  C_7
REMARK    4  A    between atoms: C_7  and  N_8
REMARK    5  A    between atoms: C_12  and  C_13
REMARK    6  A    between atoms: C_19  and  C_20
REMARK                            x       y       z     vdW  Elec       q    Type
REMARK                         _______ _______ _______ _____ _____    ______ ____
ROOT
ATOM      1  C   UNL     1      48.978   7.914  15.789  0.00  0.00    +0.000 C 
ENDROOT
BRANCH   1   6
ATOM      2  C   UNL     1      48.996   4.389  20.445  0.00  0.00    +0.000 C 
ATOM      3  C   UNL     1      49.001   5.189  19.166  0.00  0.00    +0.000 A 
ATOM      4  C   UNL     1      48.160   6.322  19.141  0.00  0.00    +0.000 A 
ATOM      5  C   UNL     1      48.137   7.194  18.054  0.00  0.00    +0.000 A 
ATOM      6  C   UNL     1      48.953   6.952  16.955  0.00  0.00    +0.000 A 
ATOM      7  C   UNL     1      49.741   5.788  16.945  0.00  0.00    +0.000 A 
ATOM      8  C   UNL     1      49.799   4.876  18.032  0.00  0.00    +0.000 A 
BRANCH   8   9
ATOM      9  C   UNL     1      50.700   3.682  17.927  0.00  0.00    +0.000 A 
ATOM     10  C   UNL     1      52.039   3.730  18.370  0.00  0.00    +0.000 A 
ATOM     11  C   UNL     1      52.901   2.629  18.265  0.00  0.00    +0.000 A 
ATOM     12  C   UNL     1      52.436   1.426  17.751  0.00  0.00    +0.000 A 
ATOM     13  C   UNL     1      51.125   1.339  17.304  0.00  0.00    +0.000 A 
ATOM     14  C   UNL     1      50.288   2.462  17.359  0.00  0.00    +0.000 A 
ENDBRANCH   8   9
ENDBRANCH   1   6
BRANCH   1  15
ATOM     15  C   UNL     1      49.372   7.223  14.483  0.00  0.00    +0.000 C 
BRANCH  15  16
ATOM     16  N   UNL     1      48.440   7.569  13.400  0.00  0.00    +0.000 N 
ATOM     17  C   UNL     1      47.530   6.534  13.115  0.00  0.00    +0.000 A 
ATOM     18  C   UNL     1      46.587   6.714  12.108  0.00  0.00    +0.000 A 
ATOM     19  C   UNL     1      45.678   5.690  11.825  0.00  0.00    +0.000 A 
ATOM     20  C   UNL     1      45.726   4.501  12.554  0.00  0.00    +0.000 A 
ATOM     21  C   UNL     1      46.685   4.413  13.544  0.00  0.00    +0.000 A 
ATOM     22  N   UNL     1      47.572   5.392  13.837  0.00  0.00    +0.000 NA
ATOM     23  H   UNL     1      48.923   7.819  12.541  0.00  0.00    +0.000 HD
BRANCH  20  24
ATOM     24  C   UNL     1      44.781   3.402  12.240  0.00  0.00    +0.000 C 
ATOM     25  N   UNL     1      44.927   2.712  11.069  0.00  0.00    +0.000 N 
ATOM     26  O   UNL     1      43.883   3.102  13.020  0.00  0.00    +0.000 OA
ATOM     27  H   UNL     1      45.624   2.875  10.362  0.00  0.00    +0.000 HD
ATOM     28  H   UNL     1      44.255   1.975  10.895  0.00  0.00    +0.000 HD
ENDBRANCH  20  24
ENDBRANCH  15  16
ENDBRANCH   1  15
TORSDOF 5
ENDMDL
MODEL 9
REMARK VINA RESULT:    -6.919      4.078      7.535
REMARK INTER + INTRA:          -9.455
REMARK INTER:                  -8.320
REMARK INTRA:                  -1.135
REMARK UNBOUND:                -0.514
REMARK  Name = 
REMARK  6 active torsions:
REMARK  status: ('A' for Active; 'I' for Inactive)
REMARK    1  A    between atoms: C_1  and  C_2
REMARK    2  A    between atoms: C_5  and  C_6
REMARK    3  A    between atoms: C_6  and  C_7
REMARK    4  A    between atoms: C_7  and  N_8
REMARK    5  A    between atoms: C_12  and  C_13
REMARK    6  A    between atoms: C_19  and  C_20
REMARK                            x       y       z     vdW  Elec       q    Type
REMARK                         _______ _______ _______ _____ _____    ______ ____
ROOT
ATOM      1  C   UNL     1      48.490   9.172  13.366  0.00  0.00    +0.000 C 
ENDROOT
BRANCH   1   6
ATOM      2  C   UNL     1      43.228   8.898  10.848  0.00  0.00    +0.000 C 
ATOM      3  C   UNL     1      44.615   8.851  11.439  0.00  0.00    +0.000 A 
ATOM      4  C   UNL     1      45.293  10.086  11.528  0.00  0.00    +0.000 A 
ATOM      5  C   UNL     1      46.543  10.195  12.133  0.00  0.00    +0.000 A 
ATOM      6  C   UNL     1      47.156   9.065  12.662  0.00  0.00    +0.000 A 
ATOM      7  C   UNL     1      46.519   7.821  12.514  0.00  0.00    +0.000 A 
ATOM      8  C   UNL     1      45.242   7.666  11.910  0.00  0.00    +0.000 A 
BRANCH   8   9
ATOM      9  C   UNL     1      44.640   6.294  11.835  0.00  0.00    +0.000 A 
ATOM     10  C   UNL     1      43.866   5.773  12.893  0.00  0.00    +0.000 A 
ATOM     11  C   UNL     1      43.308   4.487  12.847  0.00  0.00    +0.000 A 
ATOM     12  C   UNL     1      43.471   3.696  11.719  0.00  0.00    +0.000 A 
ATOM     13  C   UNL     1      44.227   4.173  10.658  0.00  0.00    +0.000 A 
ATOM     14  C   UNL     1      44.829   5.436  10.736  0.00  0.00    +0.000 A 
ENDBRANCH   8   9
ENDBRANCH   1   6
BRANCH   1  15
ATOM     15  C   UNL     1      49.237   7.839  13.386  0.00  0.00    +0.000 C 
BRANCH  15  16
ATOM     16  N   UNL     1      49.932   7.641  14.666  0.00  0.00    +0.000 N 
ATOM     17  C   UNL     1      49.361   6.613  15.440  0.00  0.00    +0.000 A 
ATOM     18  C   UNL     1      49.909   6.311  16.682  0.00  0.00    +0.000 A 
ATOM     19  C   UNL     1      49.349   5.288  17.453  0.00  0.00    +0.000 A 
ATOM     20  C   UNL     1      48.248   4.580  16.967  0.00  0.00    +0.000 A 
ATOM     21  C   UNL     1      47.777   4.937  15.719  0.00  0.00    +0.000 A 
ATOM     22  N   UNL     1      48.306   5.921  14.956  0.00  0.00    +0.000 NA
ATOM     23  H   UNL     1      49.958   8.489  15.226  0.00  0.00    +0.000 HD
BRANCH  20  24
ATOM     24  C   UNL     1      47.634   3.511  17.791  0.00  0.00    +0.000 C 
ATOM     25  N   UNL     1      48.242   3.137  18.957  0.00  0.00    +0.000 N 
ATOM     26  O   UNL     1      46.589   2.971  17.444  0.00  0.00    +0.000 OA
ATOM     27  H   UNL     1      49.097   3.512  19.333  0.00  0.00    +0.000 HD
ATOM     28  H   UNL     1      47.790   2.399  19.483  0.00  0.00    +0.000 HD
ENDBRANCH  20  24
ENDBRANCH  15  16
ENDBRANCH   1  15
TORSDOF 5
ENDMDL
