MODEL 1
REMARK VINA RESULT:    -8.004      0.000      0.000
REMARK INTER + INTRA:         -11.750
REMARK INTER:                 -11.280
REMARK INTRA:                  -0.470
REMARK UNBOUND:                -0.470
REMARK  Name = 
REMARK  8 active torsions:
REMARK  status: ('A' for Active; 'I' for Inactive)
REMARK    1  A    between atoms: C_1  and  O_2
REMARK    2  A    between atoms: O_2  and  C_3
REMARK    3  A    between atoms: C_7  and  C_8
REMARK    4  A    between atoms: N_10  and  C_11
REMARK    5  A    between atoms: C_11  and  C_12
REMARK    6  A    between atoms: C_15  and  C_16
REMARK    7  A    between atoms: C_16  and  N_17
REMARK    8  A    between atoms: C_18  and  C_20
REMARK                            x       y       z     vdW  Elec       q    Type
REMARK                         _______ _______ _______ _____ _____    ______ ____
ROOT
ATOM      1  C   UNL     1      44.532   5.489  11.385  0.00  0.00    +0.000 A 
ATOM      2  C   UNL     1      44.359   6.880  11.365  0.00  0.00    +0.000 A 
ATOM      3  C   UNL     1      45.235   7.733  12.061  0.00  0.00    +0.000 A 
ATOM      4  C   UNL     1      46.299   7.219  12.814  0.00  0.00    +0.000 A 
ATOM      5  C   UNL     1      46.440   5.826  12.879  0.00  0.00    +0.000 A 
ATOM      6  C   UNL     1      45.579   4.973  12.162  0.00  0.00    +0.000 A 
ENDROOT
BRANCH   1   7
ATOM      7  C   UNL     1      43.636   4.573  10.568  0.00  0.00    +0.000 C 
BRANCH   7  10
ATOM      8  C   UNL     1      45.359   4.282   8.778  0.00  0.00    +0.000 C 
ATOM      9  O   UNL     1      45.647   5.474   8.728  0.00  0.00    +0.000 OA
ATOM     10  N   UNL     1      44.401   3.764   9.632  0.00  0.00    +0.000 N 
ATOM     11  H   UNL     1      44.123   2.800   9.533  0.00  0.00    +0.000 HD
BRANCH   8  16
ATOM     12  C   UNL     1      46.764   0.989   7.480  0.00  0.00    +0.000 A 
ATOM     13  C   UNL     1      47.173   1.345   6.193  0.00  0.00    +0.000 A 
ATOM     14  C   UNL     1      47.061   2.663   5.763  0.00  0.00    +0.000 A 
ATOM     15  C   UNL     1      46.514   3.633   6.605  0.00  0.00    +0.000 A 
ATOM     16  C   UNL     1      46.060   3.292   7.890  0.00  0.00    +0.000 A 
ATOM     17  C   UNL     1      46.211   1.962   8.325  0.00  0.00    +0.000 A 
BRANCH  12  19
ATOM     18  C   UNL     1      46.466  -1.334   7.108  0.00  0.00    +0.000 C 
ATOM     19  O   UNL     1      46.839  -0.280   7.994  0.00  0.00    +0.000 OA
ENDBRANCH  12  19
ENDBRANCH   8  16
ENDBRANCH   7  10
ENDBRANCH   1   7
BRANCH   4  20
ATOM     20  C   UNL     1      47.268   8.133  13.539  0.00  0.00    +0.000 C 
BRANCH  20  21
ATOM     21  N   UNL     1      47.662   7.608  14.824  0.00  0.00    +0.000 N 
ATOM     22  C   UNL     1      48.905   7.067  15.051  0.00  0.00    +0.000 C 
ATOM     23  O   UNL     1      49.770   7.003  14.182  0.00  0.00    +0.000 OA
ATOM     24  H   UNL     1      46.911   7.348  15.453  0.00  0.00    +0.000 HD
BRANCH  22  25
ATOM     25  C   UNL     1      49.167   6.625  16.431  0.00  0.00    +0.000 A 
ATOM     26  C   UNL     1      49.815   7.468  17.323  0.00  0.00    +0.000 A 
ATOM     27  S   UNL     1      50.015   6.795  18.880  0.00  0.00    +0.000 S 
ATOM     28  C   UNL     1      49.270   5.333  18.409  0.00  0.00    +0.000 A 
ATOM     29  N   UNL     1      49.150   4.302  19.276  0.00  0.00    +0.000 NA
ATOM     30  C   UNL     1      48.587   3.246  18.771  0.00  0.00    +0.000 A 
ATOM     31  N   UNL     1      48.132   3.146  17.488  0.00  0.00    +0.000 N 
ATOM     32  C   UNL     1      48.184   4.187  16.593  0.00  0.00    +0.000 A 
ATOM     33  O   UNL     1      47.683   4.098  15.479  0.00  0.00    +0.000 OA
ATOM     34  C   UNL     1      48.847   5.382  17.090  0.00  0.00    +0.000 A 
ATOM     35  H   UNL     1      47.678   2.302  17.163  0.00  0.00    +0.000 HD
ENDBRANCH  22  25
ENDBRANCH  20  21
ENDBRANCH   4  20
TORSDOF 7
ENDMDL
MODEL 2
REMARK VINA RESULT:    -7.691      1.736      2.667
REMARK INTER + INTRA:         -11.308
REMARK INTER:                 -10.094
REMARK INTRA:                  -1.214
REMARK UNBOUND:                -0.470
REMARK  Name = 
REMARK  8 active torsions:
REMARK  status: ('A' for Active; 'I' for Inactive)
REMARK    1  A    between atoms: C_1  and  O_2
REMARK    2  A    between atoms: O_2  and  C_3
REMARK    3  A    between atoms: C_7  and  C_8
REMARK    4  A    between atoms: N_10  and  C_11
REMARK    5  A    between atoms: C_11  and  C_12
REMARK    6  A    between atoms: C_15  and  C_16
REMARK    7  A    between atoms: C_16  and  N_17
REMARK    8  A    between atoms: C_18  and  C_20
REMARK                            x       y       z     vdW  Elec       q    Type
REMARK                         _______ _______ _______ _____ _____    ______ ____
ROOT
ATOM      1  C   UNL     1      45.926   7.557  12.166  0.00  0.00    +0.000 A 
ATOM      2  C   UNL     1      47.129   6.837  12.199  0.00  0.00    +0.000 A 
ATOM      3  C   UNL     1      48.209   7.257  12.995  0.00  0.00    +0.000 A 
ATOM      4  C   UNL     1      48.127   8.422  13.769  0.00  0.00    +0.000 A 
ATOM      5  C   UNL     1      46.945   9.173  13.694  0.00  0.00    +0.000 A 
ATOM      6  C   UNL     1      45.855   8.739  12.917  0.00  0.00    +0.000 A 
ENDROOT
BRANCH   1   7
ATOM      7  C   UNL     1      44.732   7.060  11.369  0.00  0.00    +0.000 C 
BRANCH   7  10
ATOM      8  C   UNL     1      44.304   4.826  10.328  0.00  0.00    +0.000 C 
ATOM      9  O   UNL     1      43.234   4.655  10.904  0.00  0.00    +0.000 OA
ATOM     10  N   UNL     1      45.090   5.952  10.496  0.00  0.00    +0.000 N 
ATOM     11  H   UNL     1      46.014   5.972  10.093  0.00  0.00    +0.000 HD
BRANCH   8  16
ATOM     12  C   UNL     1      46.086   3.265   7.346  0.00  0.00    +0.000 A 
ATOM     13  C   UNL     1      46.012   1.905   7.654  0.00  0.00    +0.000 A 
ATOM     14  C   UNL     1      45.328   1.480   8.788  0.00  0.00    +0.000 A 
ATOM     15  C   UNL     1      44.734   2.413   9.641  0.00  0.00    +0.000 A 
ATOM     16  C   UNL     1      44.827   3.789   9.372  0.00  0.00    +0.000 A 
ATOM     17  C   UNL     1      45.492   4.203   8.203  0.00  0.00    +0.000 A 
BRANCH  12  19
ATOM     18  C   UNL     1      47.178   2.825   5.287  0.00  0.00    +0.000 C 
ATOM     19  O   UNL     1      46.732   3.777   6.251  0.00  0.00    +0.000 OA
ENDBRANCH  12  19
ENDBRANCH   8  16
ENDBRANCH   7  10
ENDBRANCH   1   7
BRANCH   4  20
ATOM     20  C   UNL     1      49.274   8.863  14.657  0.00  0.00    +0.000 C 
BRANCH  20  21
ATOM     21  N   UNL     1      49.348   8.100  15.879  0.00  0.00    +0.000 N 
ATOM     22  C   UNL     1      48.634   8.436  17.004  0.00  0.00    +0.000 C 
ATOM     23  O   UNL     1      47.875   9.400  17.046  0.00  0.00    +0.000 OA
ATOM     24  H   UNL     1      50.169   7.518  15.998  0.00  0.00    +0.000 HD
BRANCH  22  25
ATOM     25  C   UNL     1      48.779   7.523  18.151  0.00  0.00    +0.000 A 
ATOM     26  C   UNL     1      49.099   8.023  19.406  0.00  0.00    +0.000 A 
ATOM     27  S   UNL     1      49.206   6.822  20.614  0.00  0.00    +0.000 S 
ATOM     28  C   UNL     1      48.863   5.579  19.495  0.00  0.00    +0.000 A 
ATOM     29  N   UNL     1      48.836   4.283  19.880  0.00  0.00    +0.000 NA
ATOM     30  C   UNL     1      48.588   3.448  18.917  0.00  0.00    +0.000 A 
ATOM     31  N   UNL     1      48.356   3.804  17.620  0.00  0.00    +0.000 N 
ATOM     32  C   UNL     1      48.318   5.111  17.199  0.00  0.00    +0.000 A 
ATOM     33  O   UNL     1      48.015   5.403  16.049  0.00  0.00    +0.000 OA
ATOM     34  C   UNL     1      48.635   6.089  18.227  0.00  0.00    +0.000 A 
ATOM     35  H   UNL     1      48.141   3.105  16.921  0.00  0.00    +0.000 HD
ENDBRANCH  22  25
ENDBRANCH  20  21
ENDBRANCH   4  20
TORSDOF 7
ENDMDL
MODEL 3
REMARK VINA RESULT:    -7.640      4.280      7.470
REMARK INTER + INTRA:         -11.236
REMARK INTER:                 -10.135
REMARK INTRA:                  -1.101
REMARK UNBOUND:                -0.470
REMARK  Name = 
REMARK  8 active torsions:
REMARK  status: ('A' for Active; 'I' for Inactive)
REMARK    1  A    between atoms: C_1  and  O_2
REMARK    2  A    between atoms: O_2  and  C_3
REMARK    3  A    between atoms: C_7  and  C_8
REMARK    4  A    between atoms: N_10  and  C_11
REMARK    5  A    between atoms: C_11  and  C_12
REMARK    6  A    between atoms: C_15  and  C_16
REMARK    7  A    between atoms: C_16  and  N_17
REMARK    8  A    between atoms: C_18  and  C_20
REMARK                            x       y       z     vdW  Elec       q    Type
REMARK                         _______ _______ _______ _____ _____    ______ ____
ROOT
ATOM      1  C   UNL     1      44.992   9.098  11.876  0.00  0.00    +0.000 A 
ATOM      2  C   UNL     1      44.349   7.955  11.378  0.00  0.00    +0.000 A 
ATOM      3  C   UNL     1      44.695   6.669  11.830  0.00  0.00    +0.000 A 
ATOM      4  C   UNL     1      45.708   6.484  12.781  0.00  0.00    +0.000 A 
ATOM      5  C   UNL     1      46.389   7.621  13.238  0.00  0.00    +0.000 A 
ATOM      6  C   UNL     1      46.026   8.911  12.806  0.00  0.00    +0.000 A 
ENDROOT
BRANCH   1   7
ATOM      7  C   UNL     1      44.564  10.491  11.449  0.00  0.00    +0.000 C 
BRANCH   7  10
ATOM      8  C   UNL     1      42.106  10.731  11.049  0.00  0.00    +0.000 C 
ATOM      9  O   UNL     1      42.170  10.415   9.865  0.00  0.00    +0.000 OA
ATOM     10  N   UNL     1      43.209  10.796  11.882  0.00  0.00    +0.000 N 
ATOM     11  H   UNL     1      43.105  11.185  12.807  0.00  0.00    +0.000 HD
BRANCH   8  16
ATOM     12  C   UNL     1      38.420  10.522  11.983  0.00  0.00    +0.000 A 
ATOM     13  C   UNL     1      38.323  11.505  12.969  0.00  0.00    +0.000 A 
ATOM     14  C   UNL     1      39.428  12.287  13.289  0.00  0.00    +0.000 A 
ATOM     15  C   UNL     1      40.649  12.075  12.645  0.00  0.00    +0.000 A 
ATOM     16  C   UNL     1      40.781  11.066  11.676  0.00  0.00    +0.000 A 
ATOM     17  C   UNL     1      39.646  10.306  11.338  0.00  0.00    +0.000 A 
BRANCH  12  19
ATOM     18  C   UNL     1      36.899   9.905  10.271  0.00  0.00    +0.000 C 
ATOM     19  O   UNL     1      37.387   9.707  11.596  0.00  0.00    +0.000 OA
ENDBRANCH  12  19
ENDBRANCH   8  16
ENDBRANCH   7  10
ENDBRANCH   1   7
BRANCH   4  20
ATOM     20  C   UNL     1      46.063   5.104  13.298  0.00  0.00    +0.000 C 
BRANCH  20  21
ATOM     21  N   UNL     1      46.678   5.148  14.603  0.00  0.00    +0.000 N 
ATOM     22  C   UNL     1      47.356   4.078  15.136  0.00  0.00    +0.000 C 
ATOM     23  O   UNL     1      47.496   3.015  14.537  0.00  0.00    +0.000 OA
ATOM     24  H   UNL     1      46.326   5.851  15.243  0.00  0.00    +0.000 HD
BRANCH  22  25
ATOM     25  C   UNL     1      47.971   4.303  16.455  0.00  0.00    +0.000 A 
ATOM     26  C   UNL     1      47.658   3.474  17.523  0.00  0.00    +0.000 A 
ATOM     27  S   UNL     1      48.479   3.873  18.965  0.00  0.00    +0.000 S 
ATOM     28  C   UNL     1      49.262   5.197  18.223  0.00  0.00    +0.000 A 
ATOM     29  N   UNL     1      50.095   5.997  18.927  0.00  0.00    +0.000 NA
ATOM     30  C   UNL     1      50.597   6.977  18.239  0.00  0.00    +0.000 A 
ATOM     31  N   UNL     1      50.342   7.211  16.919  0.00  0.00    +0.000 N 
ATOM     32  C   UNL     1      49.547   6.391  16.154  0.00  0.00    +0.000 A 
ATOM     33  O   UNL     1      49.413   6.573  14.950  0.00  0.00    +0.000 OA
ATOM     34  C   UNL     1      48.921   5.301  16.884  0.00  0.00    +0.000 A 
ATOM     35  H   UNL     1      50.787   7.979  16.432  0.00  0.00    +0.000 HD
ENDBRANCH  22  25
ENDBRANCH  20  21
ENDBRANCH   4  20
TORSDOF 7
ENDMDL
MODEL 4
REMARK VINA RESULT:    -7.447      2.589      3.714
REMARK INTER + INTRA:         -10.964
REMARK INTER:                  -9.820
REMARK INTRA:                  -1.144
REMARK UNBOUND:                -0.470
REMARK  Name = 
REMARK  8 active torsions:
REMARK  status: ('A' for Active; 'I' for Inactive)
REMARK    1  A    between atoms: C_1  and  O_2
REMARK    2  A    between atoms: O_2  and  C_3
REMARK    3  A    between atoms: C_7  and  C_8
REMARK    4  A    between atoms: N_10  and  C_11
REMARK    5  A    between atoms: C_11  and  C_12
REMARK    6  A    between atoms: C_15  and  C_16
REMARK    7  A    between atoms: C_16  and  N_17
REMARK    8  A    between atoms: C_18  and  C_20
REMARK                            x       y       z     vdW  Elec       q    Type
REMARK                         _______ _______ _______ _____ _____    ______ ____
ROOT
ATOM      1  C   UNL     1      46.519   7.742  12.381  0.00  0.00    +0.000 A 
ATOM      2  C   UNL     1      47.700   7.034  12.117  0.00  0.00    +0.000 A 
ATOM      3  C   UNL     1      48.839   7.187  12.927  0.00  0.00    +0.000 A 
ATOM      4  C   UNL     1      48.838   8.069  14.017  0.00  0.00    +0.000 A 
ATOM      5  C   UNL     1      47.676   8.819  14.249  0.00  0.00    +0.000 A 
ATOM      6  C   UNL     1      46.528   8.646  13.454  0.00  0.00    +0.000 A 
ENDROOT
BRANCH   1   7
ATOM      7  C   UNL     1      45.264   7.516  11.556  0.00  0.00    +0.000 C 
BRANCH   7  10
ATOM      8  C   UNL     1      44.508   5.290  10.700  0.00  0.00    +0.000 C 
ATOM      9  O   UNL     1      43.537   5.224  11.449  0.00  0.00    +0.000 OA
ATOM     10  N   UNL     1      45.391   6.355  10.688  0.00  0.00    +0.000 N 
ATOM     11  H   UNL     1      46.236   6.288  10.141  0.00  0.00    +0.000 HD
BRANCH   8  16
ATOM     12  C   UNL     1      45.856   3.451   7.650  0.00  0.00    +0.000 A 
ATOM     13  C   UNL     1      45.531   2.128   7.953  0.00  0.00    +0.000 A 
ATOM     14  C   UNL     1      44.816   1.829   9.107  0.00  0.00    +0.000 A 
ATOM     15  C   UNL     1      44.441   2.848   9.985  0.00  0.00    +0.000 A 
ATOM     16  C   UNL     1      44.789   4.184   9.722  0.00  0.00    +0.000 A 
ATOM     17  C   UNL     1      45.483   4.476   8.533  0.00  0.00    +0.000 A 
BRANCH  12  19
ATOM     18  C   UNL     1      46.950   2.799   5.649  0.00  0.00    +0.000 C 
ATOM     19  O   UNL     1      46.553   3.843   6.536  0.00  0.00    +0.000 OA
ENDBRANCH  12  19
ENDBRANCH   8  16
ENDBRANCH   7  10
ENDBRANCH   1   7
BRANCH   4  20
ATOM     20  C   UNL     1      50.051   8.215  14.916  0.00  0.00    +0.000 C 
BRANCH  20  21
ATOM     21  N   UNL     1      50.446   6.962  15.513  0.00  0.00    +0.000 N 
ATOM     22  C   UNL     1      49.906   6.503  16.691  0.00  0.00    +0.000 C 
ATOM     23  O   UNL     1      49.044   7.120  17.311  0.00  0.00    +0.000 OA
ATOM     24  H   UNL     1      51.346   6.592  15.230  0.00  0.00    +0.000 HD
BRANCH  22  25
ATOM     25  C   UNL     1      50.378   5.181  17.138  0.00  0.00    +0.000 A 
ATOM     26  C   UNL     1      49.475   4.142  17.317  0.00  0.00    +0.000 A 
ATOM     27  S   UNL     1      50.204   2.681  17.818  0.00  0.00    +0.000 S 
ATOM     28  C   UNL     1      51.754   3.395  17.848  0.00  0.00    +0.000 A 
ATOM     29  N   UNL     1      52.840   2.685  18.232  0.00  0.00    +0.000 NA
ATOM     30  C   UNL     1      53.946   3.365  18.231  0.00  0.00    +0.000 A 
ATOM     31  N   UNL     1      54.052   4.677  17.871  0.00  0.00    +0.000 N 
ATOM     32  C   UNL     1      52.985   5.417  17.421  0.00  0.00    +0.000 A 
ATOM     33  O   UNL     1      53.129   6.564  17.016  0.00  0.00    +0.000 OA
ATOM     34  C   UNL     1      51.710   4.719  17.445  0.00  0.00    +0.000 A 
ATOM     35  H   UNL     1      54.950   5.143  17.866  0.00  0.00    +0.000 HD
ENDBRANCH  22  25
ENDBRANCH  20  21
ENDBRANCH   4  20
TORSDOF 7
ENDMDL
MODEL 5
REMARK VINA RESULT:    -7.353      1.756      2.121
REMARK INTER + INTRA:         -10.832
REMARK INTER:                  -9.896
REMARK INTRA:                  -0.935
REMARK UNBOUND:                -0.470
REMARK  Name = 
REMARK  8 active torsions:
REMARK  status: ('A' for Active; 'I' for Inactive)
REMARK    1  A    between atoms: C_1  and  O_2
REMARK    2  A    between atoms: O_2  and  C_3
REMARK    3  A    between atoms: C_7  and  C_8
REMARK    4  A    between atoms: N_10  and  C_11
REMARK    5  A    between atoms: C_11  and  C_12
REMARK    6  A    between atoms: C_15  and  C_16
REMARK    7  A    between atoms: C_16  and  N_17
REMARK    8  A    between atoms: C_18  and  C_20
REMARK                            x       y       z     vdW  Elec       q    Type
REMARK                         _______ _______ _______ _____ _____    ______ ____
ROOT
ATOM      1  C   UNL     1      45.716   6.667  11.996  0.00  0.00    +0.000 A 
ATOM      2  C   UNL     1      45.833   8.029  12.307  0.00  0.00    +0.000 A 
ATOM      3  C   UNL     1      46.794   8.488  13.225  0.00  0.00    +0.000 A 
ATOM      4  C   UNL     1      47.657   7.595  13.876  0.00  0.00    +0.000 A 
ATOM      5  C   UNL     1      47.504   6.227  13.608  0.00  0.00    +0.000 A 
ATOM      6  C   UNL     1      46.560   5.770  12.670  0.00  0.00    +0.000 A 
ENDROOT
BRANCH   1   7
ATOM      7  C   UNL     1      44.734   6.180  10.945  0.00  0.00    +0.000 C 
BRANCH   7  10
ATOM      8  C   UNL     1      44.791   4.109   9.543  0.00  0.00    +0.000 C 
ATOM      9  O   UNL     1      43.694   3.708   9.921  0.00  0.00    +0.000 OA
ATOM     10  N   UNL     1      45.367   5.286   9.987  0.00  0.00    +0.000 N 
ATOM     11  H   UNL     1      46.322   5.493   9.736  0.00  0.00    +0.000 HD
BRANCH   8  16
ATOM     12  C   UNL     1      46.459   1.161   7.802  0.00  0.00    +0.000 A 
ATOM     13  C   UNL     1      46.881   1.743   6.605  0.00  0.00    +0.000 A 
ATOM     14  C   UNL     1      46.693   3.103   6.384  0.00  0.00    +0.000 A 
ATOM     15  C   UNL     1      46.054   3.890   7.345  0.00  0.00    +0.000 A 
ATOM     16  C   UNL     1      45.586   3.319   8.541  0.00  0.00    +0.000 A 
ATOM     17  C   UNL     1      45.814   1.949   8.766  0.00  0.00    +0.000 A 
BRANCH  12  19
ATOM     18  C   UNL     1      46.553  -1.074   7.013  0.00  0.00    +0.000 C 
ATOM     19  O   UNL     1      46.605  -0.167   8.112  0.00  0.00    +0.000 OA
ENDBRANCH  12  19
ENDBRANCH   8  16
ENDBRANCH   7  10
ENDBRANCH   1   7
BRANCH   4  20
ATOM     20  C   UNL     1      48.719   8.085  14.841  0.00  0.00    +0.000 C 
BRANCH  20  21
ATOM     21  N   UNL     1      48.448   7.688  16.202  0.00  0.00    +0.000 N 
ATOM     22  C   UNL     1      48.864   8.428  17.284  0.00  0.00    +0.000 C 
ATOM     23  O   UNL     1      49.483   9.482  17.168  0.00  0.00    +0.000 OA
ATOM     24  H   UNL     1      48.240   6.708  16.353  0.00  0.00    +0.000 HD
BRANCH  22  25
ATOM     25  C   UNL     1      48.460   7.914  18.604  0.00  0.00    +0.000 A 
ATOM     26  C   UNL     1      47.823   8.747  19.513  0.00  0.00    +0.000 A 
ATOM     27  S   UNL     1      47.413   7.975  20.979  0.00  0.00    +0.000 S 
ATOM     28  C   UNL     1      48.105   6.501  20.466  0.00  0.00    +0.000 A 
ATOM     29  N   UNL     1      48.122   5.419  21.278  0.00  0.00    +0.000 NA
ATOM     30  C   UNL     1      48.704   4.379  20.764  0.00  0.00    +0.000 A 
ATOM     31  N   UNL     1      49.252   4.332  19.515  0.00  0.00    +0.000 N 
ATOM     32  C   UNL     1      49.207   5.389  18.639  0.00  0.00    +0.000 A 
ATOM     33  O   UNL     1      49.624   5.286  17.492  0.00  0.00    +0.000 OA
ATOM     34  C   UNL     1      48.607   6.599  19.178  0.00  0.00    +0.000 A 
ATOM     35  H   UNL     1      49.668   3.479  19.163  0.00  0.00    +0.000 HD
ENDBRANCH  22  25
ENDBRANCH  20  21
ENDBRANCH   4  20
TORSDOF 7
ENDMDL
MODEL 6
REMARK VINA RESULT:    -7.248      2.680      4.403
REMARK INTER + INTRA:         -10.684
REMARK INTER:                  -9.697
REMARK INTRA:                  -0.987
REMARK UNBOUND:                -0.470
REMARK  Name = 
REMARK  8 active torsions:
REMARK  status: ('A' for Active; 'I' for Inactive)
REMARK    1  A    between atoms: C_1  and  O_2
REMARK    2  A    between atoms: O_2  and  C_3
REMARK    3  A    between atoms: C_7  and  C_8
REMARK    4  A    between atoms: N_10  and  C_11
REMARK    5  A    between atoms: C_11  and  C_12
REMARK    6  A    between atoms: C_15  and  C_16
REMARK    7  A    between atoms: C_16  and  N_17
REMARK    8  A    between atoms: C_18  and  C_20
REMARK                            x       y       z     vdW  Elec       q    Type
REMARK                         _______ _______ _______ _____ _____    ______ ____
ROOT
ATOM      1  C   UNL     1      48.102   7.747  13.806  0.00  0.00    +0.000 A 
ATOM      2  C   UNL     1      48.142   6.444  14.322  0.00  0.00    +0.000 A 
ATOM      3  C   UNL     1      48.448   6.203  15.673  0.00  0.00    +0.000 A 
ATOM      4  C   UNL     1      48.744   7.258  16.547  0.00  0.00    +0.000 A 
ATOM      5  C   UNL     1      48.759   8.558  16.020  0.00  0.00    +0.000 A 
ATOM      6  C   UNL     1      48.427   8.801  14.674  0.00  0.00    +0.000 A 
ENDROOT
BRANCH   1   7
ATOM      7  C   UNL     1      47.692   8.013  12.368  0.00  0.00    +0.000 C 
BRANCH   7  10
ATOM      8  C   UNL     1      45.814   6.719  11.341  0.00  0.00    +0.000 C 
ATOM      9  O   UNL     1      44.989   7.616  11.488  0.00  0.00    +0.000 OA
ATOM     10  N   UNL     1      47.135   6.825  11.738  0.00  0.00    +0.000 N 
ATOM     11  H   UNL     1      47.727   6.009  11.705  0.00  0.00    +0.000 HD
BRANCH   8  16
ATOM     12  C   UNL     1      45.391   4.006   8.702  0.00  0.00    +0.000 A 
ATOM     13  C   UNL     1      44.900   2.945   9.465  0.00  0.00    +0.000 A 
ATOM     14  C   UNL     1      44.638   3.119  10.819  0.00  0.00    +0.000 A 
ATOM     15  C   UNL     1      44.889   4.349  11.431  0.00  0.00    +0.000 A 
ATOM     16  C   UNL     1      45.419   5.421  10.693  0.00  0.00    +0.000 A 
ATOM     17  C   UNL     1      45.648   5.240   9.316  0.00  0.00    +0.000 A 
BRANCH  12  19
ATOM     18  C   UNL     1      46.840   3.186   7.013  0.00  0.00    +0.000 C 
ATOM     19  O   UNL     1      45.675   3.931   7.362  0.00  0.00    +0.000 OA
ENDBRANCH  12  19
ENDBRANCH   8  16
ENDBRANCH   7  10
ENDBRANCH   1   7
BRANCH   4  20
ATOM     20  C   UNL     1      49.042   7.010  18.013  0.00  0.00    +0.000 C 
BRANCH  20  21
ATOM     21  N   UNL     1      49.978   5.929  18.208  0.00  0.00    +0.000 N 
ATOM     22  C   UNL     1      51.315   6.047  17.910  0.00  0.00    +0.000 C 
ATOM     23  O   UNL     1      51.808   7.082  17.470  0.00  0.00    +0.000 OA
ATOM     24  H   UNL     1      49.585   4.996  18.254  0.00  0.00    +0.000 HD
BRANCH  22  25
ATOM     25  C   UNL     1      52.145   4.870  18.218  0.00  0.00    +0.000 A 
ATOM     26  C   UNL     1      53.367   5.025  18.857  0.00  0.00    +0.000 A 
ATOM     27  S   UNL     1      54.179   3.552  19.149  0.00  0.00    +0.000 S 
ATOM     28  C   UNL     1      52.939   2.650  18.398  0.00  0.00    +0.000 A 
ATOM     29  N   UNL     1      53.029   1.306  18.279  0.00  0.00    +0.000 NA
ATOM     30  C   UNL     1      52.026   0.759  17.664  0.00  0.00    +0.000 A 
ATOM     31  N   UNL     1      50.948   1.439  17.175  0.00  0.00    +0.000 N 
ATOM     32  C   UNL     1      50.790   2.796  17.325  0.00  0.00    +0.000 A 
ATOM     33  O   UNL     1      49.769   3.364  16.960  0.00  0.00    +0.000 OA
ATOM     34  C   UNL     1      51.908   3.469  17.967  0.00  0.00    +0.000 A 
ATOM     35  H   UNL     1      50.184   0.949  16.728  0.00  0.00    +0.000 HD
ENDBRANCH  22  25
ENDBRANCH  20  21
ENDBRANCH   4  20
TORSDOF 7
ENDMDL
MODEL 7
REMARK VINA RESULT:    -7.223      5.762      7.585
REMARK INTER + INTRA:         -10.649
REMARK INTER:                  -9.594
REMARK INTRA:                  -1.055
REMARK UNBOUND:                -0.470
REMARK  Name = 
REMARK  8 active torsions:
REMARK  status: ('A' for Active; 'I' for Inactive)
REMARK    1  A    between atoms: C_1  and  O_2
REMARK    2  A    between atoms: O_2  and  C_3
REMARK    3  A    between atoms: C_7  and  C_8
REMARK    4  A    between atoms: N_10  and  C_11
REMARK    5  A    between atoms: C_11  and  C_12
REMARK    6  A    between atoms: C_15  and  C_16
REMARK    7  A    between atoms: C_16  and  N_17
REMARK    8  A    between atoms: C_18  and  C_20
REMARK                            x       y       z     vdW  Elec       q    Type
REMARK                         _______ _______ _______ _____ _____    ______ ____
ROOT
ATOM      1  C   UNL     1      48.141   7.906  12.622  0.00  0.00    +0.000 A 
ATOM      2  C   UNL     1      48.057   9.299  12.479  0.00  0.00    +0.000 A 
ATOM      3  C   UNL     1      49.108  10.038  11.909  0.00  0.00    +0.000 A 
ATOM      4  C   UNL     1      50.285   9.409  11.480  0.00  0.00    +0.000 A 
ATOM      5  C   UNL     1      50.393   8.024  11.673  0.00  0.00    +0.000 A 
ATOM      6  C   UNL     1      49.330   7.281  12.220  0.00  0.00    +0.000 A 
ENDROOT
BRANCH   1   7
ATOM      7  C   UNL     1      46.973   7.099  13.163  0.00  0.00    +0.000 C 
BRANCH   7  10
ATOM      8  C   UNL     1      45.509   6.215  11.337  0.00  0.00    +0.000 C 
ATOM      9  O   UNL     1      44.834   7.237  11.253  0.00  0.00    +0.000 OA
ATOM     10  N   UNL     1      46.555   6.064  12.230  0.00  0.00    +0.000 N 
ATOM     11  H   UNL     1      46.985   5.157  12.336  0.00  0.00    +0.000 HD
BRANCH   8  16
ATOM     12  C   UNL     1      45.623   3.900   8.315  0.00  0.00    +0.000 A 
ATOM     13  C   UNL     1      44.920   2.789   8.786  0.00  0.00    +0.000 A 
ATOM     14  C   UNL     1      44.348   2.808  10.053  0.00  0.00    +0.000 A 
ATOM     15  C   UNL     1      44.495   3.928  10.874  0.00  0.00    +0.000 A 
ATOM     16  C   UNL     1      45.230   5.043  10.438  0.00  0.00    +0.000 A 
ATOM     17  C   UNL     1      45.775   5.024   9.141  0.00  0.00    +0.000 A 
BRANCH  12  19
ATOM     18  C   UNL     1      47.240   3.016   6.822  0.00  0.00    +0.000 C 
ATOM     19  O   UNL     1      46.217   3.976   7.082  0.00  0.00    +0.000 OA
ENDBRANCH  12  19
ENDBRANCH   8  16
ENDBRANCH   7  10
ENDBRANCH   1   7
BRANCH   4  20
ATOM     20  C   UNL     1      51.410  10.194  10.833  0.00  0.00    +0.000 C 
BRANCH  20  21
ATOM     21  N   UNL     1      51.857   9.596   9.598  0.00  0.00    +0.000 N 
ATOM     22  C   UNL     1      53.093   9.007   9.468  0.00  0.00    +0.000 C 
ATOM     23  O   UNL     1      53.896   8.938  10.395  0.00  0.00    +0.000 OA
ATOM     24  H   UNL     1      51.389   9.903   8.753  0.00  0.00    +0.000 HD
BRANCH  22  25
ATOM     25  C   UNL     1      53.375   8.395   8.159  0.00  0.00    +0.000 A 
ATOM     26  C   UNL     1      53.489   9.190   7.027  0.00  0.00    +0.000 A 
ATOM     27  S   UNL     1      53.837   8.311   5.605  0.00  0.00    +0.000 S 
ATOM     28  C   UNL     1      53.814   6.825   6.446  0.00  0.00    +0.000 A 
ATOM     29  N   UNL     1      54.009   5.655   5.797  0.00  0.00    +0.000 NA
ATOM     30  C   UNL     1      53.938   4.607   6.560  0.00  0.00    +0.000 A 
ATOM     31  N   UNL     1      53.701   4.637   7.904  0.00  0.00    +0.000 N 
ATOM     32  C   UNL     1      53.554   5.807   8.610  0.00  0.00    +0.000 A 
ATOM     33  O   UNL     1      53.437   5.806   9.829  0.00  0.00    +0.000 OA
ATOM     34  C   UNL     1      53.579   7.013   7.798  0.00  0.00    +0.000 A 
ATOM     35  H   UNL     1      53.685   3.784   8.447  0.00  0.00    +0.000 HD
ENDBRANCH  22  25
ENDBRANCH  20  21
ENDBRANCH   4  20
TORSDOF 7
ENDMDL
MODEL 8
REMARK VINA RESULT:    -7.145      3.307      9.201
REMARK INTER + INTRA:         -10.538
REMARK INTER:                  -9.451
REMARK INTRA:                  -1.088
REMARK UNBOUND:                -0.470
REMARK  Name = 
REMARK  8 active torsions:
REMARK  status: ('A' for Active; 'I' for Inactive)
REMARK    1  A    between atoms: C_1  and  O_2
REMARK    2  A    between atoms: O_2  and  C_3
REMARK    3  A    between atoms: C_7  and  C_8
REMARK    4  A    between atoms: N_10  and  C_11
REMARK    5  A    between atoms: C_11  and  C_12
REMARK    6  A    between atoms: C_15  and  C_16
REMARK    7  A    between atoms: C_16  and  N_17
REMARK    8  A    between atoms: C_18  and  C_20
REMARK                            x       y       z     vdW  Elec       q    Type
REMARK                         _______ _______ _______ _____ _____    ______ ____
ROOT
ATOM      1  C   UNL     1      50.056   7.817  15.096  0.00  0.00    +0.000 A 
ATOM      2  C   UNL     1      49.026   6.870  15.000  0.00  0.00    +0.000 A 
ATOM      3  C   UNL     1      48.111   6.893  13.933  0.00  0.00    +0.000 A 
ATOM      4  C   UNL     1      48.187   7.876  12.936  0.00  0.00    +0.000 A 
ATOM      5  C   UNL     1      49.182   8.856  13.060  0.00  0.00    +0.000 A 
ATOM      6  C   UNL     1      50.113   8.818  14.115  0.00  0.00    +0.000 A 
ENDROOT
BRANCH   1   7
ATOM      7  C   UNL     1      51.092   7.743  16.204  0.00  0.00    +0.000 C 
BRANCH   7  10
ATOM      8  C   UNL     1      52.026   5.977  17.709  0.00  0.00    +0.000 C 
ATOM      9  O   UNL     1      52.277   6.755  18.625  0.00  0.00    +0.000 OA
ATOM     10  N   UNL     1      51.458   6.369  16.510  0.00  0.00    +0.000 N 
ATOM     11  H   UNL     1      51.396   5.704  15.754  0.00  0.00    +0.000 HD
BRANCH   8  16
ATOM     12  C   UNL     1      51.604   2.195  17.554  0.00  0.00    +0.000 A 
ATOM     13  C   UNL     1      52.884   1.755  17.900  0.00  0.00    +0.000 A 
ATOM     14  C   UNL     1      53.868   2.672  18.251  0.00  0.00    +0.000 A 
ATOM     15  C   UNL     1      53.592   4.041  18.235  0.00  0.00    +0.000 A 
ATOM     16  C   UNL     1      52.323   4.510  17.854  0.00  0.00    +0.000 A 
ATOM     17  C   UNL     1      51.327   3.570  17.534  0.00  0.00    +0.000 A 
BRANCH  12  19
ATOM     18  C   UNL     1      49.410   2.012  16.673  0.00  0.00    +0.000 C 
ATOM     19  O   UNL     1      50.570   1.369  17.198  0.00  0.00    +0.000 OA
ENDBRANCH  12  19
ENDBRANCH   8  16
ENDBRANCH   7  10
ENDBRANCH   1   7
BRANCH   4  20
ATOM     20  C   UNL     1      47.225   7.888  11.763  0.00  0.00    +0.000 C 
BRANCH  20  21
ATOM     21  N   UNL     1      46.580   6.611  11.569  0.00  0.00    +0.000 N 
ATOM     22  C   UNL     1      45.214   6.476  11.512  0.00  0.00    +0.000 C 
ATOM     23  O   UNL     1      44.447   7.430  11.612  0.00  0.00    +0.000 OA
ATOM     24  H   UNL     1      47.128   5.790  11.801  0.00  0.00    +0.000 HD
BRANCH  22  25
ATOM     25  C   UNL     1      44.717   5.113  11.255  0.00  0.00    +0.000 A 
ATOM     26  C   UNL     1      43.912   4.475  12.188  0.00  0.00    +0.000 A 
ATOM     27  S   UNL     1      43.415   2.913  11.711  0.00  0.00    +0.000 S 
ATOM     28  C   UNL     1      44.289   3.017  10.248  0.00  0.00    +0.000 A 
ATOM     29  N   UNL     1      44.314   1.983   9.377  0.00  0.00    +0.000 NA
ATOM     30  C   UNL     1      45.040   2.195   8.321  0.00  0.00    +0.000 A 
ATOM     31  N   UNL     1      45.723   3.349   8.067  0.00  0.00    +0.000 N 
ATOM     32  C   UNL     1      45.679   4.443   8.897  0.00  0.00    +0.000 A 
ATOM     33  O   UNL     1      46.227   5.496   8.596  0.00  0.00    +0.000 OA
ATOM     34  C   UNL     1      44.917   4.245  10.120  0.00  0.00    +0.000 A 
ATOM     35  H   UNL     1      46.250   3.461   7.210  0.00  0.00    +0.000 HD
ENDBRANCH  22  25
ENDBRANCH  20  21
ENDBRANCH   4  20
TORSDOF 7
ENDMDL
MODEL 9
REMARK VINA RESULT:    -6.950      5.795     10.195
REMARK INTER + INTRA:         -10.264
REMARK INTER:                  -9.258
REMARK INTRA:                  -1.005
REMARK UNBOUND:                -0.470
REMARK  Name = 
REMARK  8 active torsions:
REMARK  status: ('A' for Active; 'I' for Inactive)
REMARK    1  A    between atoms: C_1  and  O_2
REMARK    2  A    between atoms: O_2  and  C_3
REMARK    3  A    between atoms: C_7  and  C_8
REMARK    4  A    between atoms: N_10  and  C_11
REMARK    5  A    between atoms: C_11  and  C_12
REMARK    6  A    between atoms: C_15  and  C_16
REMARK    7  A    between atoms: C_16  and  N_17
REMARK    8  A    between atoms: C_18  and  C_20
REMARK                            x       y       z     vdW  Elec       q    Type
REMARK                         _______ _______ _______ _____ _____    ______ ____
ROOT
ATOM      1  C   UNL     1      45.697   6.746  12.552  0.00  0.00    +0.000 A 
ATOM      2  C   UNL     1      46.269   7.852  13.197  0.00  0.00    +0.000 A 
ATOM      3  C   UNL     1      45.814   9.158  12.947  0.00  0.00    +0.000 A 
ATOM      4  C   UNL     1      44.783   9.402  12.029  0.00  0.00    +0.000 A 
ATOM      5  C   UNL     1      44.248   8.303  11.342  0.00  0.00    +0.000 A 
ATOM      6  C   UNL     1      44.686   6.992  11.611  0.00  0.00    +0.000 A 
ENDROOT
BRANCH   1   7
ATOM      7  C   UNL     1      46.134   5.329  12.882  0.00  0.00    +0.000 C 
BRANCH   7  10
ATOM      8  C   UNL     1      47.226   4.075  14.751  0.00  0.00    +0.000 C 
ATOM      9  O   UNL     1      47.314   3.024  14.123  0.00  0.00    +0.000 OA
ATOM     10  N   UNL     1      46.669   5.230  14.231  0.00  0.00    +0.000 N 
ATOM     11  H   UNL     1      46.512   6.019  14.841  0.00  0.00    +0.000 HD
BRANCH   8  16
ATOM     12  C   UNL     1      48.505   5.552  18.020  0.00  0.00    +0.000 A 
ATOM     13  C   UNL     1      48.516   4.430  18.851  0.00  0.00    +0.000 A 
ATOM     14  C   UNL     1      48.177   3.180  18.344  0.00  0.00    +0.000 A 
ATOM     15  C   UNL     1      47.798   3.044  17.006  0.00  0.00    +0.000 A 
ATOM     16  C   UNL     1      47.743   4.164  16.160  0.00  0.00    +0.000 A 
ATOM     17  C   UNL     1      48.121   5.417  16.678  0.00  0.00    +0.000 A 
BRANCH  12  19
ATOM     18  C   UNL     1      47.753   7.597  18.958  0.00  0.00    +0.000 C 
ATOM     19  O   UNL     1      48.827   6.822  18.427  0.00  0.00    +0.000 OA
ENDBRANCH  12  19
ENDBRANCH   8  16
ENDBRANCH   7  10
ENDBRANCH   1   7
BRANCH   4  20
ATOM     20  C   UNL     1      44.263  10.804  11.778  0.00  0.00    +0.000 C 
BRANCH  20  21
ATOM     21  N   UNL     1      42.822  10.852  11.719  0.00  0.00    +0.000 N 
ATOM     22  C   UNL     1      42.144  11.829  11.029  0.00  0.00    +0.000 C 
ATOM     23  O   UNL     1      42.715  12.721  10.407  0.00  0.00    +0.000 OA
ATOM     24  H   UNL     1      42.324  10.359  12.450  0.00  0.00    +0.000 HD
BRANCH  22  25
ATOM     25  C   UNL     1      40.676  11.706  11.021  0.00  0.00    +0.000 A 
ATOM     26  C   UNL     1      40.012  11.340   9.859  0.00  0.00    +0.000 A 
ATOM     27  S   UNL     1      38.319  11.228  10.044  0.00  0.00    +0.000 S 
ATOM     28  C   UNL     1      38.406  11.699  11.682  0.00  0.00    +0.000 A 
ATOM     29  N   UNL     1      37.286  11.837  12.428  0.00  0.00    +0.000 NA
ATOM     30  C   UNL     1      37.505  12.226  13.647  0.00  0.00    +0.000 A 
ATOM     31  N   UNL     1      38.739  12.474  14.175  0.00  0.00    +0.000 N 
ATOM     32  C   UNL     1      39.904  12.293  13.469  0.00  0.00    +0.000 A 
ATOM     33  O   UNL     1      40.999  12.434  13.998  0.00  0.00    +0.000 OA
ATOM     34  C   UNL     1      39.717  11.902  12.081  0.00  0.00    +0.000 A 
ATOM     35  H   UNL     1      38.843  12.750  15.143  0.00  0.00    +0.000 HD
ENDBRANCH  22  25
ENDBRANCH  20  21
ENDBRANCH   4  20
TORSDOF 7
ENDMDL
