MODEL 1
REMARK VINA RESULT:    -8.359      0.000      0.000
REMARK INTER + INTRA:         -13.983
REMARK INTER:                 -12.757
REMARK INTRA:                  -1.226
REMARK UNBOUND:                -1.226
REMARK  Name = 
REMARK  10 active torsions:
REMARK  status: ('A' for Active; 'I' for Inactive)
REMARK    1  A    between atoms: C_1  and  C_2
REMARK    2  A    between atoms: C_2  and  C_3
REMARK    3  A    between atoms: C_3  and  C_4
REMARK    4  A    between atoms: C_4  and  N_5
REMARK    5  A    between atoms: C_4  and  C_13
REMARK    6  A    between atoms: N_5  and  C_6
REMARK    7  A    between atoms: C_6  and  C_7
REMARK    8  A    between atoms: C_16  and  C_17
REMARK    9  A    between atoms: C_17  and  N_18
REMARK   10  A    between atoms: C_19  and  C_21
REMARK                            x       y       z     vdW  Elec       q    Type
REMARK                         _______ _______ _______ _____ _____    ______ ____
ROOT
ATOM      1  C   UNL     1      45.680   4.489  12.333  0.00  0.00    +0.000 A 
ATOM      2  C   UNL     1      46.301   4.212  13.565  0.00  0.00    +0.000 A 
ATOM      3  C   UNL     1      47.244   5.088  14.113  0.00  0.00    +0.000 A 
ATOM      4  C   UNL     1      47.536   6.300  13.478  0.00  0.00    +0.000 A 
ATOM      5  C   UNL     1      46.941   6.572  12.244  0.00  0.00    +0.000 A 
ATOM      6  C   UNL     1      46.041   5.675  11.673  0.00  0.00    +0.000 A 
ENDROOT
BRANCH   1   7
ATOM      7  C   UNL     1      44.727   3.467  11.700  0.00  0.00    +0.000 C 
BRANCH   7   8
ATOM      8  N   UNL     1      44.642   3.649  10.240  0.00  0.00    +0.000 NA
ATOM      9  H   UNL     1      45.491   4.115   9.919  0.00  0.00    +0.000 HD
BRANCH   8  10
ATOM     10  C   UNL     1      44.550   2.369   9.507  0.00  0.00    +0.000 C 
BRANCH  10  11
ATOM     11  C   UNL     1      45.584   2.263   8.407  0.00  0.00    +0.000 A 
ATOM     12  C   UNL     1      45.893   3.380   7.640  0.00  0.00    +0.000 A 
ATOM     13  C   UNL     1      46.918   3.282   6.707  0.00  0.00    +0.000 A 
ATOM     14  C   UNL     1      47.590   2.075   6.554  0.00  0.00    +0.000 A 
ATOM     15  C   UNL     1      47.198   1.001   7.334  0.00  0.00    +0.000 A 
ATOM     16  N   UNL     1      46.219   1.069   8.258  0.00  0.00    +0.000 NA
ENDBRANCH  10  11
ENDBRANCH   8  10
ENDBRANCH   7   8
BRANCH   7  17
ATOM     17  C   UNL     1      43.319   3.554  12.367  0.00  0.00    +0.000 C 
BRANCH  17  19
ATOM     18  C   UNL     1      42.277   5.760  11.784  0.00  0.00    +0.000 C 
ATOM     19  C   UNL     1      42.874   4.914  12.910  0.00  0.00    +0.000 C 
ENDBRANCH  17  19
ENDBRANCH   7  17
ENDBRANCH   1   7
BRANCH   4  20
ATOM     20  C   UNL     1      48.481   7.300  14.080  0.00  0.00    +0.000 C 
BRANCH  20  21
ATOM     21  N   UNL     1      48.335   7.381  15.508  0.00  0.00    +0.000 N 
ATOM     22  C   UNL     1      49.276   6.829  16.338  0.00  0.00    +0.000 C 
ATOM     23  O   UNL     1      50.288   6.282  15.906  0.00  0.00    +0.000 OA
ATOM     24  H   UNL     1      47.407   7.580  15.868  0.00  0.00    +0.000 HD
BRANCH  22  25
ATOM     25  C   UNL     1      49.047   6.986  17.778  0.00  0.00    +0.000 A 
ATOM     26  C   UNL     1      48.999   8.258  18.333  0.00  0.00    +0.000 A 
ATOM     27  S   UNL     1      48.662   8.261  20.004  0.00  0.00    +0.000 S 
ATOM     28  C   UNL     1      48.635   6.561  20.058  0.00  0.00    +0.000 A 
ATOM     29  N   UNL     1      48.417   5.900  21.227  0.00  0.00    +0.000 NA
ATOM     30  C   UNL     1      48.451   4.613  21.125  0.00  0.00    +0.000 A 
ATOM     31  N   UNL     1      48.672   3.925  19.959  0.00  0.00    +0.000 N 
ATOM     32  C   UNL     1      48.873   4.547  18.746  0.00  0.00    +0.000 A 
ATOM     33  O   UNL     1      49.046   3.908  17.721  0.00  0.00    +0.000 OA
ATOM     34  C   UNL     1      48.853   5.999  18.812  0.00  0.00    +0.000 A 
ATOM     35  H   UNL     1      48.680   2.916  19.941  0.00  0.00    +0.000 HD
ENDBRANCH  22  25
ENDBRANCH  20  21
ENDBRANCH   4  20
TORSDOF 9
ENDMDL
MODEL 2
REMARK VINA RESULT:    -7.760      1.698      2.210
REMARK INTER + INTRA:         -13.069
REMARK INTER:                 -11.693
REMARK INTRA:                  -1.377
REMARK UNBOUND:                -1.226
REMARK  Name = 
REMARK  10 active torsions:
REMARK  status: ('A' for Active; 'I' for Inactive)
REMARK    1  A    between atoms: C_1  and  C_2
REMARK    2  A    between atoms: C_2  and  C_3
REMARK    3  A    between atoms: C_3  and  C_4
REMARK    4  A    between atoms: C_4  and  N_5
REMARK    5  A    between atoms: C_4  and  C_13
REMARK    6  A    between atoms: N_5  and  C_6
REMARK    7  A    between atoms: C_6  and  C_7
REMARK    8  A    between atoms: C_16  and  C_17
REMARK    9  A    between atoms: C_17  and  N_18
REMARK   10  A    between atoms: C_19  and  C_21
REMARK                            x       y       z     vdW  Elec       q    Type
REMARK                         _______ _______ _______ _____ _____    ______ ____
ROOT
ATOM      1  C   UNL     1      45.806   6.222  11.594  0.00  0.00    +0.000 A 
ATOM      2  C   UNL     1      45.146   7.423  11.915  0.00  0.00    +0.000 A 
ATOM      3  C   UNL     1      45.735   8.367  12.763  0.00  0.00    +0.000 A 
ATOM      4  C   UNL     1      47.029   8.165  13.255  0.00  0.00    +0.000 A 
ATOM      5  C   UNL     1      47.680   6.965  12.960  0.00  0.00    +0.000 A 
ATOM      6  C   UNL     1      47.073   6.003  12.157  0.00  0.00    +0.000 A 
ENDROOT
BRANCH   1   7
ATOM      7  C   UNL     1      45.101   5.155  10.745  0.00  0.00    +0.000 C 
BRANCH   7   8
ATOM      8  N   UNL     1      45.513   5.237   9.333  0.00  0.00    +0.000 NA
ATOM      9  H   UNL     1      46.500   4.987   9.266  0.00  0.00    +0.000 HD
BRANCH   8  10
ATOM     10  C   UNL     1      44.770   4.301   8.464  0.00  0.00    +0.000 C 
BRANCH  10  11
ATOM     11  C   UNL     1      45.672   3.248   7.855  0.00  0.00    +0.000 A 
ATOM     12  C   UNL     1      46.463   3.567   6.758  0.00  0.00    +0.000 A 
ATOM     13  C   UNL     1      47.356   2.614   6.284  0.00  0.00    +0.000 A 
ATOM     14  C   UNL     1      47.421   1.370   6.902  0.00  0.00    +0.000 A 
ATOM     15  C   UNL     1      46.574   1.122   7.967  0.00  0.00    +0.000 A 
ATOM     16  N   UNL     1      45.709   2.031   8.460  0.00  0.00    +0.000 NA
ENDBRANCH  10  11
ENDBRANCH   8  10
ENDBRANCH   7   8
BRANCH   7  17
ATOM     17  C   UNL     1      43.553   5.280  10.896  0.00  0.00    +0.000 C 
BRANCH  17  19
ATOM     18  C   UNL     1      43.383   2.937  11.776  0.00  0.00    +0.000 C 
ATOM     19  C   UNL     1      42.863   4.369  11.914  0.00  0.00    +0.000 C 
ENDBRANCH  17  19
ENDBRANCH   7  17
ENDBRANCH   1   7
BRANCH   4  20
ATOM     20  C   UNL     1      47.722   9.195  14.101  0.00  0.00    +0.000 C 
BRANCH  20  21
ATOM     21  N   UNL     1      47.522   8.955  15.505  0.00  0.00    +0.000 N 
ATOM     22  C   UNL     1      48.290   9.602  16.439  0.00  0.00    +0.000 C 
ATOM     23  O   UNL     1      49.142  10.429  16.125  0.00  0.00    +0.000 OA
ATOM     24  H   UNL     1      47.030   8.106  15.764  0.00  0.00    +0.000 HD
BRANCH  22  25
ATOM     25  C   UNL     1      47.991   9.306  17.844  0.00  0.00    +0.000 A 
ATOM     26  C   UNL     1      47.634  10.335  18.704  0.00  0.00    +0.000 A 
ATOM     27  S   UNL     1      47.261   9.808  20.282  0.00  0.00    +0.000 S 
ATOM     28  C   UNL     1      47.629   8.194  19.889  0.00  0.00    +0.000 A 
ATOM     29  N   UNL     1      47.539   7.208  20.822  0.00  0.00    +0.000 NA
ATOM     30  C   UNL     1      47.874   6.038  20.392  0.00  0.00    +0.000 A 
ATOM     31  N   UNL     1      48.281   5.760  19.112  0.00  0.00    +0.000 N 
ATOM     32  C   UNL     1      48.364   6.717  18.125  0.00  0.00    +0.000 A 
ATOM     33  O   UNL     1      48.709   6.437  16.989  0.00  0.00    +0.000 OA
ATOM     34  C   UNL     1      48.005   8.056  18.565  0.00  0.00    +0.000 A 
ATOM     35  H   UNL     1      48.523   4.820  18.833  0.00  0.00    +0.000 HD
ENDBRANCH  22  25
ENDBRANCH  20  21
ENDBRANCH   4  20
TORSDOF 9
ENDMDL
MODEL 3
REMARK VINA RESULT:    -7.701      1.464      2.202
REMARK INTER + INTRA:         -12.979
REMARK INTER:                 -11.546
REMARK INTRA:                  -1.433
REMARK UNBOUND:                -1.226
REMARK  Name = 
REMARK  10 active torsions:
REMARK  status: ('A' for Active; 'I' for Inactive)
REMARK    1  A    between atoms: C_1  and  C_2
REMARK    2  A    between atoms: C_2  and  C_3
REMARK    3  A    between atoms: C_3  and  C_4
REMARK    4  A    between atoms: C_4  and  N_5
REMARK    5  A    between atoms: C_4  and  C_13
REMARK    6  A    between atoms: N_5  and  C_6
REMARK    7  A    between atoms: C_6  and  C_7
REMARK    8  A    between atoms: C_16  and  C_17
REMARK    9  A    between atoms: C_17  and  N_18
REMARK   10  A    between atoms: C_19  and  C_21
REMARK                            x       y       z     vdW  Elec       q    Type
REMARK                         _______ _______ _______ _____ _____    ______ ____
ROOT
ATOM      1  C   UNL     1      45.774   4.757  12.428  0.00  0.00    +0.000 A 
ATOM      2  C   UNL     1      46.433   5.918  11.981  0.00  0.00    +0.000 A 
ATOM      3  C   UNL     1      47.342   6.594  12.801  0.00  0.00    +0.000 A 
ATOM      4  C   UNL     1      47.669   6.087  14.062  0.00  0.00    +0.000 A 
ATOM      5  C   UNL     1      47.002   4.949  14.523  0.00  0.00    +0.000 A 
ATOM      6  C   UNL     1      46.059   4.305  13.726  0.00  0.00    +0.000 A 
ENDROOT
BRANCH   1   7
ATOM      7  C   UNL     1      44.704   4.089  11.554  0.00  0.00    +0.000 C 
BRANCH   7   8
ATOM      8  N   UNL     1      45.234   2.885  10.889  0.00  0.00    +0.000 NA
ATOM      9  H   UNL     1      45.101   2.085  11.508  0.00  0.00    +0.000 HD
BRANCH   8  10
ATOM     10  C   UNL     1      44.533   2.573   9.625  0.00  0.00    +0.000 C 
BRANCH  10  11
ATOM     11  C   UNL     1      45.493   2.381   8.471  0.00  0.00    +0.000 A 
ATOM     12  C   UNL     1      45.759   3.439   7.610  0.00  0.00    +0.000 A 
ATOM     13  C   UNL     1      46.720   3.266   6.623  0.00  0.00    +0.000 A 
ATOM     14  C   UNL     1      47.372   2.043   6.510  0.00  0.00    +0.000 A 
ATOM     15  C   UNL     1      47.024   1.030   7.386  0.00  0.00    +0.000 A 
ATOM     16  N   UNL     1      46.108   1.173   8.364  0.00  0.00    +0.000 NA
ENDBRANCH  10  11
ENDBRANCH   8  10
ENDBRANCH   7   8
BRANCH   7  17
ATOM     17  C   UNL     1      44.137   5.109  10.518  0.00  0.00    +0.000 C 
BRANCH  17  19
ATOM     18  C   UNL     1      42.328   5.486  12.215  0.00  0.00    +0.000 C 
ATOM     19  C   UNL     1      43.043   6.068  10.993  0.00  0.00    +0.000 C 
ENDBRANCH  17  19
ENDBRANCH   7  17
ENDBRANCH   1   7
BRANCH   4  20
ATOM     20  C   UNL     1      48.702   6.743  14.935  0.00  0.00    +0.000 C 
BRANCH  20  21
ATOM     21  N   UNL     1      48.451   6.505  16.330  0.00  0.00    +0.000 N 
ATOM     22  C   UNL     1      49.491   6.305  17.202  0.00  0.00    +0.000 C 
ATOM     23  O   UNL     1      50.664   6.358  16.842  0.00  0.00    +0.000 OA
ATOM     24  H   UNL     1      47.518   6.198  16.587  0.00  0.00    +0.000 HD
BRANCH  22  25
ATOM     25  C   UNL     1      49.130   6.094  18.608  0.00  0.00    +0.000 A 
ATOM     26  C   UNL     1      49.438   4.889  19.224  0.00  0.00    +0.000 A 
ATOM     27  S   UNL     1      49.005   4.836  20.873  0.00  0.00    +0.000 S 
ATOM     28  C   UNL     1      48.332   6.397  20.803  0.00  0.00    +0.000 A 
ATOM     29  N   UNL     1      47.753   6.959  21.897  0.00  0.00    +0.000 NA
ATOM     30  C   UNL     1      47.260   8.135  21.693  0.00  0.00    +0.000 A 
ATOM     31  N   UNL     1      47.301   8.805  20.497  0.00  0.00    +0.000 N 
ATOM     32  C   UNL     1      47.897   8.290  19.367  0.00  0.00    +0.000 A 
ATOM     33  O   UNL     1      47.937   8.918  18.322  0.00  0.00    +0.000 OA
ATOM     34  C   UNL     1      48.459   6.961  19.546  0.00  0.00    +0.000 A 
ATOM     35  H   UNL     1      46.903   9.728  20.400  0.00  0.00    +0.000 HD
ENDBRANCH  22  25
ENDBRANCH  20  21
ENDBRANCH   4  20
TORSDOF 9
ENDMDL
MODEL 4
REMARK VINA RESULT:    -7.602      2.177      2.672
REMARK INTER + INTRA:         -12.828
REMARK INTER:                 -11.444
REMARK INTRA:                  -1.384
REMARK UNBOUND:                -1.226
REMARK  Name = 
REMARK  10 active torsions:
REMARK  status: ('A' for Active; 'I' for Inactive)
REMARK    1  A    between atoms: C_1  and  C_2
REMARK    2  A    between atoms: C_2  and  C_3
REMARK    3  A    between atoms: C_3  and  C_4
REMARK    4  A    between atoms: C_4  and  N_5
REMARK    5  A    between atoms: C_4  and  C_13
REMARK    6  A    between atoms: N_5  and  C_6
REMARK    7  A    between atoms: C_6  and  C_7
REMARK    8  A    between atoms: C_16  and  C_17
REMARK    9  A    between atoms: C_17  and  N_18
REMARK   10  A    between atoms: C_19  and  C_21
REMARK                            x       y       z     vdW  Elec       q    Type
REMARK                         _______ _______ _______ _____ _____    ______ ____
ROOT
ATOM      1  C   UNL     1      45.763   5.064  11.851  0.00  0.00    +0.000 A 
ATOM      2  C   UNL     1      46.058   6.181  11.047  0.00  0.00    +0.000 A 
ATOM      3  C   UNL     1      47.012   7.124  11.443  0.00  0.00    +0.000 A 
ATOM      4  C   UNL     1      47.747   6.937  12.617  0.00  0.00    +0.000 A 
ATOM      5  C   UNL     1      47.444   5.844  13.432  0.00  0.00    +0.000 A 
ATOM      6  C   UNL     1      46.458   4.932  13.064  0.00  0.00    +0.000 A 
ENDROOT
BRANCH   1   7
ATOM      7  C   UNL     1      44.642   4.096  11.451  0.00  0.00    +0.000 C 
BRANCH   7   8
ATOM      8  N   UNL     1      45.138   3.051  10.538  0.00  0.00    +0.000 NA
ATOM      9  H   UNL     1      44.782   2.147  10.852  0.00  0.00    +0.000 HD
BRANCH   8  10
ATOM     10  C   UNL     1      44.675   3.237   9.147  0.00  0.00    +0.000 C 
BRANCH  10  11
ATOM     11  C   UNL     1      45.633   2.637   8.140  0.00  0.00    +0.000 A 
ATOM     12  C   UNL     1      46.046   3.388   7.047  0.00  0.00    +0.000 A 
ATOM     13  C   UNL     1      47.004   2.851   6.196  0.00  0.00    +0.000 A 
ATOM     14  C   UNL     1      47.505   1.578   6.447  0.00  0.00    +0.000 A 
ATOM     15  C   UNL     1      47.015   0.883   7.538  0.00  0.00    +0.000 A 
ATOM     16  N   UNL     1      46.099   1.384   8.391  0.00  0.00    +0.000 NA
ENDBRANCH  10  11
ENDBRANCH   8  10
ENDBRANCH   7   8
BRANCH   7  17
ATOM     17  C   UNL     1      43.449   4.881  10.822  0.00  0.00    +0.000 C 
BRANCH  17  19
ATOM     18  C   UNL     1      42.775   5.146  13.224  0.00  0.00    +0.000 C 
ATOM     19  C   UNL     1      42.389   5.441  11.773  0.00  0.00    +0.000 C 
ENDBRANCH  17  19
ENDBRANCH   7  17
ENDBRANCH   1   7
BRANCH   4  20
ATOM     20  C   UNL     1      48.835   7.887  13.029  0.00  0.00    +0.000 C 
BRANCH  20  21
ATOM     21  N   UNL     1      49.827   7.242  13.846  0.00  0.00    +0.000 N 
ATOM     22  C   UNL     1      50.396   7.903  14.905  0.00  0.00    +0.000 C 
ATOM     23  O   UNL     1      50.060   9.042  15.221  0.00  0.00    +0.000 OA
ATOM     24  H   UNL     1      50.297   6.433  13.452  0.00  0.00    +0.000 HD
BRANCH  22  25
ATOM     25  C   UNL     1      51.379   7.149  15.690  0.00  0.00    +0.000 A 
ATOM     26  C   UNL     1      52.720   7.503  15.636  0.00  0.00    +0.000 A 
ATOM     27  S   UNL     1      53.715   6.566  16.655  0.00  0.00    +0.000 S 
ATOM     28  C   UNL     1      52.398   5.610  17.153  0.00  0.00    +0.000 A 
ATOM     29  N   UNL     1      52.570   4.581  18.026  0.00  0.00    +0.000 NA
ATOM     30  C   UNL     1      51.490   3.925  18.293  0.00  0.00    +0.000 A 
ATOM     31  N   UNL     1      50.252   4.209  17.776  0.00  0.00    +0.000 N 
ATOM     32  C   UNL     1      50.021   5.254  16.908  0.00  0.00    +0.000 A 
ATOM     33  O   UNL     1      48.905   5.497  16.481  0.00  0.00    +0.000 OA
ATOM     34  C   UNL     1      51.212   6.018  16.570  0.00  0.00    +0.000 A 
ATOM     35  H   UNL     1      49.441   3.663  18.029  0.00  0.00    +0.000 HD
ENDBRANCH  22  25
ENDBRANCH  20  21
ENDBRANCH   4  20
TORSDOF 9
ENDMDL
MODEL 5
REMARK VINA RESULT:    -7.225      4.870      6.261
REMARK INTER + INTRA:         -12.253
REMARK INTER:                 -10.791
REMARK INTRA:                  -1.462
REMARK UNBOUND:                -1.226
REMARK  Name = 
REMARK  10 active torsions:
REMARK  status: ('A' for Active; 'I' for Inactive)
REMARK    1  A    between atoms: C_1  and  C_2
REMARK    2  A    between atoms: C_2  and  C_3
REMARK    3  A    between atoms: C_3  and  C_4
REMARK    4  A    between atoms: C_4  and  N_5
REMARK    5  A    between atoms: C_4  and  C_13
REMARK    6  A    between atoms: N_5  and  C_6
REMARK    7  A    between atoms: C_6  and  C_7
REMARK    8  A    between atoms: C_16  and  C_17
REMARK    9  A    between atoms: C_17  and  N_18
REMARK   10  A    between atoms: C_19  and  C_21
REMARK                            x       y       z     vdW  Elec       q    Type
REMARK                         _______ _______ _______ _____ _____    ______ ____
ROOT
ATOM      1  C   UNL     1      45.619   6.575  11.464  0.00  0.00    +0.000 A 
ATOM      2  C   UNL     1      45.101   7.883  11.526  0.00  0.00    +0.000 A 
ATOM      3  C   UNL     1      45.844   8.929  12.082  0.00  0.00    +0.000 A 
ATOM      4  C   UNL     1      47.152   8.710  12.525  0.00  0.00    +0.000 A 
ATOM      5  C   UNL     1      47.665   7.411  12.489  0.00  0.00    +0.000 A 
ATOM      6  C   UNL     1      46.905   6.359  11.982  0.00  0.00    +0.000 A 
ENDROOT
BRANCH   1   7
ATOM      7  C   UNL     1      44.750   5.422  10.945  0.00  0.00    +0.000 C 
BRANCH   7   8
ATOM      8  N   UNL     1      45.092   5.079   9.553  0.00  0.00    +0.000 NA
ATOM      9  H   UNL     1      46.107   5.000   9.477  0.00  0.00    +0.000 HD
BRANCH   8  10
ATOM     10  C   UNL     1      44.525   3.783   9.126  0.00  0.00    +0.000 C 
BRANCH  10  11
ATOM     11  C   UNL     1      45.497   2.982   8.287  0.00  0.00    +0.000 A 
ATOM     12  C   UNL     1      46.239   3.614   7.296  0.00  0.00    +0.000 A 
ATOM     13  C   UNL     1      47.197   2.876   6.612  0.00  0.00    +0.000 A 
ATOM     14  C   UNL     1      47.374   1.532   6.920  0.00  0.00    +0.000 A 
ATOM     15  C   UNL     1      46.570   0.971   7.896  0.00  0.00    +0.000 A 
ATOM     16  N   UNL     1      45.644   1.664   8.589  0.00  0.00    +0.000 NA
ENDBRANCH  10  11
ENDBRANCH   8  10
ENDBRANCH   7   8
BRANCH   7  17
ATOM     17  C   UNL     1      43.237   5.778  11.089  0.00  0.00    +0.000 C 
BRANCH  17  19
ATOM     18  C   UNL     1      43.387   4.221  13.050  0.00  0.00    +0.000 C 
ATOM     19  C   UNL     1      42.456   5.111  12.223  0.00  0.00    +0.000 C 
ENDBRANCH  17  19
ENDBRANCH   7  17
ENDBRANCH   1   7
BRANCH   4  20
ATOM     20  C   UNL     1      48.006   9.827  13.052  0.00  0.00    +0.000 C 
BRANCH  20  21
ATOM     21  N   UNL     1      49.337   9.783  12.510  0.00  0.00    +0.000 N 
ATOM     22  C   UNL     1      49.618  10.366  11.301  0.00  0.00    +0.000 C 
ATOM     23  O   UNL     1      48.767  10.975  10.656  0.00  0.00    +0.000 OA
ATOM     24  H   UNL     1      49.966   9.078  12.882  0.00  0.00    +0.000 HD
BRANCH  22  25
ATOM     25  C   UNL     1      51.011  10.286  10.848  0.00  0.00    +0.000 A 
ATOM     26  C   UNL     1      51.702  11.450  10.541  0.00  0.00    +0.000 A 
ATOM     27  S   UNL     1      53.325  11.181  10.091  0.00  0.00    +0.000 S 
ATOM     28  C   UNL     1      53.140   9.495  10.226  0.00  0.00    +0.000 A 
ATOM     29  N   UNL     1      54.171   8.653   9.949  0.00  0.00    +0.000 NA
ATOM     30  C   UNL     1      53.882   7.400  10.067  0.00  0.00    +0.000 A 
ATOM     31  N   UNL     1      52.658   6.911  10.447  0.00  0.00    +0.000 N 
ATOM     32  C   UNL     1      51.589   7.722  10.762  0.00  0.00    +0.000 A 
ATOM     33  O   UNL     1      50.518   7.260  11.118  0.00  0.00    +0.000 OA
ATOM     34  C   UNL     1      51.866   9.144  10.635  0.00  0.00    +0.000 A 
ATOM     35  H   UNL     1      52.493   5.918  10.529  0.00  0.00    +0.000 HD
ENDBRANCH  22  25
ENDBRANCH  20  21
ENDBRANCH   4  20
TORSDOF 9
ENDMDL
MODEL 6
REMARK VINA RESULT:    -7.106      3.512      8.642
REMARK INTER + INTRA:         -12.070
REMARK INTER:                 -10.196
REMARK INTRA:                  -1.874
REMARK UNBOUND:                -1.226
REMARK  Name = 
REMARK  10 active torsions:
REMARK  status: ('A' for Active; 'I' for Inactive)
REMARK    1  A    between atoms: C_1  and  C_2
REMARK    2  A    between atoms: C_2  and  C_3
REMARK    3  A    between atoms: C_3  and  C_4
REMARK    4  A    between atoms: C_4  and  N_5
REMARK    5  A    between atoms: C_4  and  C_13
REMARK    6  A    between atoms: N_5  and  C_6
REMARK    7  A    between atoms: C_6  and  C_7
REMARK    8  A    between atoms: C_16  and  C_17
REMARK    9  A    between atoms: C_17  and  N_18
REMARK   10  A    between atoms: C_19  and  C_21
REMARK                            x       y       z     vdW  Elec       q    Type
REMARK                         _______ _______ _______ _____ _____    ______ ____
ROOT
ATOM      1  C   UNL     1      48.583   7.969  16.454  0.00  0.00    +0.000 A 
ATOM      2  C   UNL     1      48.886   6.821  15.698  0.00  0.00    +0.000 A 
ATOM      3  C   UNL     1      48.784   6.827  14.303  0.00  0.00    +0.000 A 
ATOM      4  C   UNL     1      48.445   8.002  13.624  0.00  0.00    +0.000 A 
ATOM      5  C   UNL     1      48.120   9.138  14.368  0.00  0.00    +0.000 A 
ATOM      6  C   UNL     1      48.172   9.118  15.760  0.00  0.00    +0.000 A 
ENDROOT
BRANCH   1   7
ATOM      7  C   UNL     1      48.602   7.912  17.987  0.00  0.00    +0.000 C 
BRANCH   7   8
ATOM      8  N   UNL     1      47.352   7.340  18.517  0.00  0.00    +0.000 NA
ATOM      9  H   UNL     1      46.753   7.082  17.732  0.00  0.00    +0.000 HD
BRANCH   8  10
ATOM     10  C   UNL     1      47.574   6.113  19.310  0.00  0.00    +0.000 C 
BRANCH  10  11
ATOM     11  C   UNL     1      47.928   4.926  18.441  0.00  0.00    +0.000 A 
ATOM     12  C   UNL     1      49.206   4.383  18.499  0.00  0.00    +0.000 A 
ATOM     13  C   UNL     1      49.472   3.232  17.769  0.00  0.00    +0.000 A 
ATOM     14  C   UNL     1      48.468   2.669  16.989  0.00  0.00    +0.000 A 
ATOM     15  C   UNL     1      47.233   3.291  16.960  0.00  0.00    +0.000 A 
ATOM     16  N   UNL     1      46.939   4.398  17.670  0.00  0.00    +0.000 NA
ENDBRANCH  10  11
ENDBRANCH   8  10
ENDBRANCH   7   8
BRANCH   7  17
ATOM     17  C   UNL     1      48.874   9.331  18.578  0.00  0.00    +0.000 C 
BRANCH  17  19
ATOM     18  C   UNL     1      47.085  10.940  19.287  0.00  0.00    +0.000 C 
ATOM     19  C   UNL     1      47.995   9.796  19.740  0.00  0.00    +0.000 C 
ENDBRANCH  17  19
ENDBRANCH   7  17
ENDBRANCH   1   7
BRANCH   4  20
ATOM     20  C   UNL     1      48.405   8.065  12.123  0.00  0.00    +0.000 C 
BRANCH  20  21
ATOM     21  N   UNL     1      47.694   6.949  11.561  0.00  0.00    +0.000 N 
ATOM     22  C   UNL     1      46.326   6.975  11.458  0.00  0.00    +0.000 C 
ATOM     23  O   UNL     1      45.663   7.951  11.801  0.00  0.00    +0.000 OA
ATOM     24  H   UNL     1      48.180   6.059  11.526  0.00  0.00    +0.000 HD
BRANCH  22  25
ATOM     25  C   UNL     1      45.697   5.798  10.848  0.00  0.00    +0.000 A 
ATOM     26  C   UNL     1      45.830   5.575   9.485  0.00  0.00    +0.000 A 
ATOM     27  S   UNL     1      45.092   4.133   8.954  0.00  0.00    +0.000 S 
ATOM     28  C   UNL     1      44.511   3.791  10.516  0.00  0.00    +0.000 A 
ATOM     29  N   UNL     1      43.760   2.683  10.757  0.00  0.00    +0.000 NA
ATOM     30  C   UNL     1      43.365   2.564  11.981  0.00  0.00    +0.000 A 
ATOM     31  N   UNL     1      43.660   3.446  12.989  0.00  0.00    +0.000 N 
ATOM     32  C   UNL     1      44.437   4.568  12.802  0.00  0.00    +0.000 A 
ATOM     33  O   UNL     1      44.701   5.324  13.722  0.00  0.00    +0.000 OA
ATOM     34  C   UNL     1      44.898   4.750  11.435  0.00  0.00    +0.000 A 
ATOM     35  H   UNL     1      43.328   3.294  13.930  0.00  0.00    +0.000 HD
ENDBRANCH  22  25
ENDBRANCH  20  21
ENDBRANCH   4  20
TORSDOF 9
ENDMDL
MODEL 7
REMARK VINA RESULT:    -7.026      3.240      9.027
REMARK INTER + INTRA:         -11.949
REMARK INTER:                 -10.022
REMARK INTRA:                  -1.927
REMARK UNBOUND:                -1.226
REMARK  Name = 
REMARK  10 active torsions:
REMARK  status: ('A' for Active; 'I' for Inactive)
REMARK    1  A    between atoms: C_1  and  C_2
REMARK    2  A    between atoms: C_2  and  C_3
REMARK    3  A    between atoms: C_3  and  C_4
REMARK    4  A    between atoms: C_4  and  N_5
REMARK    5  A    between atoms: C_4  and  C_13
REMARK    6  A    between atoms: N_5  and  C_6
REMARK    7  A    between atoms: C_6  and  C_7
REMARK    8  A    between atoms: C_16  and  C_17
REMARK    9  A    between atoms: C_17  and  N_18
REMARK   10  A    between atoms: C_19  and  C_21
REMARK                            x       y       z     vdW  Elec       q    Type
REMARK                         _______ _______ _______ _____ _____    ______ ____
ROOT
ATOM      1  C   UNL     1      48.848   8.087  16.227  0.00  0.00    +0.000 A 
ATOM      2  C   UNL     1      48.079   9.088  15.604  0.00  0.00    +0.000 A 
ATOM      3  C   UNL     1      47.756   9.011  14.245  0.00  0.00    +0.000 A 
ATOM      4  C   UNL     1      48.133   7.895  13.492  0.00  0.00    +0.000 A 
ATOM      5  C   UNL     1      48.916   6.909  14.097  0.00  0.00    +0.000 A 
ATOM      6  C   UNL     1      49.280   7.011  15.437  0.00  0.00    +0.000 A 
ENDROOT
BRANCH   1   7
ATOM      7  C   UNL     1      49.278   8.241  17.692  0.00  0.00    +0.000 C 
BRANCH   7   8
ATOM      8  N   UNL     1      50.010   7.052  18.162  0.00  0.00    +0.000 NA
ATOM      9  H   UNL     1      50.783   7.357  18.755  0.00  0.00    +0.000 HD
BRANCH   8  10
ATOM     10  C   UNL     1      49.172   6.148  18.977  0.00  0.00    +0.000 C 
BRANCH  10  11
ATOM     11  C   UNL     1      48.848   4.859  18.253  0.00  0.00    +0.000 A 
ATOM     12  C   UNL     1      47.580   4.667  17.717  0.00  0.00    +0.000 A 
ATOM     13  C   UNL     1      47.343   3.521  16.969  0.00  0.00    +0.000 A 
ATOM     14  C   UNL     1      48.364   2.594  16.793  0.00  0.00    +0.000 A 
ATOM     15  C   UNL     1      49.588   2.845  17.388  0.00  0.00    +0.000 A 
ATOM     16  N   UNL     1      49.854   3.955  18.106  0.00  0.00    +0.000 NA
ENDBRANCH  10  11
ENDBRANCH   8  10
ENDBRANCH   7   8
BRANCH   7  17
ATOM     17  C   UNL     1      48.039   8.539  18.592  0.00  0.00    +0.000 C 
BRANCH  17  19
ATOM     18  C   UNL     1      46.943  10.519  19.675  0.00  0.00    +0.000 C 
ATOM     19  C   UNL     1      48.184   9.623  19.662  0.00  0.00    +0.000 C 
ENDBRANCH  17  19
ENDBRANCH   7  17
ENDBRANCH   1   7
BRANCH   4  20
ATOM     20  C   UNL     1      47.733   7.742  12.052  0.00  0.00    +0.000 C 
BRANCH  20  21
ATOM     21  N   UNL     1      47.023   6.513  11.823  0.00  0.00    +0.000 N 
ATOM     22  C   UNL     1      45.658   6.462  11.943  0.00  0.00    +0.000 C 
ATOM     23  O   UNL     1      44.989   7.457  12.210  0.00  0.00    +0.000 OA
ATOM     24  H   UNL     1      47.560   5.652  11.868  0.00  0.00    +0.000 HD
BRANCH  22  25
ATOM     25  C   UNL     1      45.027   5.167  11.666  0.00  0.00    +0.000 A 
ATOM     26  C   UNL     1      44.351   4.500  12.678  0.00  0.00    +0.000 A 
ATOM     27  S   UNL     1      43.626   3.043  12.169  0.00  0.00    +0.000 S 
ATOM     28  C   UNL     1      44.247   3.220  10.594  0.00  0.00    +0.000 A 
ATOM     29  N   UNL     1      44.012   2.281   9.639  0.00  0.00    +0.000 NA
ATOM     30  C   UNL     1      44.566   2.532   8.500  0.00  0.00    +0.000 A 
ATOM     31  N   UNL     1      45.325   3.640   8.225  0.00  0.00    +0.000 N 
ATOM     32  C   UNL     1      45.572   4.632   9.149  0.00  0.00    +0.000 A 
ATOM     33  O   UNL     1      46.233   5.618   8.869  0.00  0.00    +0.000 OA
ATOM     34  C   UNL     1      44.975   4.389  10.453  0.00  0.00    +0.000 A 
ATOM     35  H   UNL     1      45.727   3.785   7.309  0.00  0.00    +0.000 HD
ENDBRANCH  22  25
ENDBRANCH  20  21
ENDBRANCH   4  20
TORSDOF 9
ENDMDL
MODEL 8
REMARK VINA RESULT:    -6.992      3.712      5.508
REMARK INTER + INTRA:         -11.896
REMARK INTER:                 -10.437
REMARK INTRA:                  -1.459
REMARK UNBOUND:                -1.226
REMARK  Name = 
REMARK  10 active torsions:
REMARK  status: ('A' for Active; 'I' for Inactive)
REMARK    1  A    between atoms: C_1  and  C_2
REMARK    2  A    between atoms: C_2  and  C_3
REMARK    3  A    between atoms: C_3  and  C_4
REMARK    4  A    between atoms: C_4  and  N_5
REMARK    5  A    between atoms: C_4  and  C_13
REMARK    6  A    between atoms: N_5  and  C_6
REMARK    7  A    between atoms: C_6  and  C_7
REMARK    8  A    between atoms: C_16  and  C_17
REMARK    9  A    between atoms: C_17  and  N_18
REMARK   10  A    between atoms: C_19  and  C_21
REMARK                            x       y       z     vdW  Elec       q    Type
REMARK                         _______ _______ _______ _____ _____    ______ ____
ROOT
ATOM      1  C   UNL     1      45.870   6.011  11.929  0.00  0.00    +0.000 A 
ATOM      2  C   UNL     1      46.678   5.387  12.899  0.00  0.00    +0.000 A 
ATOM      3  C   UNL     1      47.550   6.132  13.700  0.00  0.00    +0.000 A 
ATOM      4  C   UNL     1      47.585   7.526  13.601  0.00  0.00    +0.000 A 
ATOM      5  C   UNL     1      46.804   8.150  12.625  0.00  0.00    +0.000 A 
ATOM      6  C   UNL     1      45.973   7.404  11.793  0.00  0.00    +0.000 A 
ENDROOT
BRANCH   1   7
ATOM      7  C   UNL     1      44.996   5.167  10.991  0.00  0.00    +0.000 C 
BRANCH   7   8
ATOM      8  N   UNL     1      45.498   5.215   9.606  0.00  0.00    +0.000 NA
ATOM      9  H   UNL     1      46.474   4.919   9.602  0.00  0.00    +0.000 HD
BRANCH   8  10
ATOM     10  C   UNL     1      44.768   4.304   8.700  0.00  0.00    +0.000 C 
BRANCH  10  11
ATOM     11  C   UNL     1      45.679   3.273   8.069  0.00  0.00    +0.000 A 
ATOM     12  C   UNL     1      46.609   3.666   7.114  0.00  0.00    +0.000 A 
ATOM     13  C   UNL     1      47.501   2.718   6.628  0.00  0.00    +0.000 A 
ATOM     14  C   UNL     1      47.428   1.408   7.090  0.00  0.00    +0.000 A 
ATOM     15  C   UNL     1      46.449   1.093   8.017  0.00  0.00    +0.000 A 
ATOM     16  N   UNL     1      45.581   1.993   8.519  0.00  0.00    +0.000 NA
ENDBRANCH  10  11
ENDBRANCH   8  10
ENDBRANCH   7   8
BRANCH   7  17
ATOM     17  C   UNL     1      43.509   5.631  11.075  0.00  0.00    +0.000 C 
BRANCH  17  19
ATOM     18  C   UNL     1      43.360   3.921  12.904  0.00  0.00    +0.000 C 
ATOM     19  C   UNL     1      42.672   5.121  12.249  0.00  0.00    +0.000 C 
ENDBRANCH  17  19
ENDBRANCH   7  17
ENDBRANCH   1   7
BRANCH   4  20
ATOM     20  C   UNL     1      48.450   8.361  14.501  0.00  0.00    +0.000 C 
BRANCH  20  21
ATOM     21  N   UNL     1      49.692   8.716  13.870  0.00  0.00    +0.000 N 
ATOM     22  C   UNL     1      50.869   8.138  14.273  0.00  0.00    +0.000 C 
ATOM     23  O   UNL     1      50.908   7.278  15.149  0.00  0.00    +0.000 OA
ATOM     24  H   UNL     1      49.716   9.589  13.353  0.00  0.00    +0.000 HD
BRANCH  22  25
ATOM     25  C   UNL     1      52.077   8.551  13.550  0.00  0.00    +0.000 A 
ATOM     26  C   UNL     1      53.149   9.088  14.250  0.00  0.00    +0.000 A 
ATOM     27  S   UNL     1      54.492   9.454  13.266  0.00  0.00    +0.000 S 
ATOM     28  C   UNL     1      53.663   8.970  11.860  0.00  0.00    +0.000 A 
ATOM     29  N   UNL     1      54.251   9.054  10.637  0.00  0.00    +0.000 NA
ATOM     30  C   UNL     1      53.497   8.679   9.658  0.00  0.00    +0.000 A 
ATOM     31  N   UNL     1      52.212   8.218   9.790  0.00  0.00    +0.000 N 
ATOM     32  C   UNL     1      51.581   8.091  11.008  0.00  0.00    +0.000 A 
ATOM     33  O   UNL     1      50.444   7.657  11.097  0.00  0.00    +0.000 OA
ATOM     34  C   UNL     1      52.389   8.511  12.142  0.00  0.00    +0.000 A 
ATOM     35  H   UNL     1      51.674   7.932   8.985  0.00  0.00    +0.000 HD
ENDBRANCH  22  25
ENDBRANCH  20  21
ENDBRANCH   4  20
TORSDOF 9
ENDMDL
MODEL 9
REMARK VINA RESULT:    -6.952      4.723      9.719
REMARK INTER + INTRA:         -11.835
REMARK INTER:                 -10.379
REMARK INTRA:                  -1.456
REMARK UNBOUND:                -1.226
REMARK  Name = 
REMARK  10 active torsions:
REMARK  status: ('A' for Active; 'I' for Inactive)
REMARK    1  A    between atoms: C_1  and  C_2
REMARK    2  A    between atoms: C_2  and  C_3
REMARK    3  A    between atoms: C_3  and  C_4
REMARK    4  A    between atoms: C_4  and  N_5
REMARK    5  A    between atoms: C_4  and  C_13
REMARK    6  A    between atoms: N_5  and  C_6
REMARK    7  A    between atoms: C_6  and  C_7
REMARK    8  A    between atoms: C_16  and  C_17
REMARK    9  A    between atoms: C_17  and  N_18
REMARK   10  A    between atoms: C_19  and  C_21
REMARK                            x       y       z     vdW  Elec       q    Type
REMARK                         _______ _______ _______ _____ _____    ______ ____
ROOT
ATOM      1  C   UNL     1      51.443   3.631  17.961  0.00  0.00    +0.000 A 
ATOM      2  C   UNL     1      50.595   4.750  18.050  0.00  0.00    +0.000 A 
ATOM      3  C   UNL     1      49.262   4.682  17.634  0.00  0.00    +0.000 A 
ATOM      4  C   UNL     1      48.722   3.473  17.184  0.00  0.00    +0.000 A 
ATOM      5  C   UNL     1      49.564   2.363  17.071  0.00  0.00    +0.000 A 
ATOM      6  C   UNL     1      50.905   2.445  17.437  0.00  0.00    +0.000 A 
ENDROOT
BRANCH   1   7
ATOM      7  C   UNL     1      52.929   3.754  18.327  0.00  0.00    +0.000 C 
BRANCH   7   8
ATOM      8  N   UNL     1      53.305   2.782  19.369  0.00  0.00    +0.000 NA
ATOM      9  H   UNL     1      52.657   1.995  19.330  0.00  0.00    +0.000 HD
BRANCH   8  10
ATOM     10  C   UNL     1      54.663   2.233  19.177  0.00  0.00    +0.000 C 
BRANCH  10  11
ATOM     11  C   UNL     1      54.646   0.902  18.456  0.00  0.00    +0.000 A 
ATOM     12  C   UNL     1      54.869   0.856  17.085  0.00  0.00    +0.000 A 
ATOM     13  C   UNL     1      54.949  -0.386  16.468  0.00  0.00    +0.000 A 
ATOM     14  C   UNL     1      54.787  -1.540  17.227  0.00  0.00    +0.000 A 
ATOM     15  C   UNL     1      54.534  -1.405  18.580  0.00  0.00    +0.000 A 
ATOM     16  N   UNL     1      54.467  -0.215  19.211  0.00  0.00    +0.000 NA
ENDBRANCH  10  11
ENDBRANCH   8  10
ENDBRANCH   7   8
BRANCH   7  17
ATOM     17  C   UNL     1      53.259   5.215  18.764  0.00  0.00    +0.000 C 
BRANCH  17  19
ATOM     18  C   UNL     1      53.781   6.051  16.456  0.00  0.00    +0.000 C 
ATOM     19  C   UNL     1      54.256   6.002  17.910  0.00  0.00    +0.000 C 
ENDBRANCH  17  19
ENDBRANCH   7  17
ENDBRANCH   1   7
BRANCH   4  20
ATOM     20  C   UNL     1      47.274   3.344  16.806  0.00  0.00    +0.000 C 
BRANCH  20  21
ATOM     21  N   UNL     1      46.871   4.367  15.880  0.00  0.00    +0.000 N 
ATOM     22  C   UNL     1      46.912   4.140  14.528  0.00  0.00    +0.000 C 
ATOM     23  O   UNL     1      47.252   3.057  14.058  0.00  0.00    +0.000 OA
ATOM     24  H   UNL     1      46.849   5.322  16.224  0.00  0.00    +0.000 HD
BRANCH  22  25
ATOM     25  C   UNL     1      46.458   5.238  13.669  0.00  0.00    +0.000 A 
ATOM     26  C   UNL     1      47.270   6.348  13.484  0.00  0.00    +0.000 A 
ATOM     27  S   UNL     1      46.618   7.500  12.408  0.00  0.00    +0.000 S 
ATOM     28  C   UNL     1      45.197   6.586  12.205  0.00  0.00    +0.000 A 
ATOM     29  N   UNL     1      44.188   7.028  11.409  0.00  0.00    +0.000 NA
ATOM     30  C   UNL     1      43.160   6.247  11.369  0.00  0.00    +0.000 A 
ATOM     31  N   UNL     1      43.053   5.059  12.045  0.00  0.00    +0.000 N 
ATOM     32  C   UNL     1      44.056   4.555  12.844  0.00  0.00    +0.000 A 
ATOM     33  O   UNL     1      43.941   3.484  13.416  0.00  0.00    +0.000 OA
ATOM     34  C   UNL     1      45.232   5.406  12.927  0.00  0.00    +0.000 A 
ATOM     35  H   UNL     1      42.224   4.486  11.968  0.00  0.00    +0.000 HD
ENDBRANCH  22  25
ENDBRANCH  20  21
ENDBRANCH   4  20
TORSDOF 9
ENDMDL
