MODEL 1
REMARK VINA RESULT:    -6.784      0.000      0.000
REMARK INTER + INTRA:         -10.168
REMARK INTER:                  -9.560
REMARK INTRA:                  -0.608
REMARK UNBOUND:                -0.608
REMARK  Name = 
REMARK  10 active torsions:
REMARK  status: ('A' for Active; 'I' for Inactive)
REMARK    1  A    between atoms: C_1  and  C_2
REMARK    2  A    between atoms: C_2  and  C_3
REMARK    3  A    between atoms: C_2  and  C_4
REMARK    4  A    between atoms: C_2  and  O_5
REMARK    5  A    between atoms: O_5  and  C_6
REMARK    6  A    between atoms: C_6  and  C_8
REMARK    7  A    between atoms: C_11  and  O_12
REMARK    8  A    between atoms: O_12  and  C_13
REMARK    9  A    between atoms: C_13  and  C_14
REMARK   10  A    between atoms: C_19  and  C_20
REMARK                            x       y       z     vdW  Elec       q    Type
REMARK                         _______ _______ _______ _____ _____    ______ ____
ROOT
ATOM      1  C   UNL     1      46.994   4.436  15.018  0.00  0.00    +0.000 C 
ENDROOT
BRANCH   1   2
ATOM      2  C   UNL     1      46.786   5.118  13.683  0.00  0.00    +0.000 A 
ATOM      3  C   UNL     1      47.679   6.085  13.216  0.00  0.00    +0.000 A 
ATOM      4  C   UNL     1      47.421   6.732  12.012  0.00  0.00    +0.000 A 
ATOM      5  F   UNL     1      48.270   7.672  11.577  0.00  0.00    +0.000 F 
ATOM      6  C   UNL     1      46.296   6.423  11.249  0.00  0.00    +0.000 A 
ATOM      7  C   UNL     1      45.389   5.441  11.680  0.00  0.00    +0.000 A 
ATOM      8  C   UNL     1      45.636   4.841  12.924  0.00  0.00    +0.000 A 
BRANCH   7   9
ATOM      9  C   UNL     1      44.170   5.093  10.823  0.00  0.00    +0.000 C 
ATOM     10  C   UNL     1      43.042   4.322  11.543  0.00  0.00    +0.000 C 
ATOM     11  C   UNL     1      43.404   2.852  11.788  0.00  0.00    +0.000 C 
ATOM     12  N   UNL     1      43.755   2.162  10.548  0.00  0.00    +0.000 NA
ATOM     13  C   UNL     1      44.865   2.835   9.871  0.00  0.00    +0.000 C 
ATOM     14  C   UNL     1      44.538   4.295   9.554  0.00  0.00    +0.000 C 
ATOM     15  H   UNL     1      42.943   2.151   9.932  0.00  0.00    +0.000 HD
ENDBRANCH   7   9
ENDBRANCH   1   2
BRANCH   1  16
ATOM     16  O   UNL     1      48.306   4.733  15.517  0.00  0.00    +0.000 OA
BRANCH  16  20
ATOM     17  C   UNL     1      48.360   5.730  19.517  0.00  0.00    +0.000 A 
ATOM     18  C   UNL     1      49.512   5.897  18.747  0.00  0.00    +0.000 A 
ATOM     19  C   UNL     1      49.486   5.540  17.395  0.00  0.00    +0.000 A 
ATOM     20  C   UNL     1      48.303   5.056  16.856  0.00  0.00    +0.000 A 
ATOM     21  N   UNL     1      47.180   4.866  17.578  0.00  0.00    +0.000 NA
ATOM     22  C   UNL     1      47.236   5.201  18.890  0.00  0.00    +0.000 A 
BRANCH  17  23
ATOM     23  C   UNL     1      48.244   6.084  20.947  0.00  0.00    +0.000 C 
ATOM     24  O   UNL     1      48.939   5.550  21.796  0.00  0.00    +0.000 OA
BRANCH  23  25
ATOM     25  O   UNL     1      47.296   7.031  21.153  0.00  0.00    +0.000 OA
BRANCH  25  27
ATOM     26  C   UNL     1      47.259   8.944  19.594  0.00  0.00    +0.000 C 
ATOM     27  C   UNL     1      47.642   8.436  20.991  0.00  0.00    +0.000 C 
ATOM     28  C   UNL     1      49.123   8.684  21.307  0.00  0.00    +0.000 C 
ATOM     29  C   UNL     1      46.797   9.195  22.026  0.00  0.00    +0.000 C 
ENDBRANCH  25  27
ENDBRANCH  23  25
ENDBRANCH  17  23
ENDBRANCH  16  20
ENDBRANCH   1  16
TORSDOF 7
ENDMDL
MODEL 2
REMARK VINA RESULT:    -6.491      2.007      2.575
REMARK INTER + INTRA:          -9.755
REMARK INTER:                  -8.829
REMARK INTRA:                  -0.926
REMARK UNBOUND:                -0.608
REMARK  Name = 
REMARK  10 active torsions:
REMARK  status: ('A' for Active; 'I' for Inactive)
REMARK    1  A    between atoms: C_1  and  C_2
REMARK    2  A    between atoms: C_2  and  C_3
REMARK    3  A    between atoms: C_2  and  C_4
REMARK    4  A    between atoms: C_2  and  O_5
REMARK    5  A    between atoms: O_5  and  C_6
REMARK    6  A    between atoms: C_6  and  C_8
REMARK    7  A    between atoms: C_11  and  O_12
REMARK    8  A    between atoms: O_12  and  C_13
REMARK    9  A    between atoms: C_13  and  C_14
REMARK   10  A    between atoms: C_19  and  C_20
REMARK                            x       y       z     vdW  Elec       q    Type
REMARK                         _______ _______ _______ _____ _____    ______ ____
ROOT
ATOM      1  C   UNL     1      48.921   7.054  12.979  0.00  0.00    +0.000 C 
ENDROOT
BRANCH   1   2
ATOM      2  C   UNL     1      47.517   7.347  12.494  0.00  0.00    +0.000 A 
ATOM      3  C   UNL     1      46.964   8.624  12.605  0.00  0.00    +0.000 A 
ATOM      4  C   UNL     1      45.650   8.839  12.204  0.00  0.00    +0.000 A 
ATOM      5  F   UNL     1      45.117  10.062  12.329  0.00  0.00    +0.000 F 
ATOM      6  C   UNL     1      44.875   7.808  11.675  0.00  0.00    +0.000 A 
ATOM      7  C   UNL     1      45.407   6.516  11.531  0.00  0.00    +0.000 A 
ATOM      8  C   UNL     1      46.715   6.307  11.994  0.00  0.00    +0.000 A 
BRANCH   7   9
ATOM      9  C   UNL     1      44.556   5.398  10.927  0.00  0.00    +0.000 C 
ATOM     10  C   UNL     1      43.115   5.284  11.472  0.00  0.00    +0.000 C 
ATOM     11  C   UNL     1      43.070   4.682  12.881  0.00  0.00    +0.000 C 
ATOM     12  N   UNL     1      43.719   3.374  12.939  0.00  0.00    +0.000 NA
ATOM     13  C   UNL     1      45.109   3.460  12.486  0.00  0.00    +0.000 C 
ATOM     14  C   UNL     1      45.211   4.007  11.061  0.00  0.00    +0.000 C 
ATOM     15  H   UNL     1      43.210   2.724  12.340  0.00  0.00    +0.000 HD
ENDBRANCH   7   9
ENDBRANCH   1   2
BRANCH   1  16
ATOM     16  O   UNL     1      49.238   7.903  14.091  0.00  0.00    +0.000 OA
BRANCH  16  20
ATOM     17  C   UNL     1      48.396   6.200  17.749  0.00  0.00    +0.000 A 
ATOM     18  C   UNL     1      48.533   7.585  17.646  0.00  0.00    +0.000 A 
ATOM     19  C   UNL     1      48.835   8.149  16.403  0.00  0.00    +0.000 A 
ATOM     20  C   UNL     1      48.962   7.312  15.304  0.00  0.00    +0.000 A 
ATOM     21  N   UNL     1      48.853   5.970  15.375  0.00  0.00    +0.000 NA
ATOM     22  C   UNL     1      48.580   5.446  16.594  0.00  0.00    +0.000 A 
BRANCH  17  23
ATOM     23  C   UNL     1      48.061   5.477  18.993  0.00  0.00    +0.000 C 
ATOM     24  O   UNL     1      48.387   4.313  19.165  0.00  0.00    +0.000 OA
BRANCH  23  25
ATOM     25  O   UNL     1      47.369   6.260  19.857  0.00  0.00    +0.000 OA
BRANCH  25  27
ATOM     26  C   UNL     1      49.463   6.677  21.093  0.00  0.00    +0.000 C 
ATOM     27  C   UNL     1      47.935   6.555  21.165  0.00  0.00    +0.000 C 
ATOM     28  C   UNL     1      47.490   5.523  22.210  0.00  0.00    +0.000 C 
ATOM     29  C   UNL     1      47.363   7.923  21.568  0.00  0.00    +0.000 C 
ENDBRANCH  25  27
ENDBRANCH  23  25
ENDBRANCH  17  23
ENDBRANCH  16  20
ENDBRANCH   1  16
TORSDOF 7
ENDMDL
MODEL 3
REMARK VINA RESULT:    -6.479      3.182      4.099
REMARK INTER + INTRA:          -9.737
REMARK INTER:                  -9.293
REMARK INTRA:                  -0.444
REMARK UNBOUND:                -0.608
REMARK  Name = 
REMARK  10 active torsions:
REMARK  status: ('A' for Active; 'I' for Inactive)
REMARK    1  A    between atoms: C_1  and  C_2
REMARK    2  A    between atoms: C_2  and  C_3
REMARK    3  A    between atoms: C_2  and  C_4
REMARK    4  A    between atoms: C_2  and  O_5
REMARK    5  A    between atoms: O_5  and  C_6
REMARK    6  A    between atoms: C_6  and  C_8
REMARK    7  A    between atoms: C_11  and  O_12
REMARK    8  A    between atoms: O_12  and  C_13
REMARK    9  A    between atoms: C_13  and  C_14
REMARK   10  A    between atoms: C_19  and  C_20
REMARK                            x       y       z     vdW  Elec       q    Type
REMARK                         _______ _______ _______ _____ _____    ______ ____
ROOT
ATOM      1  C   UNL     1      47.103   4.000  15.148  0.00  0.00    +0.000 C 
ENDROOT
BRANCH   1   2
ATOM      2  C   UNL     1      46.884   4.851  13.915  0.00  0.00    +0.000 A 
ATOM      3  C   UNL     1      47.750   5.898  13.594  0.00  0.00    +0.000 A 
ATOM      4  C   UNL     1      47.481   6.696  12.487  0.00  0.00    +0.000 A 
ATOM      5  F   UNL     1      48.305   7.710  12.192  0.00  0.00    +0.000 F 
ATOM      6  C   UNL     1      46.370   6.462  11.678  0.00  0.00    +0.000 A 
ATOM      7  C   UNL     1      45.489   5.406  11.962  0.00  0.00    +0.000 A 
ATOM      8  C   UNL     1      45.747   4.649  13.114  0.00  0.00    +0.000 A 
BRANCH   7   9
ATOM      9  C   UNL     1      44.286   5.144  11.053  0.00  0.00    +0.000 C 
ATOM     10  C   UNL     1      43.174   4.256  11.653  0.00  0.00    +0.000 C 
ATOM     11  C   UNL     1      43.573   2.777  11.704  0.00  0.00    +0.000 C 
ATOM     12  N   UNL     1      43.951   2.266  10.388  0.00  0.00    +0.000 NA
ATOM     13  C   UNL     1      45.048   3.051   9.817  0.00  0.00    +0.000 C 
ATOM     14  C   UNL     1      44.684   4.531   9.694  0.00  0.00    +0.000 C 
ATOM     15  H   UNL     1      43.143   2.317   9.767  0.00  0.00    +0.000 HD
ENDBRANCH   7   9
ENDBRANCH   1   2
BRANCH   1  16
ATOM     16  O   UNL     1      47.642   4.805  16.205  0.00  0.00    +0.000 OA
BRANCH  16  20
ATOM     17  C   UNL     1      51.179   3.259  17.654  0.00  0.00    +0.000 A 
ATOM     18  C   UNL     1      50.094   2.411  17.427  0.00  0.00    +0.000 A 
ATOM     19  C   UNL     1      48.895   2.949  16.951  0.00  0.00    +0.000 A 
ATOM     20  C   UNL     1      48.832   4.311  16.693  0.00  0.00    +0.000 A 
ATOM     21  N   UNL     1      49.856   5.159  16.918  0.00  0.00    +0.000 NA
ATOM     22  C   UNL     1      51.001   4.615  17.398  0.00  0.00    +0.000 A 
BRANCH  17  23
ATOM     23  C   UNL     1      52.505   2.821  18.134  0.00  0.00    +0.000 C 
ATOM     24  O   UNL     1      52.709   1.672  18.492  0.00  0.00    +0.000 OA
BRANCH  23  25
ATOM     25  O   UNL     1      53.403   3.838  18.124  0.00  0.00    +0.000 OA
BRANCH  25  27
ATOM     26  C   UNL     1      53.024   4.070  20.551  0.00  0.00    +0.000 C 
ATOM     27  C   UNL     1      53.990   4.286  19.378  0.00  0.00    +0.000 C 
ATOM     28  C   UNL     1      54.461   5.744  19.282  0.00  0.00    +0.000 C 
ATOM     29  C   UNL     1      55.223   3.397  19.603  0.00  0.00    +0.000 C 
ENDBRANCH  25  27
ENDBRANCH  23  25
ENDBRANCH  17  23
ENDBRANCH  16  20
ENDBRANCH   1  16
TORSDOF 7
ENDMDL
MODEL 4
REMARK VINA RESULT:    -6.344      3.697      8.089
REMARK INTER + INTRA:          -9.547
REMARK INTER:                  -8.738
REMARK INTRA:                  -0.809
REMARK UNBOUND:                -0.608
REMARK  Name = 
REMARK  10 active torsions:
REMARK  status: ('A' for Active; 'I' for Inactive)
REMARK    1  A    between atoms: C_1  and  C_2
REMARK    2  A    between atoms: C_2  and  C_3
REMARK    3  A    between atoms: C_2  and  C_4
REMARK    4  A    between atoms: C_2  and  O_5
REMARK    5  A    between atoms: O_5  and  C_6
REMARK    6  A    between atoms: C_6  and  C_8
REMARK    7  A    between atoms: C_11  and  O_12
REMARK    8  A    between atoms: O_12  and  C_13
REMARK    9  A    between atoms: C_13  and  C_14
REMARK   10  A    between atoms: C_19  and  C_20
REMARK                            x       y       z     vdW  Elec       q    Type
REMARK                         _______ _______ _______ _____ _____    ______ ____
ROOT
ATOM      1  C   UNL     1      48.909   8.588  15.386  0.00  0.00    +0.000 C 
ENDROOT
BRANCH   1   2
ATOM      2  C   UNL     1      49.820   7.533  15.973  0.00  0.00    +0.000 A 
ATOM      3  C   UNL     1      51.181   7.494  15.661  0.00  0.00    +0.000 A 
ATOM      4  C   UNL     1      51.974   6.472  16.174  0.00  0.00    +0.000 A 
ATOM      5  F   UNL     1      53.274   6.429  15.857  0.00  0.00    +0.000 F 
ATOM      6  C   UNL     1      51.441   5.491  17.009  0.00  0.00    +0.000 A 
ATOM      7  C   UNL     1      50.081   5.512  17.358  0.00  0.00    +0.000 A 
ATOM      8  C   UNL     1      49.287   6.517  16.786  0.00  0.00    +0.000 A 
BRANCH   7   9
ATOM      9  C   UNL     1      49.513   4.444  18.295  0.00  0.00    +0.000 C 
ATOM     10  C   UNL     1      49.306   3.047  17.671  0.00  0.00    +0.000 C 
ATOM     11  C   UNL     1      48.093   3.000  16.734  0.00  0.00    +0.000 C 
ATOM     12  N   UNL     1      46.866   3.423  17.405  0.00  0.00    +0.000 NA
ATOM     13  C   UNL     1      47.009   4.772  17.956  0.00  0.00    +0.000 C 
ATOM     14  C   UNL     1      48.175   4.864  18.941  0.00  0.00    +0.000 C 
ATOM     15  H   UNL     1      46.660   2.771  18.162  0.00  0.00    +0.000 HD
ENDBRANCH   7   9
ENDBRANCH   1   2
BRANCH   1  16
ATOM     16  O   UNL     1      49.047   8.609  13.958  0.00  0.00    +0.000 OA
BRANCH  16  20
ATOM     17  C   UNL     1      45.789   7.014  11.999  0.00  0.00    +0.000 A 
ATOM     18  C   UNL     1      47.071   6.549  11.700  0.00  0.00    +0.000 A 
ATOM     19  C   UNL     1      48.169   7.109  12.360  0.00  0.00    +0.000 A 
ATOM     20  C   UNL     1      47.944   8.093  13.312  0.00  0.00    +0.000 A 
ATOM     21  N   UNL     1      46.721   8.575  13.609  0.00  0.00    +0.000 NA
ATOM     22  C   UNL     1      45.674   8.030  12.942  0.00  0.00    +0.000 A 
BRANCH  17  23
ATOM     23  C   UNL     1      44.544   6.498  11.393  0.00  0.00    +0.000 C 
ATOM     24  O   UNL     1      43.554   7.201  11.268  0.00  0.00    +0.000 OA
BRANCH  23  25
ATOM     25  O   UNL     1      44.666   5.198  11.027  0.00  0.00    +0.000 OA
BRANCH  25  27
ATOM     26  C   UNL     1      43.287   4.697  13.012  0.00  0.00    +0.000 C 
ATOM     27  C   UNL     1      44.259   4.153  11.956  0.00  0.00    +0.000 C 
ATOM     28  C   UNL     1      45.477   3.470  12.593  0.00  0.00    +0.000 C 
ATOM     29  C   UNL     1      43.513   3.111  11.109  0.00  0.00    +0.000 C 
ENDBRANCH  25  27
ENDBRANCH  23  25
ENDBRANCH  17  23
ENDBRANCH  16  20
ENDBRANCH   1  16
TORSDOF 7
ENDMDL
MODEL 5
REMARK VINA RESULT:    -6.330      3.261      8.732
REMARK INTER + INTRA:          -9.527
REMARK INTER:                  -8.843
REMARK INTRA:                  -0.685
REMARK UNBOUND:                -0.608
REMARK  Name = 
REMARK  10 active torsions:
REMARK  status: ('A' for Active; 'I' for Inactive)
REMARK    1  A    between atoms: C_1  and  C_2
REMARK    2  A    between atoms: C_2  and  C_3
REMARK    3  A    between atoms: C_2  and  C_4
REMARK    4  A    between atoms: C_2  and  O_5
REMARK    5  A    between atoms: O_5  and  C_6
REMARK    6  A    between atoms: C_6  and  C_8
REMARK    7  A    between atoms: C_11  and  O_12
REMARK    8  A    between atoms: O_12  and  C_13
REMARK    9  A    between atoms: C_13  and  C_14
REMARK   10  A    between atoms: C_19  and  C_20
REMARK                            x       y       z     vdW  Elec       q    Type
REMARK                         _______ _______ _______ _____ _____    ______ ____
ROOT
ATOM      1  C   UNL     1      48.887   8.535  15.213  0.00  0.00    +0.000 C 
ENDROOT
BRANCH   1   2
ATOM      2  C   UNL     1      48.767   8.207  16.686  0.00  0.00    +0.000 A 
ATOM      3  C   UNL     1      47.953   8.963  17.533  0.00  0.00    +0.000 A 
ATOM      4  C   UNL     1      47.916   8.667  18.892  0.00  0.00    +0.000 A 
ATOM      5  F   UNL     1      47.147   9.406  19.703  0.00  0.00    +0.000 F 
ATOM      6  C   UNL     1      48.663   7.619  19.426  0.00  0.00    +0.000 A 
ATOM      7  C   UNL     1      49.477   6.828  18.600  0.00  0.00    +0.000 A 
ATOM      8  C   UNL     1      49.544   7.177  17.243  0.00  0.00    +0.000 A 
BRANCH   7   9
ATOM      9  C   UNL     1      50.274   5.665  19.194  0.00  0.00    +0.000 C 
ATOM     10  C   UNL     1      50.212   4.338  18.406  0.00  0.00    +0.000 C 
ATOM     11  C   UNL     1      48.867   3.622  18.574  0.00  0.00    +0.000 C 
ATOM     12  N   UNL     1      48.552   3.371  19.979  0.00  0.00    +0.000 NA
ATOM     13  C   UNL     1      48.542   4.620  20.743  0.00  0.00    +0.000 C 
ATOM     14  C   UNL     1      49.882   5.353  20.654  0.00  0.00    +0.000 C 
ATOM     15  H   UNL     1      49.254   2.744  20.370  0.00  0.00    +0.000 HD
ENDBRANCH   7   9
ENDBRANCH   1   2
BRANCH   1  16
ATOM     16  O   UNL     1      49.298   7.368  14.488  0.00  0.00    +0.000 OA
BRANCH  16  20
ATOM     17  C   UNL     1      46.094   5.128  13.180  0.00  0.00    +0.000 A 
ATOM     18  C   UNL     1      46.250   6.440  12.730  0.00  0.00    +0.000 A 
ATOM     19  C   UNL     1      47.332   7.195  13.193  0.00  0.00    +0.000 A 
ATOM     20  C   UNL     1      48.233   6.603  14.067  0.00  0.00    +0.000 A 
ATOM     21  N   UNL     1      48.099   5.345  14.534  0.00  0.00    +0.000 NA
ATOM     22  C   UNL     1      47.032   4.641  14.085  0.00  0.00    +0.000 A 
BRANCH  17  23
ATOM     23  C   UNL     1      45.012   4.216  12.758  0.00  0.00    +0.000 C 
ATOM     24  O   UNL     1      44.012   4.050  13.438  0.00  0.00    +0.000 OA
BRANCH  23  25
ATOM     25  O   UNL     1      45.291   3.622  11.571  0.00  0.00    +0.000 OA
BRANCH  25  27
ATOM     26  C   UNL     1      45.599   4.959   9.520  0.00  0.00    +0.000 C 
ATOM     27  C   UNL     1      44.641   4.103  10.360  0.00  0.00    +0.000 C 
ATOM     28  C   UNL     1      43.340   4.849  10.686  0.00  0.00    +0.000 C 
ATOM     29  C   UNL     1      44.285   2.847   9.551  0.00  0.00    +0.000 C 
ENDBRANCH  25  27
ENDBRANCH  23  25
ENDBRANCH  17  23
ENDBRANCH  16  20
ENDBRANCH   1  16
TORSDOF 7
ENDMDL
MODEL 6
REMARK VINA RESULT:    -6.235      3.407      8.273
REMARK INTER + INTRA:          -9.394
REMARK INTER:                  -8.589
REMARK INTRA:                  -0.805
REMARK UNBOUND:                -0.608
REMARK  Name = 
REMARK  10 active torsions:
REMARK  status: ('A' for Active; 'I' for Inactive)
REMARK    1  A    between atoms: C_1  and  C_2
REMARK    2  A    between atoms: C_2  and  C_3
REMARK    3  A    between atoms: C_2  and  C_4
REMARK    4  A    between atoms: C_2  and  O_5
REMARK    5  A    between atoms: O_5  and  C_6
REMARK    6  A    between atoms: C_6  and  C_8
REMARK    7  A    between atoms: C_11  and  O_12
REMARK    8  A    between atoms: O_12  and  C_13
REMARK    9  A    between atoms: C_13  and  C_14
REMARK   10  A    between atoms: C_19  and  C_20
REMARK                            x       y       z     vdW  Elec       q    Type
REMARK                         _______ _______ _______ _____ _____    ______ ____
ROOT
ATOM      1  C   UNL     1      49.749   8.127  14.369  0.00  0.00    +0.000 C 
ENDROOT
BRANCH   1   2
ATOM      2  C   UNL     1      49.085   8.295  15.719  0.00  0.00    +0.000 A 
ATOM      3  C   UNL     1      48.519   9.513  16.101  0.00  0.00    +0.000 A 
ATOM      4  C   UNL     1      47.971   9.646  17.373  0.00  0.00    +0.000 A 
ATOM      5  F   UNL     1      47.446  10.822  17.742  0.00  0.00    +0.000 F 
ATOM      6  C   UNL     1      47.960   8.581  18.272  0.00  0.00    +0.000 A 
ATOM      7  C   UNL     1      48.503   7.337  17.912  0.00  0.00    +0.000 A 
ATOM      8  C   UNL     1      49.101   7.240  16.647  0.00  0.00    +0.000 A 
BRANCH   7   9
ATOM      9  C   UNL     1      48.464   6.168  18.899  0.00  0.00    +0.000 C 
ATOM     10  C   UNL     1      49.660   5.194  18.832  0.00  0.00    +0.000 C 
ATOM     11  C   UNL     1      49.600   4.278  17.603  0.00  0.00    +0.000 C 
ATOM     12  N   UNL     1      48.350   3.523  17.545  0.00  0.00    +0.000 NA
ATOM     13  C   UNL     1      47.194   4.422  17.545  0.00  0.00    +0.000 C 
ATOM     14  C   UNL     1      47.176   5.326  18.779  0.00  0.00    +0.000 C 
ATOM     15  H   UNL     1      48.296   2.907  18.356  0.00  0.00    +0.000 HD
ENDBRANCH   7   9
ENDBRANCH   1   2
BRANCH   1  16
ATOM     16  O   UNL     1      48.800   8.384  13.325  0.00  0.00    +0.000 OA
BRANCH  16  20
ATOM     17  C   UNL     1      45.997   5.392  12.883  0.00  0.00    +0.000 A 
ATOM     18  C   UNL     1      45.598   6.729  12.822  0.00  0.00    +0.000 A 
ATOM     19  C   UNL     1      46.555   7.734  12.990  0.00  0.00    +0.000 A 
ATOM     20  C   UNL     1      47.880   7.368  13.184  0.00  0.00    +0.000 A 
ATOM     21  N   UNL     1      48.293   6.088  13.265  0.00  0.00    +0.000 NA
ATOM     22  C   UNL     1      47.343   5.132  13.119  0.00  0.00    +0.000 A 
BRANCH  17  23
ATOM     23  C   UNL     1      45.097   4.235  12.703  0.00  0.00    +0.000 C 
ATOM     24  O   UNL     1      44.253   3.946  13.536  0.00  0.00    +0.000 OA
BRANCH  23  25
ATOM     25  O   UNL     1      45.346   3.582  11.542  0.00  0.00    +0.000 OA
BRANCH  25  27
ATOM     26  C   UNL     1      45.572   4.898   9.466  0.00  0.00    +0.000 C 
ATOM     27  C   UNL     1      44.667   4.003  10.324  0.00  0.00    +0.000 C 
ATOM     28  C   UNL     1      43.325   4.677  10.641  0.00  0.00    +0.000 C 
ATOM     29  C   UNL     1      44.383   2.714   9.538  0.00  0.00    +0.000 C 
ENDBRANCH  25  27
ENDBRANCH  23  25
ENDBRANCH  17  23
ENDBRANCH  16  20
ENDBRANCH   1  16
TORSDOF 7
ENDMDL
MODEL 7
REMARK VINA RESULT:    -6.166      2.230      3.089
REMARK INTER + INTRA:          -9.297
REMARK INTER:                  -8.463
REMARK INTRA:                  -0.834
REMARK UNBOUND:                -0.608
REMARK  Name = 
REMARK  10 active torsions:
REMARK  status: ('A' for Active; 'I' for Inactive)
REMARK    1  A    between atoms: C_1  and  C_2
REMARK    2  A    between atoms: C_2  and  C_3
REMARK    3  A    between atoms: C_2  and  C_4
REMARK    4  A    between atoms: C_2  and  O_5
REMARK    5  A    between atoms: O_5  and  C_6
REMARK    6  A    between atoms: C_6  and  C_8
REMARK    7  A    between atoms: C_11  and  O_12
REMARK    8  A    between atoms: O_12  and  C_13
REMARK    9  A    between atoms: C_13  and  C_14
REMARK   10  A    between atoms: C_19  and  C_20
REMARK                            x       y       z     vdW  Elec       q    Type
REMARK                         _______ _______ _______ _____ _____    ______ ____
ROOT
ATOM      1  C   UNL     1      48.898   6.947  12.800  0.00  0.00    +0.000 C 
ENDROOT
BRANCH   1   2
ATOM      2  C   UNL     1      47.482   7.282  12.383  0.00  0.00    +0.000 A 
ATOM      3  C   UNL     1      46.969   8.573  12.529  0.00  0.00    +0.000 A 
ATOM      4  C   UNL     1      45.645   8.828  12.190  0.00  0.00    +0.000 A 
ATOM      5  F   UNL     1      45.152  10.063  12.350  0.00  0.00    +0.000 F 
ATOM      6  C   UNL     1      44.819   7.822  11.690  0.00  0.00    +0.000 A 
ATOM      7  C   UNL     1      45.308   6.518  11.512  0.00  0.00    +0.000 A 
ATOM      8  C   UNL     1      46.629   6.269  11.912  0.00  0.00    +0.000 A 
BRANCH   7   9
ATOM      9  C   UNL     1      44.399   5.429  10.939  0.00  0.00    +0.000 C 
ATOM     10  C   UNL     1      43.000   5.317  11.583  0.00  0.00    +0.000 C 
ATOM     11  C   UNL     1      43.048   4.673  12.974  0.00  0.00    +0.000 C 
ATOM     12  N   UNL     1      43.681   3.356  12.947  0.00  0.00    +0.000 NA
ATOM     13  C   UNL     1      45.035   3.439  12.397  0.00  0.00    +0.000 C 
ATOM     14  C   UNL     1      45.042   4.026  10.985  0.00  0.00    +0.000 C 
ATOM     15  H   UNL     1      43.121   2.731  12.368  0.00  0.00    +0.000 HD
ENDBRANCH   7   9
ENDBRANCH   1   2
BRANCH   1  16
ATOM     16  O   UNL     1      49.352   7.890  13.781  0.00  0.00    +0.000 OA
BRANCH  16  20
ATOM     17  C   UNL     1      48.595   6.710  17.657  0.00  0.00    +0.000 A 
ATOM     18  C   UNL     1      48.616   8.069  17.340  0.00  0.00    +0.000 A 
ATOM     19  C   UNL     1      48.890   8.457  16.025  0.00  0.00    +0.000 A 
ATOM     20  C   UNL     1      49.105   7.474  15.071  0.00  0.00    +0.000 A 
ATOM     21  N   UNL     1      49.109   6.155  15.349  0.00  0.00    +0.000 NA
ATOM     22  C   UNL     1      48.861   5.804  16.635  0.00  0.00    +0.000 A 
BRANCH  17  23
ATOM     23  C   UNL     1      48.300   6.162  18.998  0.00  0.00    +0.000 C 
ATOM     24  O   UNL     1      47.371   6.580  19.670  0.00  0.00    +0.000 OA
BRANCH  23  25
ATOM     25  O   UNL     1      49.177   5.188  19.344  0.00  0.00    +0.000 OA
BRANCH  25  27
ATOM     26  C   UNL     1      49.868   4.993  21.706  0.00  0.00    +0.000 C 
ATOM     27  C   UNL     1      50.235   5.485  20.299  0.00  0.00    +0.000 C 
ATOM     28  C   UNL     1      50.592   6.977  20.287  0.00  0.00    +0.000 C 
ATOM     29  C   UNL     1      51.462   4.694  19.820  0.00  0.00    +0.000 C 
ENDBRANCH  25  27
ENDBRANCH  23  25
ENDBRANCH  17  23
ENDBRANCH  16  20
ENDBRANCH   1  16
TORSDOF 7
ENDMDL
MODEL 8
REMARK VINA RESULT:    -6.111      2.090      2.546
REMARK INTER + INTRA:          -9.220
REMARK INTER:                  -8.717
REMARK INTRA:                  -0.502
REMARK UNBOUND:                -0.608
REMARK  Name = 
REMARK  10 active torsions:
REMARK  status: ('A' for Active; 'I' for Inactive)
REMARK    1  A    between atoms: C_1  and  C_2
REMARK    2  A    between atoms: C_2  and  C_3
REMARK    3  A    between atoms: C_2  and  C_4
REMARK    4  A    between atoms: C_2  and  O_5
REMARK    5  A    between atoms: O_5  and  C_6
REMARK    6  A    between atoms: C_6  and  C_8
REMARK    7  A    between atoms: C_11  and  O_12
REMARK    8  A    between atoms: O_12  and  C_13
REMARK    9  A    between atoms: C_13  and  C_14
REMARK   10  A    between atoms: C_19  and  C_20
REMARK                            x       y       z     vdW  Elec       q    Type
REMARK                         _______ _______ _______ _____ _____    ______ ____
ROOT
ATOM      1  C   UNL     1      47.790   5.731  13.615  0.00  0.00    +0.000 C 
ENDROOT
BRANCH   1   2
ATOM      2  C   UNL     1      46.677   6.380  12.820  0.00  0.00    +0.000 A 
ATOM      3  C   UNL     1      46.597   7.767  12.683  0.00  0.00    +0.000 A 
ATOM      4  C   UNL     1      45.525   8.328  11.996  0.00  0.00    +0.000 A 
ATOM      5  F   UNL     1      45.443   9.660  11.883  0.00  0.00    +0.000 F 
ATOM      6  C   UNL     1      44.534   7.532  11.425  0.00  0.00    +0.000 A 
ATOM      7  C   UNL     1      44.594   6.132  11.527  0.00  0.00    +0.000 A 
ATOM      8  C   UNL     1      45.652   5.589  12.272  0.00  0.00    +0.000 A 
BRANCH   7   9
ATOM      9  C   UNL     1      43.513   5.268  10.875  0.00  0.00    +0.000 C 
ATOM     10  C   UNL     1      42.768   4.301  11.821  0.00  0.00    +0.000 C 
ATOM     11  C   UNL     1      43.625   3.093  12.216  0.00  0.00    +0.000 C 
ATOM     12  N   UNL     1      44.107   2.359  11.047  0.00  0.00    +0.000 NA
ATOM     13  C   UNL     1      44.873   3.235  10.159  0.00  0.00    +0.000 C 
ATOM     14  C   UNL     1      44.047   4.434   9.690  0.00  0.00    +0.000 C 
ATOM     15  H   UNL     1      43.308   1.981  10.539  0.00  0.00    +0.000 HD
ENDBRANCH   7   9
ENDBRANCH   1   2
BRANCH   1  16
ATOM     16  O   UNL     1      47.265   4.641  14.386  0.00  0.00    +0.000 OA
BRANCH  16  20
ATOM     17  C   UNL     1      48.512   4.819  18.312  0.00  0.00    +0.000 A 
ATOM     18  C   UNL     1      48.871   5.836  17.425  0.00  0.00    +0.000 A 
ATOM     19  C   UNL     1      48.455   5.756  16.093  0.00  0.00    +0.000 A 
ATOM     20  C   UNL     1      47.675   4.678  15.701  0.00  0.00    +0.000 A 
ATOM     21  N   UNL     1      47.327   3.672  16.528  0.00  0.00    +0.000 NA
ATOM     22  C   UNL     1      47.758   3.763  17.810  0.00  0.00    +0.000 A 
BRANCH  17  23
ATOM     23  C   UNL     1      48.865   4.788  19.746  0.00  0.00    +0.000 C 
ATOM     24  O   UNL     1      48.440   3.920  20.491  0.00  0.00    +0.000 OA
BRANCH  23  25
ATOM     25  O   UNL     1      49.681   5.817  20.083  0.00  0.00    +0.000 OA
BRANCH  25  27
ATOM     26  C   UNL     1      51.717   4.547  19.510  0.00  0.00    +0.000 C 
ATOM     27  C   UNL     1      51.056   5.542  20.473  0.00  0.00    +0.000 C 
ATOM     28  C   UNL     1      51.137   5.071  21.931  0.00  0.00    +0.000 C 
ATOM     29  C   UNL     1      51.798   6.883  20.360  0.00  0.00    +0.000 C 
ENDBRANCH  25  27
ENDBRANCH  23  25
ENDBRANCH  17  23
ENDBRANCH  16  20
ENDBRANCH   1  16
TORSDOF 7
ENDMDL
MODEL 9
REMARK VINA RESULT:    -6.062      2.706      4.061
REMARK INTER + INTRA:          -9.150
REMARK INTER:                  -8.408
REMARK INTRA:                  -0.742
REMARK UNBOUND:                -0.608
REMARK  Name = 
REMARK  10 active torsions:
REMARK  status: ('A' for Active; 'I' for Inactive)
REMARK    1  A    between atoms: C_1  and  C_2
REMARK    2  A    between atoms: C_2  and  C_3
REMARK    3  A    between atoms: C_2  and  C_4
REMARK    4  A    between atoms: C_2  and  O_5
REMARK    5  A    between atoms: O_5  and  C_6
REMARK    6  A    between atoms: C_6  and  C_8
REMARK    7  A    between atoms: C_11  and  O_12
REMARK    8  A    between atoms: O_12  and  C_13
REMARK    9  A    between atoms: C_13  and  C_14
REMARK   10  A    between atoms: C_19  and  C_20
REMARK                            x       y       z     vdW  Elec       q    Type
REMARK                         _______ _______ _______ _____ _____    ______ ____
ROOT
ATOM      1  C   UNL     1      46.345   6.955  11.735  0.00  0.00    +0.000 C 
ENDROOT
BRANCH   1   2
ATOM      2  C   UNL     1      45.511   5.730  11.429  0.00  0.00    +0.000 A 
ATOM      3  C   UNL     1      44.841   5.038  12.439  0.00  0.00    +0.000 A 
ATOM      4  C   UNL     1      44.133   3.882  12.127  0.00  0.00    +0.000 A 
ATOM      5  F   UNL     1      43.507   3.211  13.103  0.00  0.00    +0.000 F 
ATOM      6  C   UNL     1      44.065   3.406  10.818  0.00  0.00    +0.000 A 
ATOM      7  C   UNL     1      44.711   4.089   9.775  0.00  0.00    +0.000 A 
ATOM      8  C   UNL     1      45.465   5.220  10.120  0.00  0.00    +0.000 A 
BRANCH   7   9
ATOM      9  C   UNL     1      44.608   3.570   8.339  0.00  0.00    +0.000 C 
ATOM     10  C   UNL     1      44.533   2.035   8.185  0.00  0.00    +0.000 C 
ATOM     11  C   UNL     1      45.886   1.357   8.430  0.00  0.00    +0.000 C 
ATOM     12  N   UNL     1      46.930   1.886   7.555  0.00  0.00    +0.000 NA
ATOM     13  C   UNL     1      47.069   3.334   7.723  0.00  0.00    +0.000 C 
ATOM     14  C   UNL     1      45.758   4.069   7.438  0.00  0.00    +0.000 C 
ATOM     15  H   UNL     1      46.686   1.682   6.586  0.00  0.00    +0.000 HD
ENDBRANCH   7   9
ENDBRANCH   1   2
BRANCH   1  16
ATOM     16  O   UNL     1      47.712   6.573  11.944  0.00  0.00    +0.000 OA
BRANCH  16  20
ATOM     17  C   UNL     1      48.812   6.767  15.913  0.00  0.00    +0.000 A 
ATOM     18  C   UNL     1      49.023   7.868  15.082  0.00  0.00    +0.000 A 
ATOM     19  C   UNL     1      48.661   7.784  13.734  0.00  0.00    +0.000 A 
ATOM     20  C   UNL     1      48.076   6.614  13.272  0.00  0.00    +0.000 A 
ATOM     21  N   UNL     1      47.875   5.528  14.045  0.00  0.00    +0.000 NA
ATOM     22  C   UNL     1      48.253   5.627  15.343  0.00  0.00    +0.000 A 
BRANCH  17  23
ATOM     23  C   UNL     1      49.128   6.727  17.355  0.00  0.00    +0.000 C 
ATOM     24  O   UNL     1      49.179   7.744  18.027  0.00  0.00    +0.000 OA
BRANCH  23  25
ATOM     25  O   UNL     1      49.348   5.460  17.785  0.00  0.00    +0.000 OA
BRANCH  25  27
ATOM     26  C   UNL     1      47.128   5.556  18.859  0.00  0.00    +0.000 C 
ATOM     27  C   UNL     1      48.522   4.914  18.853  0.00  0.00    +0.000 C 
ATOM     28  C   UNL     1      49.219   5.038  20.214  0.00  0.00    +0.000 C 
ATOM     29  C   UNL     1      48.360   3.420  18.531  0.00  0.00    +0.000 C 
ENDBRANCH  25  27
ENDBRANCH  23  25
ENDBRANCH  17  23
ENDBRANCH  16  20
ENDBRANCH   1  16
TORSDOF 7
ENDMDL
