MODEL 1
REMARK VINA RESULT:    -8.462      0.000      0.000
REMARK INTER + INTRA:         -13.121
REMARK INTER:                 -11.925
REMARK INTRA:                  -1.196
REMARK UNBOUND:                -1.196
REMARK  Name = 
REMARK  7 active torsions:
REMARK  status: ('A' for Active; 'I' for Inactive)
REMARK    1  A    between atoms: C_2  and  C_20
REMARK    2  A    between atoms: N_3  and  C_4
REMARK    3  A    between atoms: C_4  and  C_5
REMARK    4  A    between atoms: C_8  and  C_9
REMARK    5  A    between atoms: C_9  and  N_10
REMARK    6  A    between atoms: N_10  and  C_11
REMARK    7  A    between atoms: C_11  and  C_12
REMARK                            x       y       z     vdW  Elec       q    Type
REMARK                         _______ _______ _______ _____ _____    ______ ____
ROOT
ATOM      1  C   UNL     1      46.780   7.522  13.053  0.00  0.00    +0.000 C 
ENDROOT
BRANCH   1   2
ATOM      2  C   UNL     1      46.006   6.379  12.450  0.00  0.00    +0.000 A 
ATOM      3  C   UNL     1      45.390   5.434  13.277  0.00  0.00    +0.000 A 
ATOM      4  C   UNL     1      44.635   4.396  12.728  0.00  0.00    +0.000 A 
ATOM      5  C   UNL     1      44.488   4.270  11.338  0.00  0.00    +0.000 A 
ATOM      6  C   UNL     1      45.144   5.190  10.509  0.00  0.00    +0.000 A 
ATOM      7  C   UNL     1      45.902   6.231  11.060  0.00  0.00    +0.000 A 
BRANCH   5   8
ATOM      8  C   UNL     1      43.646   3.156  10.754  0.00  0.00    +0.000 C 
BRANCH   8   9
ATOM      9  N   UNL     1      43.972   2.947   9.345  0.00  0.00    +0.000 NA
ATOM     10  H   UNL     1      44.504   3.751   9.011  0.00  0.00    +0.000 HD
BRANCH   9  11
ATOM     11  C   UNL     1      44.778   1.737   9.142  0.00  0.00    +0.000 C 
BRANCH  11  12
ATOM     12  C   UNL     1      45.861   1.955   8.107  0.00  0.00    +0.000 A 
ATOM     13  C   UNL     1      45.958   3.158   7.418  0.00  0.00    +0.000 A 
ATOM     14  C   UNL     1      46.985   3.322   6.498  0.00  0.00    +0.000 A 
ATOM     15  C   UNL     1      47.858   2.270   6.308  0.00  0.00    +0.000 A 
ATOM     16  N   UNL     1      47.747   1.107   6.977  0.00  0.00    +0.000 NA
ATOM     17  N   UNL     1      46.739   0.948   7.888  0.00  0.00    +0.000 NA
ENDBRANCH  11  12
ENDBRANCH   9  11
ENDBRANCH   8   9
ENDBRANCH   5   8
ENDBRANCH   1   2
BRANCH   1  20
ATOM     18  O   UNL     1      49.466   6.796  13.589  0.00  0.00    +0.000 OA
ATOM     19  C   UNL     1      48.662   6.868  14.514  0.00  0.00    +0.000 C 
ATOM     20  N   UNL     1      47.339   7.169  14.328  0.00  0.00    +0.000 N 
ATOM     21  H   UNL     1      46.768   7.400  15.133  0.00  0.00    +0.000 HD
BRANCH  19  22
ATOM     22  C   UNL     1      49.055   6.577  15.899  0.00  0.00    +0.000 A 
ATOM     23  C   UNL     1      49.840   7.480  16.606  0.00  0.00    +0.000 A 
ATOM     24  S   UNL     1      50.206   6.968  18.192  0.00  0.00    +0.000 S 
ATOM     25  C   UNL     1      49.297   5.541  18.002  0.00  0.00    +0.000 A 
ATOM     26  N   UNL     1      49.168   4.650  19.020  0.00  0.00    +0.000 NA
ATOM     27  C   UNL     1      48.427   3.632  18.749  0.00  0.00    +0.000 A 
ATOM     28  N   UNL     1      47.806   3.414  17.543  0.00  0.00    +0.000 N 
ATOM     29  C   UNL     1      47.973   4.245  16.466  0.00  0.00    +0.000 A 
ATOM     30  O   UNL     1      47.527   3.939  15.363  0.00  0.00    +0.000 OA
ATOM     31  C   UNL     1      48.750   5.438  16.734  0.00  0.00    +0.000 A 
ATOM     32  H   UNL     1      47.271   2.574  17.382  0.00  0.00    +0.000 HD
ENDBRANCH  19  22
ENDBRANCH   1  20
TORSDOF 7
ENDMDL
MODEL 2
REMARK VINA RESULT:    -8.295      1.200      1.574
REMARK INTER + INTRA:         -12.885
REMARK INTER:                 -11.873
REMARK INTRA:                  -1.012
REMARK UNBOUND:                -1.196
REMARK  Name = 
REMARK  7 active torsions:
REMARK  status: ('A' for Active; 'I' for Inactive)
REMARK    1  A    between atoms: C_2  and  C_20
REMARK    2  A    between atoms: N_3  and  C_4
REMARK    3  A    between atoms: C_4  and  C_5
REMARK    4  A    between atoms: C_8  and  C_9
REMARK    5  A    between atoms: C_9  and  N_10
REMARK    6  A    between atoms: N_10  and  C_11
REMARK    7  A    between atoms: C_11  and  C_12
REMARK                            x       y       z     vdW  Elec       q    Type
REMARK                         _______ _______ _______ _____ _____    ______ ____
ROOT
ATOM      1  C   UNL     1      48.140   6.463  13.322  0.00  0.00    +0.000 C 
ENDROOT
BRANCH   1   2
ATOM      2  C   UNL     1      46.938   5.773  12.733  0.00  0.00    +0.000 A 
ATOM      3  C   UNL     1      46.370   6.245  11.544  0.00  0.00    +0.000 A 
ATOM      4  C   UNL     1      45.282   5.586  10.967  0.00  0.00    +0.000 A 
ATOM      5  C   UNL     1      44.727   4.447  11.572  0.00  0.00    +0.000 A 
ATOM      6  C   UNL     1      45.267   4.003  12.786  0.00  0.00    +0.000 A 
ATOM      7  C   UNL     1      46.358   4.664  13.365  0.00  0.00    +0.000 A 
BRANCH   5   8
ATOM      8  C   UNL     1      43.565   3.725  10.925  0.00  0.00    +0.000 C 
BRANCH   8   9
ATOM      9  N   UNL     1      43.904   3.321   9.562  0.00  0.00    +0.000 NA
ATOM     10  H   UNL     1      44.432   4.075   9.120  0.00  0.00    +0.000 HD
BRANCH   9  11
ATOM     11  C   UNL     1      44.722   2.103   9.537  0.00  0.00    +0.000 C 
BRANCH  11  12
ATOM     12  C   UNL     1      45.740   2.136   8.418  0.00  0.00    +0.000 A 
ATOM     13  C   UNL     1      46.005   3.313   7.728  0.00  0.00    +0.000 A 
ATOM     14  C   UNL     1      46.967   3.302   6.729  0.00  0.00    +0.000 A 
ATOM     15  C   UNL     1      47.611   2.110   6.462  0.00  0.00    +0.000 A 
ATOM     16  N   UNL     1      47.338   0.975   7.133  0.00  0.00    +0.000 NA
ATOM     17  N   UNL     1      46.394   0.988   8.123  0.00  0.00    +0.000 NA
ENDBRANCH  11  12
ENDBRANCH   9  11
ENDBRANCH   8   9
ENDBRANCH   5   8
ENDBRANCH   1   2
BRANCH   1  20
ATOM     18  O   UNL     1      50.286   6.888  15.123  0.00  0.00    +0.000 OA
ATOM     19  C   UNL     1      49.143   6.779  15.558  0.00  0.00    +0.000 C 
ATOM     20  N   UNL     1      48.063   6.529  14.754  0.00  0.00    +0.000 N 
ATOM     21  H   UNL     1      47.130   6.638  15.135  0.00  0.00    +0.000 HD
BRANCH  19  22
ATOM     22  C   UNL     1      48.858   6.856  16.996  0.00  0.00    +0.000 A 
ATOM     23  C   UNL     1      48.476   8.063  17.569  0.00  0.00    +0.000 A 
ATOM     24  S   UNL     1      48.198   7.961  19.249  0.00  0.00    +0.000 S 
ATOM     25  C   UNL     1      48.543   6.293  19.264  0.00  0.00    +0.000 A 
ATOM     26  N   UNL     1      48.459   5.568  20.410  0.00  0.00    +0.000 NA
ATOM     27  C   UNL     1      48.714   4.313  20.269  0.00  0.00    +0.000 A 
ATOM     28  N   UNL     1      49.058   3.713  19.082  0.00  0.00    +0.000 N 
ATOM     29  C   UNL     1      49.231   4.418  17.920  0.00  0.00    +0.000 A 
ATOM     30  O   UNL     1      49.685   3.874  16.917  0.00  0.00    +0.000 OA
ATOM     31  C   UNL     1      48.898   5.826  18.009  0.00  0.00    +0.000 A 
ATOM     32  H   UNL     1      49.286   2.730  19.048  0.00  0.00    +0.000 HD
ENDBRANCH  19  22
ENDBRANCH   1  20
TORSDOF 7
ENDMDL
MODEL 3
REMARK VINA RESULT:    -7.884      2.106      2.762
REMARK INTER + INTRA:         -12.306
REMARK INTER:                 -11.336
REMARK INTRA:                  -0.970
REMARK UNBOUND:                -1.196
REMARK  Name = 
REMARK  7 active torsions:
REMARK  status: ('A' for Active; 'I' for Inactive)
REMARK    1  A    between atoms: C_2  and  C_20
REMARK    2  A    between atoms: N_3  and  C_4
REMARK    3  A    between atoms: C_4  and  C_5
REMARK    4  A    between atoms: C_8  and  C_9
REMARK    5  A    between atoms: C_9  and  N_10
REMARK    6  A    between atoms: N_10  and  C_11
REMARK    7  A    between atoms: C_11  and  C_12
REMARK                            x       y       z     vdW  Elec       q    Type
REMARK                         _______ _______ _______ _____ _____    ______ ____
ROOT
ATOM      1  C   UNL     1      48.210   6.600  13.714  0.00  0.00    +0.000 C 
ENDROOT
BRANCH   1   2
ATOM      2  C   UNL     1      46.988   6.162  12.951  0.00  0.00    +0.000 A 
ATOM      3  C   UNL     1      46.755   6.646  11.659  0.00  0.00    +0.000 A 
ATOM      4  C   UNL     1      45.648   6.212  10.927  0.00  0.00    +0.000 A 
ATOM      5  C   UNL     1      44.739   5.294  11.474  0.00  0.00    +0.000 A 
ATOM      6  C   UNL     1      44.947   4.845  12.785  0.00  0.00    +0.000 A 
ATOM      7  C   UNL     1      46.058   5.280  13.519  0.00  0.00    +0.000 A 
BRANCH   5   8
ATOM      8  C   UNL     1      43.557   4.810  10.663  0.00  0.00    +0.000 C 
BRANCH   8   9
ATOM      9  N   UNL     1      43.998   4.273   9.377  0.00  0.00    +0.000 NA
ATOM     10  H   UNL     1      44.841   4.772   9.088  0.00  0.00    +0.000 HD
BRANCH   9  11
ATOM     11  C   UNL     1      44.310   2.840   9.458  0.00  0.00    +0.000 C 
BRANCH  11  12
ATOM     12  C   UNL     1      45.443   2.462   8.530  0.00  0.00    +0.000 A 
ATOM     13  C   UNL     1      46.022   3.404   7.687  0.00  0.00    +0.000 A 
ATOM     14  C   UNL     1      47.077   3.016   6.874  0.00  0.00    +0.000 A 
ATOM     15  C   UNL     1      47.496   1.703   6.937  0.00  0.00    +0.000 A 
ATOM     16  N   UNL     1      46.919   0.799   7.751  0.00  0.00    +0.000 NA
ATOM     17  N   UNL     1      45.883   1.182   8.558  0.00  0.00    +0.000 NA
ENDBRANCH  11  12
ENDBRANCH   9  11
ENDBRANCH   8   9
ENDBRANCH   5   8
ENDBRANCH   1   2
BRANCH   1  20
ATOM     18  O   UNL     1      50.253   6.465  15.674  0.00  0.00    +0.000 OA
ATOM     19  C   UNL     1      49.075   6.421  16.021  0.00  0.00    +0.000 C 
ATOM     20  N   UNL     1      48.037   6.436  15.130  0.00  0.00    +0.000 N 
ATOM     21  H   UNL     1      47.095   6.590  15.473  0.00  0.00    +0.000 HD
BRANCH  19  22
ATOM     22  C   UNL     1      48.696   6.292  17.434  0.00  0.00    +0.000 A 
ATOM     23  C   UNL     1      48.801   5.065  18.076  0.00  0.00    +0.000 A 
ATOM     24  S   UNL     1      48.305   5.106  19.708  0.00  0.00    +0.000 S 
ATOM     25  C   UNL     1      47.966   6.772  19.624  0.00  0.00    +0.000 A 
ATOM     26  N   UNL     1      47.523   7.455  20.712  0.00  0.00    +0.000 NA
ATOM     27  C   UNL     1      47.339   8.715  20.514  0.00  0.00    +0.000 A 
ATOM     28  N   UNL     1      47.547   9.358  19.319  0.00  0.00    +0.000 N 
ATOM     29  C   UNL     1      47.917   8.696  18.178  0.00  0.00    +0.000 A 
ATOM     30  O   UNL     1      47.946   9.277  17.096  0.00  0.00    +0.000 OA
ATOM     31  C   UNL     1      48.196   7.285  18.358  0.00  0.00    +0.000 A 
ATOM     32  H   UNL     1      47.345  10.342  19.220  0.00  0.00    +0.000 HD
ENDBRANCH  19  22
ENDBRANCH   1  20
TORSDOF 7
ENDMDL
MODEL 4
REMARK VINA RESULT:    -7.606      3.285      5.269
REMARK INTER + INTRA:         -11.914
REMARK INTER:                 -10.993
REMARK INTRA:                  -0.921
REMARK UNBOUND:                -1.196
REMARK  Name = 
REMARK  7 active torsions:
REMARK  status: ('A' for Active; 'I' for Inactive)
REMARK    1  A    between atoms: C_2  and  C_20
REMARK    2  A    between atoms: N_3  and  C_4
REMARK    3  A    between atoms: C_4  and  C_5
REMARK    4  A    between atoms: C_8  and  C_9
REMARK    5  A    between atoms: C_9  and  N_10
REMARK    6  A    between atoms: N_10  and  C_11
REMARK    7  A    between atoms: C_11  and  C_12
REMARK                            x       y       z     vdW  Elec       q    Type
REMARK                         _______ _______ _______ _____ _____    ______ ____
ROOT
ATOM      1  C   UNL     1      47.679   6.536  13.621  0.00  0.00    +0.000 C 
ENDROOT
BRANCH   1   2
ATOM      2  C   UNL     1      46.603   5.727  12.948  0.00  0.00    +0.000 A 
ATOM      3  C   UNL     1      46.227   6.014  11.631  0.00  0.00    +0.000 A 
ATOM      4  C   UNL     1      45.261   5.242  10.984  0.00  0.00    +0.000 A 
ATOM      5  C   UNL     1      44.636   4.171  11.642  0.00  0.00    +0.000 A 
ATOM      6  C   UNL     1      44.979   3.913  12.975  0.00  0.00    +0.000 A 
ATOM      7  C   UNL     1      45.948   4.688  13.625  0.00  0.00    +0.000 A 
BRANCH   5   8
ATOM      8  C   UNL     1      43.609   3.324  10.923  0.00  0.00    +0.000 C 
BRANCH   8   9
ATOM      9  N   UNL     1      43.987   3.132   9.524  0.00  0.00    +0.000 NA
ATOM     10  H   UNL     1      44.578   3.913   9.236  0.00  0.00    +0.000 HD
BRANCH   9  11
ATOM     11  C   UNL     1      44.734   1.884   9.324  0.00  0.00    +0.000 C 
BRANCH  11  12
ATOM     12  C   UNL     1      45.819   2.044   8.281  0.00  0.00    +0.000 A 
ATOM     13  C   UNL     1      46.048   3.272   7.670  0.00  0.00    +0.000 A 
ATOM     14  C   UNL     1      47.072   3.376   6.740  0.00  0.00    +0.000 A 
ATOM     15  C   UNL     1      47.813   2.246   6.461  0.00  0.00    +0.000 A 
ATOM     16  N   UNL     1      47.574   1.061   7.054  0.00  0.00    +0.000 NA
ATOM     17  N   UNL     1      46.568   0.958   7.975  0.00  0.00    +0.000 NA
ENDBRANCH  11  12
ENDBRANCH   9  11
ENDBRANCH   8   9
ENDBRANCH   5   8
ENDBRANCH   1   2
BRANCH   1  20
ATOM     18  O   UNL     1      49.253   7.718  11.582  0.00  0.00    +0.000 OA
ATOM     19  C   UNL     1      48.418   8.397  12.173  0.00  0.00    +0.000 C 
ATOM     20  N   UNL     1      47.653   7.908  13.198  0.00  0.00    +0.000 N 
ATOM     21  H   UNL     1      46.857   8.447  13.519  0.00  0.00    +0.000 HD
BRANCH  19  22
ATOM     22  C   UNL     1      48.218   9.816  11.856  0.00  0.00    +0.000 A 
ATOM     23  C   UNL     1      49.297  10.606  11.477  0.00  0.00    +0.000 A 
ATOM     24  S   UNL     1      48.874  12.228  11.159  0.00  0.00    +0.000 S 
ATOM     25  C   UNL     1      47.230  11.924  11.480  0.00  0.00    +0.000 A 
ATOM     26  N   UNL     1      46.297  12.904  11.359  0.00  0.00    +0.000 NA
ATOM     27  C   UNL     1      45.089  12.526  11.601  0.00  0.00    +0.000 A 
ATOM     28  N   UNL     1      44.726  11.252  11.964  0.00  0.00    +0.000 N 
ATOM     29  C   UNL     1      45.641  10.254  12.174  0.00  0.00    +0.000 A 
ATOM     30  O   UNL     1      45.295   9.173  12.644  0.00  0.00    +0.000 OA
ATOM     31  C   UNL     1      47.010  10.610  11.858  0.00  0.00    +0.000 A 
ATOM     32  H   UNL     1      43.765  11.031  12.179  0.00  0.00    +0.000 HD
ENDBRANCH  19  22
ENDBRANCH   1  20
TORSDOF 7
ENDMDL
MODEL 5
REMARK VINA RESULT:    -7.364      2.157      2.883
REMARK INTER + INTRA:         -11.574
REMARK INTER:                 -10.872
REMARK INTRA:                  -0.702
REMARK UNBOUND:                -1.196
REMARK  Name = 
REMARK  7 active torsions:
REMARK  status: ('A' for Active; 'I' for Inactive)
REMARK    1  A    between atoms: C_2  and  C_20
REMARK    2  A    between atoms: N_3  and  C_4
REMARK    3  A    between atoms: C_4  and  C_5
REMARK    4  A    between atoms: C_8  and  C_9
REMARK    5  A    between atoms: C_9  and  N_10
REMARK    6  A    between atoms: N_10  and  C_11
REMARK    7  A    between atoms: C_11  and  C_12
REMARK                            x       y       z     vdW  Elec       q    Type
REMARK                         _______ _______ _______ _____ _____    ______ ____
ROOT
ATOM      1  C   UNL     1      47.314   3.898  15.323  0.00  0.00    +0.000 C 
ENDROOT
BRANCH   1   2
ATOM      2  C   UNL     1      46.769   4.434  14.026  0.00  0.00    +0.000 A 
ATOM      3  C   UNL     1      45.938   3.639  13.230  0.00  0.00    +0.000 A 
ATOM      4  C   UNL     1      45.394   4.143  12.047  0.00  0.00    +0.000 A 
ATOM      5  C   UNL     1      45.678   5.451  11.625  0.00  0.00    +0.000 A 
ATOM      6  C   UNL     1      46.546   6.231  12.399  0.00  0.00    +0.000 A 
ATOM      7  C   UNL     1      47.093   5.725  13.584  0.00  0.00    +0.000 A 
BRANCH   5   8
ATOM      8  C   UNL     1      45.061   5.996  10.355  0.00  0.00    +0.000 C 
BRANCH   8   9
ATOM      9  N   UNL     1      45.666   5.375   9.179  0.00  0.00    +0.000 NA
ATOM     10  H   UNL     1      46.588   5.020   9.436  0.00  0.00    +0.000 HD
BRANCH   9  11
ATOM     11  C   UNL     1      44.861   4.256   8.673  0.00  0.00    +0.000 C 
BRANCH  11  12
ATOM     12  C   UNL     1      45.730   3.155   8.105  0.00  0.00    +0.000 A 
ATOM     13  C   UNL     1      46.653   3.419   7.100  0.00  0.00    +0.000 A 
ATOM     14  C   UNL     1      47.447   2.383   6.631  0.00  0.00    +0.000 A 
ATOM     15  C   UNL     1      47.273   1.131   7.184  0.00  0.00    +0.000 A 
ATOM     16  N   UNL     1      46.369   0.887   8.152  0.00  0.00    +0.000 NA
ATOM     17  N   UNL     1      45.590   1.910   8.619  0.00  0.00    +0.000 NA
ENDBRANCH  11  12
ENDBRANCH   9  11
ENDBRANCH   8   9
ENDBRANCH   5   8
ENDBRANCH   1   2
BRANCH   1  20
ATOM     18  O   UNL     1      49.688   4.629  16.687  0.00  0.00    +0.000 OA
ATOM     19  C   UNL     1      48.653   5.257  16.893  0.00  0.00    +0.000 C 
ATOM     20  N   UNL     1      47.459   4.935  16.306  0.00  0.00    +0.000 N 
ATOM     21  H   UNL     1      46.690   5.593  16.361  0.00  0.00    +0.000 HD
BRANCH  19  22
ATOM     22  C   UNL     1      48.611   6.379  17.839  0.00  0.00    +0.000 A 
ATOM     23  C   UNL     1      48.634   7.688  17.373  0.00  0.00    +0.000 A 
ATOM     24  S   UNL     1      48.589   8.854  18.617  0.00  0.00    +0.000 S 
ATOM     25  C   UNL     1      48.500   7.653  19.820  0.00  0.00    +0.000 A 
ATOM     26  N   UNL     1      48.406   7.981  21.135  0.00  0.00    +0.000 NA
ATOM     27  C   UNL     1      48.313   6.974  21.933  0.00  0.00    +0.000 A 
ATOM     28  N   UNL     1      48.316   5.658  21.536  0.00  0.00    +0.000 N 
ATOM     29  C   UNL     1      48.489   5.281  20.230  0.00  0.00    +0.000 A 
ATOM     30  O   UNL     1      48.639   4.099  19.933  0.00  0.00    +0.000 OA
ATOM     31  C   UNL     1      48.539   6.377  19.283  0.00  0.00    +0.000 A 
ATOM     32  H   UNL     1      48.281   4.914  22.216  0.00  0.00    +0.000 HD
ENDBRANCH  19  22
ENDBRANCH   1  20
TORSDOF 7
ENDMDL
MODEL 6
REMARK VINA RESULT:    -7.260      3.300      8.099
REMARK INTER + INTRA:         -11.427
REMARK INTER:                 -10.015
REMARK INTRA:                  -1.412
REMARK UNBOUND:                -1.196
REMARK  Name = 
REMARK  7 active torsions:
REMARK  status: ('A' for Active; 'I' for Inactive)
REMARK    1  A    between atoms: C_2  and  C_20
REMARK    2  A    between atoms: N_3  and  C_4
REMARK    3  A    between atoms: C_4  and  C_5
REMARK    4  A    between atoms: C_8  and  C_9
REMARK    5  A    between atoms: C_9  and  N_10
REMARK    6  A    between atoms: N_10  and  C_11
REMARK    7  A    between atoms: C_11  and  C_12
REMARK                            x       y       z     vdW  Elec       q    Type
REMARK                         _______ _______ _______ _____ _____    ______ ____
ROOT
ATOM      1  C   UNL     1      48.335   8.098  12.035  0.00  0.00    +0.000 C 
ENDROOT
BRANCH   1   2
ATOM      2  C   UNL     1      48.468   8.039  13.533  0.00  0.00    +0.000 A 
ATOM      3  C   UNL     1      48.372   9.210  14.294  0.00  0.00    +0.000 A 
ATOM      4  C   UNL     1      48.451   9.159  15.687  0.00  0.00    +0.000 A 
ATOM      5  C   UNL     1      48.642   7.939  16.353  0.00  0.00    +0.000 A 
ATOM      6  C   UNL     1      48.784   6.773  15.589  0.00  0.00    +0.000 A 
ATOM      7  C   UNL     1      48.705   6.824  14.191  0.00  0.00    +0.000 A 
BRANCH   5   8
ATOM      8  C   UNL     1      48.699   7.892  17.865  0.00  0.00    +0.000 C 
BRANCH   8   9
ATOM      9  N   UNL     1      47.481   7.296  18.410  0.00  0.00    +0.000 NA
ATOM     10  H   UNL     1      46.886   7.004  17.633  0.00  0.00    +0.000 HD
BRANCH   9  11
ATOM     11  C   UNL     1      47.769   6.121  19.242  0.00  0.00    +0.000 C 
BRANCH  11  12
ATOM     12  C   UNL     1      47.892   4.864  18.409  0.00  0.00    +0.000 A 
ATOM     13  C   UNL     1      49.096   4.172  18.331  0.00  0.00    +0.000 A 
ATOM     14  C   UNL     1      49.152   3.009  17.578  0.00  0.00    +0.000 A 
ATOM     15  C   UNL     1      48.004   2.598  16.932  0.00  0.00    +0.000 A 
ATOM     16  N   UNL     1      46.847   3.283  17.009  0.00  0.00    +0.000 NA
ATOM     17  N   UNL     1      46.789   4.426  17.756  0.00  0.00    +0.000 NA
ENDBRANCH  11  12
ENDBRANCH   9  11
ENDBRANCH   8   9
ENDBRANCH   5   8
ENDBRANCH   1   2
BRANCH   1  20
ATOM     18  O   UNL     1      45.524   7.984  11.692  0.00  0.00    +0.000 OA
ATOM     19  C   UNL     1      46.215   7.028  11.352  0.00  0.00    +0.000 C 
ATOM     20  N   UNL     1      47.572   6.992  11.527  0.00  0.00    +0.000 N 
ATOM     21  H   UNL     1      48.110   6.270  11.061  0.00  0.00    +0.000 HD
BRANCH  19  22
ATOM     22  C   UNL     1      45.619   5.816  10.777  0.00  0.00    +0.000 A 
ATOM     23  C   UNL     1      45.815   5.510   9.435  0.00  0.00    +0.000 A 
ATOM     24  S   UNL     1      45.038   4.072   8.944  0.00  0.00    +0.000 S 
ATOM     25  C   UNL     1      44.444   3.789  10.514  0.00  0.00    +0.000 A 
ATOM     26  N   UNL     1      43.708   2.682  10.797  0.00  0.00    +0.000 NA
ATOM     27  C   UNL     1      43.351   2.578  12.031  0.00  0.00    +0.000 A 
ATOM     28  N   UNL     1      43.656   3.489  13.014  0.00  0.00    +0.000 N 
ATOM     29  C   UNL     1      44.327   4.655  12.757  0.00  0.00    +0.000 A 
ATOM     30  O   UNL     1      44.449   5.514  13.626  0.00  0.00    +0.000 OA
ATOM     31  C   UNL     1      44.804   4.795  11.395  0.00  0.00    +0.000 A 
ATOM     32  H   UNL     1      43.311   3.368  13.954  0.00  0.00    +0.000 HD
ENDBRANCH  19  22
ENDBRANCH   1  20
TORSDOF 7
ENDMDL
MODEL 7
REMARK VINA RESULT:    -7.025      4.136      6.491
REMARK INTER + INTRA:         -11.096
REMARK INTER:                 -10.382
REMARK INTRA:                  -0.714
REMARK UNBOUND:                -1.196
REMARK  Name = 
REMARK  7 active torsions:
REMARK  status: ('A' for Active; 'I' for Inactive)
REMARK    1  A    between atoms: C_2  and  C_20
REMARK    2  A    between atoms: N_3  and  C_4
REMARK    3  A    between atoms: C_4  and  C_5
REMARK    4  A    between atoms: C_8  and  C_9
REMARK    5  A    between atoms: C_9  and  N_10
REMARK    6  A    between atoms: N_10  and  C_11
REMARK    7  A    between atoms: C_11  and  C_12
REMARK                            x       y       z     vdW  Elec       q    Type
REMARK                         _______ _______ _______ _____ _____    ______ ____
ROOT
ATOM      1  C   UNL     1      46.432   4.064  14.180  0.00  0.00    +0.000 C 
ENDROOT
BRANCH   1   2
ATOM      2  C   UNL     1      45.991   5.256  13.373  0.00  0.00    +0.000 A 
ATOM      3  C   UNL     1      44.680   5.331  12.888  0.00  0.00    +0.000 A 
ATOM      4  C   UNL     1      44.250   6.452  12.177  0.00  0.00    +0.000 A 
ATOM      5  C   UNL     1      45.123   7.521  11.921  0.00  0.00    +0.000 A 
ATOM      6  C   UNL     1      46.447   7.425  12.367  0.00  0.00    +0.000 A 
ATOM      7  C   UNL     1      46.880   6.301  13.081  0.00  0.00    +0.000 A 
BRANCH   5   8
ATOM      8  C   UNL     1      44.639   8.743  11.172  0.00  0.00    +0.000 C 
BRANCH   8   9
ATOM      9  N   UNL     1      43.183   8.728  11.045  0.00  0.00    +0.000 NA
ATOM     10  H   UNL     1      42.776   8.640  11.978  0.00  0.00    +0.000 HD
BRANCH   9  11
ATOM     11  C   UNL     1      42.672   9.958  10.428  0.00  0.00    +0.000 C 
BRANCH  11  12
ATOM     12  C   UNL     1      41.579  10.589  11.263  0.00  0.00    +0.000 A 
ATOM     13  C   UNL     1      40.243  10.267  11.054  0.00  0.00    +0.000 A 
ATOM     14  C   UNL     1      39.279  10.850  11.864  0.00  0.00    +0.000 A 
ATOM     15  C   UNL     1      39.697  11.733  12.838  0.00  0.00    +0.000 A 
ATOM     16  N   UNL     1      40.994  12.043  13.024  0.00  0.00    +0.000 NA
ATOM     17  N   UNL     1      41.946  11.464  12.230  0.00  0.00    +0.000 NA
ENDBRANCH  11  12
ENDBRANCH   9  11
ENDBRANCH   8   9
ENDBRANCH   5   8
ENDBRANCH   1   2
BRANCH   1  20
ATOM     18  O   UNL     1      46.536   3.409  16.935  0.00  0.00    +0.000 OA
ATOM     19  C   UNL     1      47.470   4.019  16.422  0.00  0.00    +0.000 C 
ATOM     20  N   UNL     1      47.471   4.408  15.110  0.00  0.00    +0.000 N 
ATOM     21  H   UNL     1      48.336   4.735  14.694  0.00  0.00    +0.000 HD
BRANCH  19  22
ATOM     22  C   UNL     1      48.643   4.428  17.205  0.00  0.00    +0.000 A 
ATOM     23  C   UNL     1      48.662   5.664  17.840  0.00  0.00    +0.000 A 
ATOM     24  S   UNL     1      50.110   5.969  18.690  0.00  0.00    +0.000 S 
ATOM     25  C   UNL     1      50.746   4.447  18.270  0.00  0.00    +0.000 A 
ATOM     26  N   UNL     1      51.968   4.050  18.711  0.00  0.00    +0.000 NA
ATOM     27  C   UNL     1      52.310   2.864  18.344  0.00  0.00    +0.000 A 
ATOM     28  N   UNL     1      51.542   2.034  17.563  0.00  0.00    +0.000 N 
ATOM     29  C   UNL     1      50.340   2.422  17.033  0.00  0.00    +0.000 A 
ATOM     30  O   UNL     1      49.755   1.713  16.218  0.00  0.00    +0.000 OA
ATOM     31  C   UNL     1      49.880   3.727  17.463  0.00  0.00    +0.000 A 
ATOM     32  H   UNL     1      51.887   1.129  17.277  0.00  0.00    +0.000 HD
ENDBRANCH  19  22
ENDBRANCH   1  20
TORSDOF 7
ENDMDL
MODEL 8
REMARK VINA RESULT:    -6.921      4.270      9.350
REMARK INTER + INTRA:         -10.949
REMARK INTER:                 -10.025
REMARK INTRA:                  -0.924
REMARK UNBOUND:                -1.196
REMARK  Name = 
REMARK  7 active torsions:
REMARK  status: ('A' for Active; 'I' for Inactive)
REMARK    1  A    between atoms: C_2  and  C_20
REMARK    2  A    between atoms: N_3  and  C_4
REMARK    3  A    between atoms: C_4  and  C_5
REMARK    4  A    between atoms: C_8  and  C_9
REMARK    5  A    between atoms: C_9  and  N_10
REMARK    6  A    between atoms: N_10  and  C_11
REMARK    7  A    between atoms: C_11  and  C_12
REMARK                            x       y       z     vdW  Elec       q    Type
REMARK                         _______ _______ _______ _____ _____    ______ ____
ROOT
ATOM      1  C   UNL     1      47.071   3.423  16.742  0.00  0.00    +0.000 C 
ENDROOT
BRANCH   1   2
ATOM      2  C   UNL     1      48.515   3.593  17.134  0.00  0.00    +0.000 A 
ATOM      3  C   UNL     1      49.376   2.490  17.144  0.00  0.00    +0.000 A 
ATOM      4  C   UNL     1      50.726   2.645  17.464  0.00  0.00    +0.000 A 
ATOM      5  C   UNL     1      51.246   3.906  17.795  0.00  0.00    +0.000 A 
ATOM      6  C   UNL     1      50.374   5.002  17.830  0.00  0.00    +0.000 A 
ATOM      7  C   UNL     1      49.020   4.846  17.510  0.00  0.00    +0.000 A 
BRANCH   5   8
ATOM      8  C   UNL     1      52.716   4.068  18.115  0.00  0.00    +0.000 C 
BRANCH   8   9
ATOM      9  N   UNL     1      53.087   3.251  19.269  0.00  0.00    +0.000 NA
ATOM     10  H   UNL     1      52.441   2.462  19.330  0.00  0.00    +0.000 HD
BRANCH   9  11
ATOM     11  C   UNL     1      54.453   2.727  19.155  0.00  0.00    +0.000 C 
BRANCH  11  12
ATOM     12  C   UNL     1      54.462   1.286  18.693  0.00  0.00    +0.000 A 
ATOM     13  C   UNL     1      54.451   0.968  17.340  0.00  0.00    +0.000 A 
ATOM     14  C   UNL     1      54.488  -0.367  16.965  0.00  0.00    +0.000 A 
ATOM     15  C   UNL     1      54.525  -1.320  17.962  0.00  0.00    +0.000 A 
ATOM     16  N   UNL     1      54.526  -0.998  19.270  0.00  0.00    +0.000 NA
ATOM     17  N   UNL     1      54.496   0.318  19.640  0.00  0.00    +0.000 NA
ENDBRANCH  11  12
ENDBRANCH   9  11
ENDBRANCH   8   9
ENDBRANCH   5   8
ENDBRANCH   1   2
BRANCH   1  20
ATOM     18  O   UNL     1      47.352   3.166  13.934  0.00  0.00    +0.000 OA
ATOM     19  C   UNL     1      46.809   4.164  14.400  0.00  0.00    +0.000 C 
ATOM     20  N   UNL     1      46.677   4.379  15.745  0.00  0.00    +0.000 N 
ATOM     21  H   UNL     1      46.060   5.115  16.069  0.00  0.00    +0.000 HD
BRANCH  19  22
ATOM     22  C   UNL     1      46.305   5.239  13.535  0.00  0.00    +0.000 A 
ATOM     23  C   UNL     1      47.100   6.345  13.261  0.00  0.00    +0.000 A 
ATOM     24  S   UNL     1      46.344   7.493  12.250  0.00  0.00    +0.000 S 
ATOM     25  C   UNL     1      44.943   6.536  12.114  0.00  0.00    +0.000 A 
ATOM     26  N   UNL     1      43.893   6.932  11.348  0.00  0.00    +0.000 NA
ATOM     27  C   UNL     1      42.913   6.096  11.310  0.00  0.00    +0.000 A 
ATOM     28  N   UNL     1      42.880   4.897  11.979  0.00  0.00    +0.000 N 
ATOM     29  C   UNL     1      43.882   4.495  12.824  0.00  0.00    +0.000 A 
ATOM     30  O   UNL     1      43.750   3.492  13.520  0.00  0.00    +0.000 OA
ATOM     31  C   UNL     1      45.035   5.371  12.857  0.00  0.00    +0.000 A 
ATOM     32  H   UNL     1      42.063   4.305  11.940  0.00  0.00    +0.000 HD
ENDBRANCH  19  22
ENDBRANCH   1  20
TORSDOF 7
ENDMDL
MODEL 9
REMARK VINA RESULT:    -6.918      2.917      8.340
REMARK INTER + INTRA:         -10.945
REMARK INTER:                  -9.548
REMARK INTRA:                  -1.397
REMARK UNBOUND:                -1.196
REMARK  Name = 
REMARK  7 active torsions:
REMARK  status: ('A' for Active; 'I' for Inactive)
REMARK    1  A    between atoms: C_2  and  C_20
REMARK    2  A    between atoms: N_3  and  C_4
REMARK    3  A    between atoms: C_4  and  C_5
REMARK    4  A    between atoms: C_8  and  C_9
REMARK    5  A    between atoms: C_9  and  N_10
REMARK    6  A    between atoms: N_10  and  C_11
REMARK    7  A    between atoms: C_11  and  C_12
REMARK                            x       y       z     vdW  Elec       q    Type
REMARK                         _______ _______ _______ _____ _____    ______ ____
ROOT
ATOM      1  C   UNL     1      47.664   7.852  11.785  0.00  0.00    +0.000 C 
ENDROOT
BRANCH   1   2
ATOM      2  C   UNL     1      48.555   7.833  13.000  0.00  0.00    +0.000 A 
ATOM      3  C   UNL     1      47.998   7.717  14.278  0.00  0.00    +0.000 A 
ATOM      4  C   UNL     1      48.818   7.655  15.406  0.00  0.00    +0.000 A 
ATOM      5  C   UNL     1      50.215   7.720  15.285  0.00  0.00    +0.000 A 
ATOM      6  C   UNL     1      50.769   7.882  14.009  0.00  0.00    +0.000 A 
ATOM      7  C   UNL     1      49.947   7.945  12.877  0.00  0.00    +0.000 A 
BRANCH   5   8
ATOM      8  C   UNL     1      51.095   7.626  16.512  0.00  0.00    +0.000 C 
BRANCH   8   9
ATOM      9  N   UNL     1      51.527   6.247  16.732  0.00  0.00    +0.000 NA
ATOM     10  H   UNL     1      52.532   6.246  16.913  0.00  0.00    +0.000 HD
BRANCH   9  11
ATOM     11  C   UNL     1      50.847   5.634  17.880  0.00  0.00    +0.000 C 
BRANCH  11  12
ATOM     12  C   UNL     1      49.829   4.604  17.440  0.00  0.00    +0.000 A 
ATOM     13  C   UNL     1      48.467   4.876  17.495  0.00  0.00    +0.000 A 
ATOM     14  C   UNL     1      47.573   3.910  17.054  0.00  0.00    +0.000 A 
ATOM     15  C   UNL     1      48.086   2.716  16.589  0.00  0.00    +0.000 A 
ATOM     16  N   UNL     1      49.408   2.463  16.550  0.00  0.00    +0.000 NA
ATOM     17  N   UNL     1      50.290   3.417  16.978  0.00  0.00    +0.000 NA
ENDBRANCH  11  12
ENDBRANCH   9  11
ENDBRANCH   8   9
ENDBRANCH   5   8
ENDBRANCH   1   2
BRANCH   1  20
ATOM     18  O   UNL     1      44.844   7.592  11.878  0.00  0.00    +0.000 OA
ATOM     19  C   UNL     1      45.538   6.598  11.680  0.00  0.00    +0.000 C 
ATOM     20  N   UNL     1      46.906   6.638  11.666  0.00  0.00    +0.000 N 
ATOM     21  H   UNL     1      47.419   5.837  11.313  0.00  0.00    +0.000 HD
BRANCH  19  22
ATOM     22  C   UNL     1      44.941   5.269  11.497  0.00  0.00    +0.000 A 
ATOM     23  C   UNL     1      44.242   4.667  12.537  0.00  0.00    +0.000 A 
ATOM     24  S   UNL     1      43.633   3.123  12.143  0.00  0.00    +0.000 S 
ATOM     25  C   UNL     1      44.250   3.219  10.560  0.00  0.00    +0.000 A 
ATOM     26  N   UNL     1      44.048   2.216   9.665  0.00  0.00    +0.000 NA
ATOM     27  C   UNL     1      44.542   2.435   8.495  0.00  0.00    +0.000 A 
ATOM     28  N   UNL     1      45.231   3.569   8.136  0.00  0.00    +0.000 N 
ATOM     29  C   UNL     1      45.524   4.568   9.026  0.00  0.00    +0.000 A 
ATOM     30  O   UNL     1      46.270   5.491   8.710  0.00  0.00    +0.000 OA
ATOM     31  C   UNL     1      44.942   4.399  10.342  0.00  0.00    +0.000 A 
ATOM     32  H   UNL     1      45.628   3.661   7.213  0.00  0.00    +0.000 HD
ENDBRANCH  19  22
ENDBRANCH   1  20
TORSDOF 7
ENDMDL
