MODEL 1
REMARK VINA RESULT:    -7.592      0.000      0.000
REMARK INTER + INTRA:         -11.570
REMARK INTER:                 -10.477
REMARK INTRA:                  -1.093
REMARK UNBOUND:                -1.093
REMARK  Name = 
REMARK  7 active torsions:
REMARK  status: ('A' for Active; 'I' for Inactive)
REMARK    1  A    between atoms: C_2  and  C_20
REMARK    2  A    between atoms: N_3  and  CA_4
REMARK    3  A    between atoms: CA_4  and  C_5
REMARK    4  A    between atoms: CA_4  and  C_7
REMARK    5  A    between atoms: C_5  and  O_6
REMARK    6  A    between atoms: C_10  and  C_11
REMARK    7  A    between atoms: C_11  and  C_12
REMARK                            x       y       z     vdW  Elec       q    Type
REMARK                         _______ _______ _______ _____ _____    ______ ____
ROOT
ATOM      1  CA  UNL     1      47.676   7.213  13.696  0.00  0.00    +0.000 C 
ENDROOT
BRANCH   1   2
ATOM      2  C   UNL     1      46.729   6.401  12.822  0.00  0.00    +0.000 A 
ATOM      3  C   UNL     1      46.399   6.897  11.553  0.00  0.00    +0.000 A 
ATOM      4  C   UNL     1      45.606   6.158  10.673  0.00  0.00    +0.000 A 
ATOM      5  C   UNL     1      45.133   4.892  11.034  0.00  0.00    +0.000 A 
ATOM      6  C   UNL     1      45.452   4.391  12.302  0.00  0.00    +0.000 A 
ATOM      7  C   UNL     1      46.245   5.135  13.183  0.00  0.00    +0.000 A 
BRANCH   5   8
ATOM      8  C   UNL     1      44.319   4.069  10.061  0.00  0.00    +0.000 C 
BRANCH   8   9
ATOM      9  C   UNL     1      45.117   3.349   9.001  0.00  0.00    +0.000 A 
ATOM     10  C   UNL     1      45.411   1.990   9.107  0.00  0.00    +0.000 A 
ATOM     11  N   UNL     1      46.203   1.330   8.228  0.00  0.00    +0.000 NA
ATOM     12  C   UNL     1      46.702   2.083   7.225  0.00  0.00    +0.000 A 
ATOM     13  C   UNL     1      46.412   3.431   7.100  0.00  0.00    +0.000 A 
ATOM     14  N   UNL     1      45.622   4.090   7.979  0.00  0.00    +0.000 NA
ENDBRANCH   8   9
ENDBRANCH   5   8
ENDBRANCH   1   2
BRANCH   1  17
ATOM     15  O   UNL     1      49.968   6.561  15.255  0.00  0.00    +0.000 OA
ATOM     16  C   UNL     1      48.851   6.306  15.692  0.00  0.00    +0.000 C 
ATOM     17  N   UNL     1      47.698   6.632  15.030  0.00  0.00    +0.000 N 
ATOM     18  H   UNL     1      46.819   6.250  15.352  0.00  0.00    +0.000 HD
BRANCH  16  19
ATOM     19  C   UNL     1      48.670   5.664  17.001  0.00  0.00    +0.000 A 
ATOM     20  C   UNL     1      48.881   4.298  17.139  0.00  0.00    +0.000 A 
ATOM     21  S   UNL     1      48.673   3.737  18.737  0.00  0.00    +0.000 S 
ATOM     22  C   UNL     1      48.260   5.292  19.288  0.00  0.00    +0.000 A 
ATOM     23  N   UNL     1      47.955   5.513  20.598  0.00  0.00    +0.000 NA
ATOM     24  C   UNL     1      47.634   6.732  20.869  0.00  0.00    +0.000 A 
ATOM     25  N   UNL     1      47.581   7.751  19.957  0.00  0.00    +0.000 N 
ATOM     26  C   UNL     1      47.914   7.585  18.635  0.00  0.00    +0.000 A 
ATOM     27  O   UNL     1      47.933   8.541  17.864  0.00  0.00    +0.000 OA
ATOM     28  C   UNL     1      48.281   6.227  18.270  0.00  0.00    +0.000 A 
ATOM     29  H   UNL     1      47.329   8.687  20.233  0.00  0.00    +0.000 HD
ENDBRANCH  16  19
ENDBRANCH   1  17
BRANCH   1  30
ATOM     30  C   UNL     1      47.341   8.721  13.774  0.00  0.00    +0.000 C 
BRANCH  30  31
ATOM     31  O   UNL     1      47.329   9.167  15.133  0.00  0.00    +0.000 OA
ATOM     32  H   UNL     1      48.253   9.307  15.401  0.00  0.00    +0.000 HD
ENDBRANCH  30  31
ENDBRANCH   1  30
TORSDOF 7
ENDMDL
MODEL 2
REMARK VINA RESULT:    -7.045      2.673      3.921
REMARK INTER + INTRA:         -10.815
REMARK INTER:                 -10.250
REMARK INTRA:                  -0.565
REMARK UNBOUND:                -1.093
REMARK  Name = 
REMARK  7 active torsions:
REMARK  status: ('A' for Active; 'I' for Inactive)
REMARK    1  A    between atoms: C_2  and  C_20
REMARK    2  A    between atoms: N_3  and  CA_4
REMARK    3  A    between atoms: CA_4  and  C_5
REMARK    4  A    between atoms: CA_4  and  C_7
REMARK    5  A    between atoms: C_5  and  O_6
REMARK    6  A    between atoms: C_10  and  C_11
REMARK    7  A    between atoms: C_11  and  C_12
REMARK                            x       y       z     vdW  Elec       q    Type
REMARK                         _______ _______ _______ _____ _____    ______ ____
ROOT
ATOM      1  CA  UNL     1      44.377   6.176  12.097  0.00  0.00    +0.000 C 
ENDROOT
BRANCH   1   2
ATOM      2  C   UNL     1      44.709   5.025  11.158  0.00  0.00    +0.000 A 
ATOM      3  C   UNL     1      44.347   3.724  11.540  0.00  0.00    +0.000 A 
ATOM      4  C   UNL     1      44.547   2.639  10.684  0.00  0.00    +0.000 A 
ATOM      5  C   UNL     1      45.101   2.828   9.413  0.00  0.00    +0.000 A 
ATOM      6  C   UNL     1      45.471   4.121   9.026  0.00  0.00    +0.000 A 
ATOM      7  C   UNL     1      45.273   5.207   9.887  0.00  0.00    +0.000 A 
BRANCH   5   8
ATOM      8  C   UNL     1      45.268   1.661   8.467  0.00  0.00    +0.000 C 
BRANCH   8   9
ATOM      9  C   UNL     1      46.223   1.891   7.320  0.00  0.00    +0.000 A 
ATOM     10  C   UNL     1      47.462   1.255   7.265  0.00  0.00    +0.000 A 
ATOM     11  N   UNL     1      48.386   1.507   6.305  0.00  0.00    +0.000 NA
ATOM     12  C   UNL     1      48.026   2.432   5.391  0.00  0.00    +0.000 A 
ATOM     13  C   UNL     1      46.796   3.066   5.425  0.00  0.00    +0.000 A 
ATOM     14  N   UNL     1      45.875   2.815   6.385  0.00  0.00    +0.000 NA
ENDBRANCH   8   9
ENDBRANCH   5   8
ENDBRANCH   1   2
BRANCH   1  17
ATOM     15  O   UNL     1      46.989   7.291  11.893  0.00  0.00    +0.000 OA
ATOM     16  C   UNL     1      46.644   6.754  12.941  0.00  0.00    +0.000 C 
ATOM     17  N   UNL     1      45.391   6.239  13.139  0.00  0.00    +0.000 N 
ATOM     18  H   UNL     1      45.218   5.662  13.951  0.00  0.00    +0.000 HD
BRANCH  16  19
ATOM     19  C   UNL     1      47.554   6.667  14.091  0.00  0.00    +0.000 A 
ATOM     20  C   UNL     1      48.415   7.720  14.375  0.00  0.00    +0.000 A 
ATOM     21  S   UNL     1      49.361   7.466  15.772  0.00  0.00    +0.000 S 
ATOM     22  C   UNL     1      48.679   5.928  16.021  0.00  0.00    +0.000 A 
ATOM     23  N   UNL     1      49.063   5.154  17.075  0.00  0.00    +0.000 NA
ATOM     24  C   UNL     1      48.484   4.002  17.126  0.00  0.00    +0.000 A 
ATOM     25  N   UNL     1      47.565   3.546  16.220  0.00  0.00    +0.000 N 
ATOM     26  C   UNL     1      47.120   4.303  15.164  0.00  0.00    +0.000 A 
ATOM     27  O   UNL     1      46.234   3.890  14.420  0.00  0.00    +0.000 OA
ATOM     28  C   UNL     1      47.742   5.611  15.055  0.00  0.00    +0.000 A 
ATOM     29  H   UNL     1      47.142   2.636  16.319  0.00  0.00    +0.000 HD
ENDBRANCH  16  19
ENDBRANCH   1  17
BRANCH   1  30
ATOM     30  C   UNL     1      42.966   6.103  12.727  0.00  0.00    +0.000 C 
BRANCH  30  31
ATOM     31  O   UNL     1      41.960   6.381  11.750  0.00  0.00    +0.000 OA
ATOM     32  H   UNL     1      41.629   7.279  11.922  0.00  0.00    +0.000 HD
ENDBRANCH  30  31
ENDBRANCH   1  30
TORSDOF 7
ENDMDL
MODEL 3
REMARK VINA RESULT:    -6.885      1.727      2.221
REMARK INTER + INTRA:         -10.594
REMARK INTER:                  -9.864
REMARK INTRA:                  -0.729
REMARK UNBOUND:                -1.093
REMARK  Name = 
REMARK  7 active torsions:
REMARK  status: ('A' for Active; 'I' for Inactive)
REMARK    1  A    between atoms: C_2  and  C_20
REMARK    2  A    between atoms: N_3  and  CA_4
REMARK    3  A    between atoms: CA_4  and  C_5
REMARK    4  A    between atoms: CA_4  and  C_7
REMARK    5  A    between atoms: C_5  and  O_6
REMARK    6  A    between atoms: C_10  and  C_11
REMARK    7  A    between atoms: C_11  and  C_12
REMARK                            x       y       z     vdW  Elec       q    Type
REMARK                         _______ _______ _______ _____ _____    ______ ____
ROOT
ATOM      1  CA  UNL     1      47.398   7.851  13.469  0.00  0.00    +0.000 C 
ENDROOT
BRANCH   1   2
ATOM      2  C   UNL     1      46.514   6.903  12.671  0.00  0.00    +0.000 A 
ATOM      3  C   UNL     1      45.615   7.448  11.742  0.00  0.00    +0.000 A 
ATOM      4  C   UNL     1      44.840   6.628  10.920  0.00  0.00    +0.000 A 
ATOM      5  C   UNL     1      44.955   5.235  10.994  0.00  0.00    +0.000 A 
ATOM      6  C   UNL     1      45.844   4.681  11.922  0.00  0.00    +0.000 A 
ATOM      7  C   UNL     1      46.617   5.506  12.748  0.00  0.00    +0.000 A 
BRANCH   5   8
ATOM      8  C   UNL     1      44.155   4.348  10.067  0.00  0.00    +0.000 C 
BRANCH   8   9
ATOM      9  C   UNL     1      44.969   3.557   9.070  0.00  0.00    +0.000 A 
ATOM     10  C   UNL     1      45.212   2.196   9.244  0.00  0.00    +0.000 A 
ATOM     11  N   UNL     1      46.015   1.473   8.426  0.00  0.00    +0.000 NA
ATOM     12  C   UNL     1      46.577   2.167   7.414  0.00  0.00    +0.000 A 
ATOM     13  C   UNL     1      46.339   3.516   7.221  0.00  0.00    +0.000 A 
ATOM     14  N   UNL     1      45.538   4.238   8.039  0.00  0.00    +0.000 NA
ENDBRANCH   8   9
ENDBRANCH   5   8
ENDBRANCH   1   2
BRANCH   1  17
ATOM     15  O   UNL     1      49.971   7.124  14.449  0.00  0.00    +0.000 OA
ATOM     16  C   UNL     1      48.977   6.874  15.124  0.00  0.00    +0.000 C 
ATOM     17  N   UNL     1      47.711   7.235  14.750  0.00  0.00    +0.000 N 
ATOM     18  H   UNL     1      46.921   6.858  15.255  0.00  0.00    +0.000 HD
BRANCH  16  19
ATOM     19  C   UNL     1      49.086   6.201  16.425  0.00  0.00    +0.000 A 
ATOM     20  C   UNL     1      49.810   6.791  17.453  0.00  0.00    +0.000 A 
ATOM     21  S   UNL     1      49.788   5.892  18.903  0.00  0.00    +0.000 S 
ATOM     22  C   UNL     1      48.843   4.669  18.194  0.00  0.00    +0.000 A 
ATOM     23  N   UNL     1      48.460   3.575  18.912  0.00  0.00    +0.000 NA
ATOM     24  C   UNL     1      47.770   2.715  18.241  0.00  0.00    +0.000 A 
ATOM     25  N   UNL     1      47.432   2.840  16.921  0.00  0.00    +0.000 N 
ATOM     26  C   UNL     1      47.763   3.939  16.167  0.00  0.00    +0.000 A 
ATOM     27  O   UNL     1      47.372   4.051  15.009  0.00  0.00    +0.000 OA
ATOM     28  C   UNL     1      48.546   4.940  16.871  0.00  0.00    +0.000 A 
ATOM     29  H   UNL     1      46.884   2.134  16.454  0.00  0.00    +0.000 HD
ENDBRANCH  16  19
ENDBRANCH   1  17
BRANCH   1  30
ATOM     30  C   UNL     1      46.797   9.260  13.685  0.00  0.00    +0.000 C 
BRANCH  30  31
ATOM     31  O   UNL     1      47.622  10.261  13.084  0.00  0.00    +0.000 OA
ATOM     32  H   UNL     1      47.066  10.764  12.465  0.00  0.00    +0.000 HD
ENDBRANCH  30  31
ENDBRANCH   1  30
TORSDOF 7
ENDMDL
MODEL 4
REMARK VINA RESULT:    -6.878      3.142      9.572
REMARK INTER + INTRA:         -10.584
REMARK INTER:                  -9.286
REMARK INTRA:                  -1.299
REMARK UNBOUND:                -1.093
REMARK  Name = 
REMARK  7 active torsions:
REMARK  status: ('A' for Active; 'I' for Inactive)
REMARK    1  A    between atoms: C_2  and  C_20
REMARK    2  A    between atoms: N_3  and  CA_4
REMARK    3  A    between atoms: CA_4  and  C_5
REMARK    4  A    between atoms: CA_4  and  C_7
REMARK    5  A    between atoms: C_5  and  O_6
REMARK    6  A    between atoms: C_10  and  C_11
REMARK    7  A    between atoms: C_11  and  C_12
REMARK                            x       y       z     vdW  Elec       q    Type
REMARK                         _______ _______ _______ _____ _____    ______ ____
ROOT
ATOM      1  CA  UNL     1      48.262   4.787  16.254  0.00  0.00    +0.000 C 
ENDROOT
BRANCH   1   2
ATOM      2  C   UNL     1      48.028   5.772  17.391  0.00  0.00    +0.000 A 
ATOM      3  C   UNL     1      47.317   5.335  18.519  0.00  0.00    +0.000 A 
ATOM      4  C   UNL     1      47.146   6.164  19.630  0.00  0.00    +0.000 A 
ATOM      5  C   UNL     1      47.695   7.451  19.648  0.00  0.00    +0.000 A 
ATOM      6  C   UNL     1      48.401   7.898  18.525  0.00  0.00    +0.000 A 
ATOM      7  C   UNL     1      48.569   7.066  17.412  0.00  0.00    +0.000 A 
BRANCH   5   8
ATOM      8  C   UNL     1      47.555   8.328  20.872  0.00  0.00    +0.000 C 
BRANCH   8   9
ATOM      9  C   UNL     1      47.452   9.809  20.595  0.00  0.00    +0.000 A 
ATOM     10  C   UNL     1      48.509  10.677  20.862  0.00  0.00    +0.000 A 
ATOM     11  N   UNL     1      48.423  12.022  20.717  0.00  0.00    +0.000 NA
ATOM     12  C   UNL     1      47.226  12.478  20.293  0.00  0.00    +0.000 A 
ATOM     13  C   UNL     1      46.169  11.631  20.014  0.00  0.00    +0.000 A 
ATOM     14  N   UNL     1      46.255  10.288  20.159  0.00  0.00    +0.000 NA
ENDBRANCH   8   9
ENDBRANCH   5   8
ENDBRANCH   1   2
BRANCH   1  17
ATOM     15  O   UNL     1      48.706   6.143  13.790  0.00  0.00    +0.000 OA
ATOM     16  C   UNL     1      47.577   5.748  14.065  0.00  0.00    +0.000 C 
ATOM     17  N   UNL     1      47.289   5.044  15.203  0.00  0.00    +0.000 N 
ATOM     18  H   UNL     1      46.322   4.894  15.459  0.00  0.00    +0.000 HD
BRANCH  16  19
ATOM     19  C   UNL     1      46.448   5.967  13.152  0.00  0.00    +0.000 A 
ATOM     20  C   UNL     1      46.090   7.258  12.786  0.00  0.00    +0.000 A 
ATOM     21  S   UNL     1      44.790   7.318  11.684  0.00  0.00    +0.000 S 
ATOM     22  C   UNL     1      44.638   5.624  11.687  0.00  0.00    +0.000 A 
ATOM     23  N   UNL     1      43.686   5.005  10.933  0.00  0.00    +0.000 NA
ATOM     24  C   UNL     1      43.667   3.720  11.053  0.00  0.00    +0.000 A 
ATOM     25  N   UNL     1      44.503   2.996  11.860  0.00  0.00    +0.000 N 
ATOM     26  C   UNL     1      45.500   3.571  12.609  0.00  0.00    +0.000 A 
ATOM     27  O   UNL     1      46.282   2.881  13.257  0.00  0.00    +0.000 OA
ATOM     28  C   UNL     1      45.566   5.020  12.515  0.00  0.00    +0.000 A 
ATOM     29  H   UNL     1      44.443   1.990  11.905  0.00  0.00    +0.000 HD
ENDBRANCH  16  19
ENDBRANCH   1  17
BRANCH   1  30
ATOM     30  C   UNL     1      48.215   3.299  16.675  0.00  0.00    +0.000 C 
BRANCH  30  31
ATOM     31  O   UNL     1      48.394   2.447  15.541  0.00  0.00    +0.000 OA
ATOM     32  H   UNL     1      49.218   1.950  15.678  0.00  0.00    +0.000 HD
ENDBRANCH  30  31
ENDBRANCH   1  30
TORSDOF 7
ENDMDL
MODEL 5
REMARK VINA RESULT:    -6.714      3.524      8.164
REMARK INTER + INTRA:         -10.358
REMARK INTER:                  -9.236
REMARK INTRA:                  -1.122
REMARK UNBOUND:                -1.093
REMARK  Name = 
REMARK  7 active torsions:
REMARK  status: ('A' for Active; 'I' for Inactive)
REMARK    1  A    between atoms: C_2  and  C_20
REMARK    2  A    between atoms: N_3  and  CA_4
REMARK    3  A    between atoms: CA_4  and  C_5
REMARK    4  A    between atoms: CA_4  and  C_7
REMARK    5  A    between atoms: C_5  and  O_6
REMARK    6  A    between atoms: C_10  and  C_11
REMARK    7  A    between atoms: C_11  and  C_12
REMARK                            x       y       z     vdW  Elec       q    Type
REMARK                         _______ _______ _______ _____ _____    ______ ____
ROOT
ATOM      1  CA  UNL     1      47.959   7.253  13.303  0.00  0.00    +0.000 C 
ENDROOT
BRANCH   1   2
ATOM      2  C   UNL     1      48.310   6.553  14.610  0.00  0.00    +0.000 A 
ATOM      3  C   UNL     1      47.596   5.399  14.963  0.00  0.00    +0.000 A 
ATOM      4  C   UNL     1      47.929   4.665  16.103  0.00  0.00    +0.000 A 
ATOM      5  C   UNL     1      48.998   5.059  16.916  0.00  0.00    +0.000 A 
ATOM      6  C   UNL     1      49.713   6.214  16.575  0.00  0.00    +0.000 A 
ATOM      7  C   UNL     1      49.374   6.950  15.433  0.00  0.00    +0.000 A 
BRANCH   5   8
ATOM      8  C   UNL     1      49.392   4.235  18.121  0.00  0.00    +0.000 C 
BRANCH   8   9
ATOM      9  C   UNL     1      50.531   3.269  17.896  0.00  0.00    +0.000 A 
ATOM     10  C   UNL     1      50.325   2.022  17.310  0.00  0.00    +0.000 A 
ATOM     11  N   UNL     1      51.301   1.091  17.179  0.00  0.00    +0.000 NA
ATOM     12  C   UNL     1      52.508   1.452  17.662  0.00  0.00    +0.000 A 
ATOM     13  C   UNL     1      52.733   2.690  18.239  0.00  0.00    +0.000 A 
ATOM     14  N   UNL     1      51.758   3.619  18.371  0.00  0.00    +0.000 NA
ENDBRANCH   8   9
ENDBRANCH   5   8
ENDBRANCH   1   2
BRANCH   1  17
ATOM     15  O   UNL     1      45.822   7.818  11.508  0.00  0.00    +0.000 OA
ATOM     16  C   UNL     1      46.210   6.661  11.638  0.00  0.00    +0.000 C 
ATOM     17  N   UNL     1      47.263   6.311  12.439  0.00  0.00    +0.000 N 
ATOM     18  H   UNL     1      47.428   5.334  12.639  0.00  0.00    +0.000 HD
BRANCH  16  19
ATOM     19  C   UNL     1      45.589   5.559  10.890  0.00  0.00    +0.000 A 
ATOM     20  C   UNL     1      45.697   5.512   9.507  0.00  0.00    +0.000 A 
ATOM     21  S   UNL     1      44.959   4.139   8.813  0.00  0.00    +0.000 S 
ATOM     22  C   UNL     1      44.438   3.583  10.334  0.00  0.00    +0.000 A 
ATOM     23  N   UNL     1      43.728   2.426  10.451  0.00  0.00    +0.000 NA
ATOM     24  C   UNL     1      43.376   2.140  11.659  0.00  0.00    +0.000 A 
ATOM     25  N   UNL     1      43.659   2.902  12.759  0.00  0.00    +0.000 N 
ATOM     26  C   UNL     1      44.401   4.056  12.696  0.00  0.00    +0.000 A 
ATOM     27  O   UNL     1      44.703   4.669  13.716  0.00  0.00    +0.000 OA
ATOM     28  C   UNL     1      44.823   4.430  11.357  0.00  0.00    +0.000 A 
ATOM     29  H   UNL     1      43.360   2.620  13.681  0.00  0.00    +0.000 HD
ENDBRANCH  16  19
ENDBRANCH   1  17
BRANCH   1  30
ATOM     30  C   UNL     1      49.169   7.867  12.560  0.00  0.00    +0.000 C 
BRANCH  30  31
ATOM     31  O   UNL     1      49.001   9.278  12.399  0.00  0.00    +0.000 OA
ATOM     32  H   UNL     1      48.667   9.629  13.242  0.00  0.00    +0.000 HD
ENDBRANCH  30  31
ENDBRANCH   1  30
TORSDOF 7
ENDMDL
MODEL 6
REMARK VINA RESULT:    -6.704      2.458      3.329
REMARK INTER + INTRA:         -10.344
REMARK INTER:                  -8.982
REMARK INTRA:                  -1.363
REMARK UNBOUND:                -1.093
REMARK  Name = 
REMARK  7 active torsions:
REMARK  status: ('A' for Active; 'I' for Inactive)
REMARK    1  A    between atoms: C_2  and  C_20
REMARK    2  A    between atoms: N_3  and  CA_4
REMARK    3  A    between atoms: CA_4  and  C_5
REMARK    4  A    between atoms: CA_4  and  C_7
REMARK    5  A    between atoms: C_5  and  O_6
REMARK    6  A    between atoms: C_10  and  C_11
REMARK    7  A    between atoms: C_11  and  C_12
REMARK                            x       y       z     vdW  Elec       q    Type
REMARK                         _______ _______ _______ _____ _____    ______ ____
ROOT
ATOM      1  CA  UNL     1      48.917   8.565  14.311  0.00  0.00    +0.000 C 
ENDROOT
BRANCH   1   2
ATOM      2  C   UNL     1      47.773   8.153  13.395  0.00  0.00    +0.000 A 
ATOM      3  C   UNL     1      47.947   7.036  12.565  0.00  0.00    +0.000 A 
ATOM      4  C   UNL     1      46.906   6.558  11.768  0.00  0.00    +0.000 A 
ATOM      5  C   UNL     1      45.652   7.179  11.790  0.00  0.00    +0.000 A 
ATOM      6  C   UNL     1      45.469   8.298  12.610  0.00  0.00    +0.000 A 
ATOM      7  C   UNL     1      46.516   8.777  13.406  0.00  0.00    +0.000 A 
BRANCH   5   8
ATOM      8  C   UNL     1      44.508   6.629  10.968  0.00  0.00    +0.000 C 
BRANCH   8   9
ATOM      9  C   UNL     1      44.081   5.223  11.316  0.00  0.00    +0.000 A 
ATOM     10  C   UNL     1      43.741   4.866  12.620  0.00  0.00    +0.000 A 
ATOM     11  N   UNL     1      43.446   3.596  12.989  0.00  0.00    +0.000 NA
ATOM     12  C   UNL     1      43.504   2.681  12.000  0.00  0.00    +0.000 A 
ATOM     13  C   UNL     1      43.830   3.020  10.698  0.00  0.00    +0.000 A 
ATOM     14  N   UNL     1      44.126   4.288  10.329  0.00  0.00    +0.000 NA
ENDBRANCH   8   9
ENDBRANCH   5   8
ENDBRANCH   1   2
BRANCH   1  17
ATOM     15  O   UNL     1      51.201   7.165  15.278  0.00  0.00    +0.000 OA
ATOM     16  C   UNL     1      50.110   6.973  15.804  0.00  0.00    +0.000 C 
ATOM     17  N   UNL     1      48.974   7.641  15.435  0.00  0.00    +0.000 N 
ATOM     18  H   UNL     1      48.079   7.324  15.782  0.00  0.00    +0.000 HD
BRANCH  16  19
ATOM     19  C   UNL     1      49.955   6.030  16.920  0.00  0.00    +0.000 A 
ATOM     20  C   UNL     1      50.785   6.125  18.030  0.00  0.00    +0.000 A 
ATOM     21  S   UNL     1      50.430   4.982  19.245  0.00  0.00    +0.000 S 
ATOM     22  C   UNL     1      49.183   4.298  18.314  0.00  0.00    +0.000 A 
ATOM     23  N   UNL     1      48.453   3.247  18.784  0.00  0.00    +0.000 NA
ATOM     24  C   UNL     1      47.558   2.812  17.962  0.00  0.00    +0.000 A 
ATOM     25  N   UNL     1      47.327   3.323  16.714  0.00  0.00    +0.000 N 
ATOM     26  C   UNL     1      48.010   4.403  16.211  0.00  0.00    +0.000 A 
ATOM     27  O   UNL     1      47.718   4.883  15.119  0.00  0.00    +0.000 OA
ATOM     28  C   UNL     1      49.035   4.933  17.094  0.00  0.00    +0.000 A 
ATOM     29  H   UNL     1      46.606   2.942  16.120  0.00  0.00    +0.000 HD
ENDBRANCH  16  19
ENDBRANCH   1  17
BRANCH   1  30
ATOM     30  C   UNL     1      48.839  10.023  14.820  0.00  0.00    +0.000 C 
BRANCH  30  31
ATOM     31  O   UNL     1      48.199  10.079  16.097  0.00  0.00    +0.000 OA
ATOM     32  H   UNL     1      48.412   9.255  16.566  0.00  0.00    +0.000 HD
ENDBRANCH  30  31
ENDBRANCH   1  30
TORSDOF 7
ENDMDL
MODEL 7
REMARK VINA RESULT:    -6.633      3.493      5.224
REMARK INTER + INTRA:         -10.247
REMARK INTER:                  -9.147
REMARK INTRA:                  -1.100
REMARK UNBOUND:                -1.093
REMARK  Name = 
REMARK  7 active torsions:
REMARK  status: ('A' for Active; 'I' for Inactive)
REMARK    1  A    between atoms: C_2  and  C_20
REMARK    2  A    between atoms: N_3  and  CA_4
REMARK    3  A    between atoms: CA_4  and  C_5
REMARK    4  A    between atoms: CA_4  and  C_7
REMARK    5  A    between atoms: C_5  and  O_6
REMARK    6  A    between atoms: C_10  and  C_11
REMARK    7  A    between atoms: C_11  and  C_12
REMARK                            x       y       z     vdW  Elec       q    Type
REMARK                         _______ _______ _______ _____ _____    ______ ____
ROOT
ATOM      1  CA  UNL     1      48.712   6.065  17.356  0.00  0.00    +0.000 C 
ENDROOT
BRANCH   1   2
ATOM      2  C   UNL     1      48.152   5.440  16.085  0.00  0.00    +0.000 A 
ATOM      3  C   UNL     1      47.603   4.151  16.158  0.00  0.00    +0.000 A 
ATOM      4  C   UNL     1      46.996   3.561  15.048  0.00  0.00    +0.000 A 
ATOM      5  C   UNL     1      46.908   4.252  13.834  0.00  0.00    +0.000 A 
ATOM      6  C   UNL     1      47.459   5.537  13.749  0.00  0.00    +0.000 A 
ATOM      7  C   UNL     1      48.069   6.125  14.863  0.00  0.00    +0.000 A 
BRANCH   5   8
ATOM      8  C   UNL     1      46.204   3.634  12.647  0.00  0.00    +0.000 C 
BRANCH   8   9
ATOM      9  C   UNL     1      44.850   4.220  12.324  0.00  0.00    +0.000 A 
ATOM     10  C   UNL     1      44.522   4.628  11.032  0.00  0.00    +0.000 A 
ATOM     11  N   UNL     1      43.356   5.245  10.721  0.00  0.00    +0.000 NA
ATOM     12  C   UNL     1      42.518   5.446  11.759  0.00  0.00    +0.000 A 
ATOM     13  C   UNL     1      42.823   5.039  13.046  0.00  0.00    +0.000 A 
ATOM     14  N   UNL     1      43.988   4.424  13.357  0.00  0.00    +0.000 NA
ENDBRANCH   8   9
ENDBRANCH   5   8
ENDBRANCH   1   2
BRANCH   1  17
ATOM     15  O   UNL     1      51.392   6.204  16.403  0.00  0.00    +0.000 OA
ATOM     16  C   UNL     1      51.099   5.373  17.257  0.00  0.00    +0.000 C 
ATOM     17  N   UNL     1      49.849   5.274  17.805  0.00  0.00    +0.000 N 
ATOM     18  H   UNL     1      49.621   4.469  18.373  0.00  0.00    +0.000 HD
BRANCH  16  19
ATOM     19  C   UNL     1      52.102   4.443  17.794  0.00  0.00    +0.000 A 
ATOM     20  C   UNL     1      53.241   4.936  18.418  0.00  0.00    +0.000 A 
ATOM     21  S   UNL     1      54.268   3.714  19.021  0.00  0.00    +0.000 S 
ATOM     22  C   UNL     1      53.244   2.489  18.437  0.00  0.00    +0.000 A 
ATOM     23  N   UNL     1      53.549   1.173  18.622  0.00  0.00    +0.000 NA
ATOM     24  C   UNL     1      52.698   0.353  18.104  0.00  0.00    +0.000 A 
ATOM     25  N   UNL     1      51.576   0.721  17.412  0.00  0.00    +0.000 N 
ATOM     26  C   UNL     1      51.208   2.032  17.231  0.00  0.00    +0.000 A 
ATOM     27  O   UNL     1      50.152   2.320  16.676  0.00  0.00    +0.000 OA
ATOM     28  C   UNL     1      52.133   3.001  17.792  0.00  0.00    +0.000 A 
ATOM     29  H   UNL     1      50.945   0.030  17.036  0.00  0.00    +0.000 HD
ENDBRANCH  16  19
ENDBRANCH   1  17
BRANCH   1  30
ATOM     30  C   UNL     1      47.684   6.221  18.500  0.00  0.00    +0.000 C 
BRANCH  30  31
ATOM     31  O   UNL     1      47.194   7.564  18.560  0.00  0.00    +0.000 OA
ATOM     32  H   UNL     1      47.729   8.096  17.947  0.00  0.00    +0.000 HD
ENDBRANCH  30  31
ENDBRANCH   1  30
TORSDOF 7
ENDMDL
MODEL 8
REMARK VINA RESULT:    -6.348      3.042      4.182
REMARK INTER + INTRA:          -9.853
REMARK INTER:                  -8.893
REMARK INTRA:                  -0.961
REMARK UNBOUND:                -1.093
REMARK  Name = 
REMARK  7 active torsions:
REMARK  status: ('A' for Active; 'I' for Inactive)
REMARK    1  A    between atoms: C_2  and  C_20
REMARK    2  A    between atoms: N_3  and  CA_4
REMARK    3  A    between atoms: CA_4  and  C_5
REMARK    4  A    between atoms: CA_4  and  C_7
REMARK    5  A    between atoms: C_5  and  O_6
REMARK    6  A    between atoms: C_10  and  C_11
REMARK    7  A    between atoms: C_11  and  C_12
REMARK                            x       y       z     vdW  Elec       q    Type
REMARK                         _______ _______ _______ _____ _____    ______ ____
ROOT
ATOM      1  CA  UNL     1      47.176   5.584  14.746  0.00  0.00    +0.000 C 
ENDROOT
BRANCH   1   2
ATOM      2  C   UNL     1      46.553   5.218  13.406  0.00  0.00    +0.000 A 
ATOM      3  C   UNL     1      45.937   3.965  13.274  0.00  0.00    +0.000 A 
ATOM      4  C   UNL     1      45.274   3.607  12.098  0.00  0.00    +0.000 A 
ATOM      5  C   UNL     1      45.196   4.501  11.025  0.00  0.00    +0.000 A 
ATOM      6  C   UNL     1      45.814   5.752  11.145  0.00  0.00    +0.000 A 
ATOM      7  C   UNL     1      46.481   6.107  12.323  0.00  0.00    +0.000 A 
BRANCH   5   8
ATOM      8  C   UNL     1      44.432   4.134   9.773  0.00  0.00    +0.000 C 
BRANCH   8   9
ATOM      9  C   UNL     1      45.235   3.414   8.716  0.00  0.00    +0.000 A 
ATOM     10  C   UNL     1      45.495   2.048   8.802  0.00  0.00    +0.000 A 
ATOM     11  N   UNL     1      46.289   1.385   7.927  0.00  0.00    +0.000 NA
ATOM     12  C   UNL     1      46.825   2.144   6.949  0.00  0.00    +0.000 A 
ATOM     13  C   UNL     1      46.570   3.500   6.842  0.00  0.00    +0.000 A 
ATOM     14  N   UNL     1      45.778   4.162   7.717  0.00  0.00    +0.000 NA
ENDBRANCH   8   9
ENDBRANCH   5   8
ENDBRANCH   1   2
BRANCH   1  17
ATOM     15  O   UNL     1      48.574   7.328  16.511  0.00  0.00    +0.000 OA
ATOM     16  C   UNL     1      49.034   7.105  15.395  0.00  0.00    +0.000 C 
ATOM     17  N   UNL     1      48.453   6.241  14.507  0.00  0.00    +0.000 N 
ATOM     18  H   UNL     1      48.777   6.225  13.549  0.00  0.00    +0.000 HD
BRANCH  16  19
ATOM     19  C   UNL     1      50.288   7.724  14.948  0.00  0.00    +0.000 A 
ATOM     20  C   UNL     1      50.265   8.717  13.977  0.00  0.00    +0.000 A 
ATOM     21  S   UNL     1      51.806   9.354  13.619  0.00  0.00    +0.000 S 
ATOM     22  C   UNL     1      52.559   8.300  14.721  0.00  0.00    +0.000 A 
ATOM     23  N   UNL     1      53.909   8.325  14.904  0.00  0.00    +0.000 NA
ATOM     24  C   UNL     1      54.346   7.453  15.748  0.00  0.00    +0.000 A 
ATOM     25  N   UNL     1      53.565   6.554  16.423  0.00  0.00    +0.000 N 
ATOM     26  C   UNL     1      52.198   6.515  16.299  0.00  0.00    +0.000 A 
ATOM     27  O   UNL     1      51.524   5.749  16.981  0.00  0.00    +0.000 OA
ATOM     28  C   UNL     1      51.649   7.474  15.355  0.00  0.00    +0.000 A 
ATOM     29  H   UNL     1      53.967   5.901  17.077  0.00  0.00    +0.000 HD
ENDBRANCH  16  19
ENDBRANCH   1  17
BRANCH   1  30
ATOM     30  C   UNL     1      47.361   4.391  15.714  0.00  0.00    +0.000 C 
BRANCH  30  31
ATOM     31  O   UNL     1      46.998   4.760  17.047  0.00  0.00    +0.000 OA
ATOM     32  H   UNL     1      46.514   5.602  16.994  0.00  0.00    +0.000 HD
ENDBRANCH  30  31
ENDBRANCH   1  30
TORSDOF 7
ENDMDL
MODEL 9
REMARK VINA RESULT:    -6.151      3.842      9.561
REMARK INTER + INTRA:          -9.581
REMARK INTER:                  -8.651
REMARK INTRA:                  -0.930
REMARK UNBOUND:                -1.093
REMARK  Name = 
REMARK  7 active torsions:
REMARK  status: ('A' for Active; 'I' for Inactive)
REMARK    1  A    between atoms: C_2  and  C_20
REMARK    2  A    between atoms: N_3  and  CA_4
REMARK    3  A    between atoms: CA_4  and  C_5
REMARK    4  A    between atoms: CA_4  and  C_7
REMARK    5  A    between atoms: C_5  and  O_6
REMARK    6  A    between atoms: C_10  and  C_11
REMARK    7  A    between atoms: C_11  and  C_12
REMARK                            x       y       z     vdW  Elec       q    Type
REMARK                         _______ _______ _______ _____ _____    ______ ____
ROOT
ATOM      1  CA  UNL     1      47.908   3.769  16.335  0.00  0.00    +0.000 C 
ENDROOT
BRANCH   1   2
ATOM      2  C   UNL     1      49.163   4.501  16.793  0.00  0.00    +0.000 A 
ATOM      3  C   UNL     1      49.250   5.883  16.572  0.00  0.00    +0.000 A 
ATOM      4  C   UNL     1      50.335   6.623  17.046  0.00  0.00    +0.000 A 
ATOM      5  C   UNL     1      51.358   6.001  17.769  0.00  0.00    +0.000 A 
ATOM      6  C   UNL     1      51.284   4.620  17.990  0.00  0.00    +0.000 A 
ATOM      7  C   UNL     1      50.196   3.880  17.511  0.00  0.00    +0.000 A 
BRANCH   5   8
ATOM      8  C   UNL     1      52.506   6.811  18.328  0.00  0.00    +0.000 C 
BRANCH   8   9
ATOM      9  C   UNL     1      52.155   7.711  19.488  0.00  0.00    +0.000 A 
ATOM     10  C   UNL     1      52.332   9.092  19.419  0.00  0.00    +0.000 A 
ATOM     11  N   UNL     1      52.119   9.922  20.469  0.00  0.00    +0.000 NA
ATOM     12  C   UNL     1      51.721   9.318  21.608  0.00  0.00    +0.000 A 
ATOM     13  C   UNL     1      51.531   7.950  21.692  0.00  0.00    +0.000 A 
ATOM     14  N   UNL     1      51.745   7.121  20.643  0.00  0.00    +0.000 NA
ENDBRANCH   8   9
ENDBRANCH   5   8
ENDBRANCH   1   2
BRANCH   1  17
ATOM     15  O   UNL     1      47.026   3.173  13.694  0.00  0.00    +0.000 OA
ATOM     16  C   UNL     1      46.815   4.287  14.162  0.00  0.00    +0.000 C 
ATOM     17  N   UNL     1      47.159   4.638  15.439  0.00  0.00    +0.000 N 
ATOM     18  H   UNL     1      47.116   5.611  15.713  0.00  0.00    +0.000 HD
BRANCH  16  19
ATOM     19  C   UNL     1      46.121   5.323  13.385  0.00  0.00    +0.000 A 
ATOM     20  C   UNL     1      46.732   6.550  13.163  0.00  0.00    +0.000 A 
ATOM     21  S   UNL     1      45.801   7.609  12.202  0.00  0.00    +0.000 S 
ATOM     22  C   UNL     1      44.537   6.478  12.084  0.00  0.00    +0.000 A 
ATOM     23  N   UNL     1      43.405   6.764  11.380  0.00  0.00    +0.000 NA
ATOM     24  C   UNL     1      42.519   5.827  11.397  0.00  0.00    +0.000 A 
ATOM     25  N   UNL     1      42.651   4.635  12.056  0.00  0.00    +0.000 N 
ATOM     26  C   UNL     1      43.786   4.287  12.747  0.00  0.00    +0.000 A 
ATOM     27  O   UNL     1      43.899   3.175  13.257  0.00  0.00    +0.000 OA
ATOM     28  C   UNL     1      44.819   5.308  12.765  0.00  0.00    +0.000 A 
ATOM     29  H   UNL     1      41.923   3.938  12.026  0.00  0.00    +0.000 HD
ENDBRANCH  16  19
ENDBRANCH   1  17
BRANCH   1  30
ATOM     30  C   UNL     1      46.999   3.274  17.485  0.00  0.00    +0.000 C 
BRANCH  30  31
ATOM     31  O   UNL     1      46.650   4.355  18.355  0.00  0.00    +0.000 OA
ATOM     32  H   UNL     1      46.345   5.090  17.797  0.00  0.00    +0.000 HD
ENDBRANCH  30  31
ENDBRANCH   1  30
TORSDOF 7
ENDMDL
