MODEL 1
REMARK VINA RESULT:    -7.290      0.000      0.000
REMARK INTER + INTRA:         -12.276
REMARK INTER:                 -11.126
REMARK INTRA:                  -1.150
REMARK UNBOUND:                -1.150
REMARK  Name = 
REMARK  10 active torsions:
REMARK  status: ('A' for Active; 'I' for Inactive)
REMARK    1  A    between atoms: C_1  and  C_2
REMARK    2  A    between atoms: C_2  and  C_3
REMARK    3  A    between atoms: C_3  and  C_4
REMARK    4  A    between atoms: C_4  and  C_5
REMARK    5  A    between atoms: C_7  and  C_8
REMARK    6  A    between atoms: C_9  and  O_10
REMARK    7  A    between atoms: O_10  and  C_11
REMARK    8  A    between atoms: C_14  and  C_15
REMARK    9  A    between atoms: C_21  and  O_22
REMARK   10  A    between atoms: O_22  and  C_23
REMARK                            x       y       z     vdW  Elec       q    Type
REMARK                         _______ _______ _______ _____ _____    ______ ____
ROOT
ATOM      1  C   UNL     1      47.728   8.089  13.523  0.00  0.00    +0.000 A 
ATOM      2  C   UNL     1      46.910   7.349  12.655  0.00  0.00    +0.000 A 
ATOM      3  C   UNL     1      46.679   5.981  12.865  0.00  0.00    +0.000 A 
ATOM      4  C   UNL     1      47.265   5.355  13.975  0.00  0.00    +0.000 A 
ATOM      5  C   UNL     1      48.077   6.080  14.847  0.00  0.00    +0.000 A 
ATOM      6  C   UNL     1      48.313   7.435  14.614  0.00  0.00    +0.000 A 
ENDROOT
BRANCH   3   7
ATOM      7  C   UNL     1      45.839   5.173  11.967  0.00  0.00    +0.000 C 
ATOM      8  C   UNL     1      44.966   5.676  11.089  0.00  0.00    +0.000 C 
BRANCH   8   9
ATOM      9  O   UNL     1      44.276   4.876  10.206  0.00  0.00    +0.000 OA
BRANCH   9  10
ATOM     10  C   UNL     1      45.000   4.011   9.416  0.00  0.00    +0.000 A 
ATOM     11  C   UNL     1      44.910   2.620   9.516  0.00  0.00    +0.000 A 
ATOM     12  C   UNL     1      45.676   1.809   8.680  0.00  0.00    +0.000 A 
ATOM     13  C   UNL     1      46.509   2.379   7.710  0.00  0.00    +0.000 A 
ATOM     14  C   UNL     1      46.572   3.773   7.586  0.00  0.00    +0.000 A 
ATOM     15  C   UNL     1      45.814   4.586   8.437  0.00  0.00    +0.000 A 
BRANCH  13  16
ATOM     16  C   UNL     1      47.321   1.464   6.867  0.00  0.00    +0.000 C 
ATOM     17  N   UNL     1      48.431   1.979   6.260  0.00  0.00    +0.000 N 
ATOM     18  O   UNL     1      46.995   0.297   6.693  0.00  0.00    +0.000 OA
ATOM     19  H   UNL     1      48.605   2.970   6.185  0.00  0.00    +0.000 HD
ATOM     20  H   UNL     1      48.906   1.366   5.610  0.00  0.00    +0.000 HD
ENDBRANCH  13  16
ENDBRANCH   9  10
ENDBRANCH   8   9
ENDBRANCH   3   7
BRANCH   1  21
ATOM     21  C   UNL     1      48.011   9.551  13.275  0.00  0.00    +0.000 C 
BRANCH  21  22
ATOM     22  C   UNL     1      49.446   9.864  12.837  0.00  0.00    +0.000 C 
BRANCH  22  24
ATOM     23  C   UNL     1      50.923   8.221  11.630  0.00  0.00    +0.000 C 
ATOM     24  C   UNL     1      49.807   9.242  11.486  0.00  0.00    +0.000 C 
ENDBRANCH  22  24
ENDBRANCH  21  22
ENDBRANCH   1  21
BRANCH   5  25
ATOM     25  O   UNL     1      48.730   5.553  15.934  0.00  0.00    +0.000 OA
BRANCH  25  26
ATOM     26  C   UNL     1      48.054   4.571  16.752  0.00  0.00    +0.000 C 
ATOM     27  C   UNL     1      47.450   5.039  18.091  0.00  0.00    +0.000 C 
ATOM     28  N   UNL     1      48.124   3.934  18.793  0.00  0.00    +0.000 NA
ATOM     29  C   UNL     1      48.988   3.706  17.623  0.00  0.00    +0.000 C 
ATOM     30  H   UNL     1      47.514   3.148  19.015  0.00  0.00    +0.000 HD
ENDBRANCH  25  26
ENDBRANCH   5  25
TORSDOF 9
ENDMDL
MODEL 2
REMARK VINA RESULT:    -7.085      2.121      4.467
REMARK INTER + INTRA:         -11.964
REMARK INTER:                 -10.969
REMARK INTRA:                  -0.994
REMARK UNBOUND:                -1.150
REMARK  Name = 
REMARK  10 active torsions:
REMARK  status: ('A' for Active; 'I' for Inactive)
REMARK    1  A    between atoms: C_1  and  C_2
REMARK    2  A    between atoms: C_2  and  C_3
REMARK    3  A    between atoms: C_3  and  C_4
REMARK    4  A    between atoms: C_4  and  C_5
REMARK    5  A    between atoms: C_7  and  C_8
REMARK    6  A    between atoms: C_9  and  O_10
REMARK    7  A    between atoms: O_10  and  C_11
REMARK    8  A    between atoms: C_14  and  C_15
REMARK    9  A    between atoms: C_21  and  O_22
REMARK   10  A    between atoms: O_22  and  C_23
REMARK                            x       y       z     vdW  Elec       q    Type
REMARK                         _______ _______ _______ _____ _____    ______ ____
ROOT
ATOM      1  C   UNL     1      47.541   4.771  15.727  0.00  0.00    +0.000 A 
ATOM      2  C   UNL     1      46.770   4.154  14.730  0.00  0.00    +0.000 A 
ATOM      3  C   UNL     1      46.637   4.727  13.456  0.00  0.00    +0.000 A 
ATOM      4  C   UNL     1      47.307   5.929  13.178  0.00  0.00    +0.000 A 
ATOM      5  C   UNL     1      48.079   6.549  14.159  0.00  0.00    +0.000 A 
ATOM      6  C   UNL     1      48.185   5.977  15.426  0.00  0.00    +0.000 A 
ENDROOT
BRANCH   3   7
ATOM      7  C   UNL     1      45.825   4.116  12.393  0.00  0.00    +0.000 C 
ATOM      8  C   UNL     1      44.849   4.744  11.729  0.00  0.00    +0.000 C 
BRANCH   8   9
ATOM      9  O   UNL     1      44.185   4.153  10.677  0.00  0.00    +0.000 OA
BRANCH   9  10
ATOM     10  C   UNL     1      44.938   3.638   9.646  0.00  0.00    +0.000 A 
ATOM     11  C   UNL     1      45.098   2.268   9.421  0.00  0.00    +0.000 A 
ATOM     12  C   UNL     1      45.876   1.822   8.353  0.00  0.00    +0.000 A 
ATOM     13  C   UNL     1      46.468   2.740   7.478  0.00  0.00    +0.000 A 
ATOM     14  C   UNL     1      46.277   4.113   7.681  0.00  0.00    +0.000 A 
ATOM     15  C   UNL     1      45.509   4.558   8.763  0.00  0.00    +0.000 A 
BRANCH  13  16
ATOM     16  C   UNL     1      47.308   2.205   6.375  0.00  0.00    +0.000 C 
ATOM     17  N   UNL     1      47.447   2.974   5.254  0.00  0.00    +0.000 N 
ATOM     18  O   UNL     1      47.833   1.101   6.448  0.00  0.00    +0.000 OA
ATOM     19  H   UNL     1      46.856   3.767   5.056  0.00  0.00    +0.000 HD
ATOM     20  H   UNL     1      47.935   2.544   4.478  0.00  0.00    +0.000 HD
ENDBRANCH  13  16
ENDBRANCH   9  10
ENDBRANCH   8   9
ENDBRANCH   3   7
BRANCH   1  21
ATOM     21  C   UNL     1      47.651   4.177  17.110  0.00  0.00    +0.000 C 
BRANCH  21  22
ATOM     22  C   UNL     1      49.047   3.662  17.480  0.00  0.00    +0.000 C 
BRANCH  22  24
ATOM     23  C   UNL     1      50.787   1.868  17.176  0.00  0.00    +0.000 C 
ATOM     24  C   UNL     1      49.369   2.306  16.849  0.00  0.00    +0.000 C 
ENDBRANCH  22  24
ENDBRANCH  21  22
ENDBRANCH   1  21
BRANCH   5  25
ATOM     25  O   UNL     1      48.736   7.744  14.002  0.00  0.00    +0.000 OA
BRANCH  25  26
ATOM     26  C   UNL     1      48.891   8.293  12.673  0.00  0.00    +0.000 C 
ATOM     27  C   UNL     1      50.078   7.799  11.821  0.00  0.00    +0.000 C 
ATOM     28  N   UNL     1      50.464   9.191  11.535  0.00  0.00    +0.000 NA
ATOM     29  C   UNL     1      49.591   9.666  12.620  0.00  0.00    +0.000 C 
ATOM     30  H   UNL     1      50.187   9.518  10.610  0.00  0.00    +0.000 HD
ENDBRANCH  25  26
ENDBRANCH   5  25
TORSDOF 9
ENDMDL
MODEL 3
REMARK VINA RESULT:    -6.925      3.259      4.684
REMARK INTER + INTRA:         -11.718
REMARK INTER:                 -10.983
REMARK INTRA:                  -0.735
REMARK UNBOUND:                -1.150
REMARK  Name = 
REMARK  10 active torsions:
REMARK  status: ('A' for Active; 'I' for Inactive)
REMARK    1  A    between atoms: C_1  and  C_2
REMARK    2  A    between atoms: C_2  and  C_3
REMARK    3  A    between atoms: C_3  and  C_4
REMARK    4  A    between atoms: C_4  and  C_5
REMARK    5  A    between atoms: C_7  and  C_8
REMARK    6  A    between atoms: C_9  and  O_10
REMARK    7  A    between atoms: O_10  and  C_11
REMARK    8  A    between atoms: C_14  and  C_15
REMARK    9  A    between atoms: C_21  and  O_22
REMARK   10  A    between atoms: O_22  and  C_23
REMARK                            x       y       z     vdW  Elec       q    Type
REMARK                         _______ _______ _______ _____ _____    ______ ____
ROOT
ATOM      1  C   UNL     1      47.289   7.657  13.483  0.00  0.00    +0.000 A 
ATOM      2  C   UNL     1      46.859   6.531  12.766  0.00  0.00    +0.000 A 
ATOM      3  C   UNL     1      45.714   6.578  11.956  0.00  0.00    +0.000 A 
ATOM      4  C   UNL     1      45.003   7.784  11.854  0.00  0.00    +0.000 A 
ATOM      5  C   UNL     1      45.422   8.911  12.559  0.00  0.00    +0.000 A 
ATOM      6  C   UNL     1      46.552   8.843  13.375  0.00  0.00    +0.000 A 
ENDROOT
BRANCH   3   7
ATOM      7  C   UNL     1      45.227   5.412  11.203  0.00  0.00    +0.000 C 
ATOM      8  C   UNL     1      43.945   5.192  10.894  0.00  0.00    +0.000 C 
BRANCH   8   9
ATOM      9  O   UNL     1      43.557   4.132  10.104  0.00  0.00    +0.000 OA
BRANCH   9  10
ATOM     10  C   UNL     1      44.518   3.514   9.335  0.00  0.00    +0.000 A 
ATOM     11  C   UNL     1      44.777   2.142   9.386  0.00  0.00    +0.000 A 
ATOM     12  C   UNL     1      45.766   1.588   8.574  0.00  0.00    +0.000 A 
ATOM     13  C   UNL     1      46.479   2.393   7.677  0.00  0.00    +0.000 A 
ATOM     14  C   UNL     1      46.193   3.762   7.600  0.00  0.00    +0.000 A 
ATOM     15  C   UNL     1      45.211   4.319   8.427  0.00  0.00    +0.000 A 
BRANCH  13  16
ATOM     16  C   UNL     1      47.539   1.750   6.859  0.00  0.00    +0.000 C 
ATOM     17  N   UNL     1      48.484   2.560   6.297  0.00  0.00    +0.000 N 
ATOM     18  O   UNL     1      47.553   0.541   6.665  0.00  0.00    +0.000 OA
ATOM     19  H   UNL     1      48.381   3.562   6.235  0.00  0.00    +0.000 HD
ATOM     20  H   UNL     1      49.132   2.112   5.660  0.00  0.00    +0.000 HD
ENDBRANCH  13  16
ENDBRANCH   9  10
ENDBRANCH   8   9
ENDBRANCH   3   7
BRANCH   1  21
ATOM     21  C   UNL     1      48.497   7.596  14.386  0.00  0.00    +0.000 C 
BRANCH  21  22
ATOM     22  C   UNL     1      49.698   8.422  13.912  0.00  0.00    +0.000 C 
BRANCH  22  24
ATOM     23  C   UNL     1      50.034   9.101  11.511  0.00  0.00    +0.000 C 
ATOM     24  C   UNL     1      50.212   7.993  12.536  0.00  0.00    +0.000 C 
ENDBRANCH  22  24
ENDBRANCH  21  22
ENDBRANCH   1  21
BRANCH   5  25
ATOM     25  O   UNL     1      44.775  10.122  12.561  0.00  0.00    +0.000 OA
BRANCH  25  26
ATOM     26  C   UNL     1      44.358  10.698  11.302  0.00  0.00    +0.000 C 
ATOM     27  C   UNL     1      44.220  12.232  11.220  0.00  0.00    +0.000 C 
ATOM     28  N   UNL     1      42.871  12.090  10.646  0.00  0.00    +0.000 NA
ATOM     29  C   UNL     1      42.834  10.677  11.057  0.00  0.00    +0.000 C 
ATOM     30  H   UNL     1      42.832  12.226   9.636  0.00  0.00    +0.000 HD
ENDBRANCH  25  26
ENDBRANCH   5  25
TORSDOF 9
ENDMDL
MODEL 4
REMARK VINA RESULT:    -6.678      3.532      8.267
REMARK INTER + INTRA:         -11.341
REMARK INTER:                 -10.312
REMARK INTRA:                  -1.029
REMARK UNBOUND:                -1.150
REMARK  Name = 
REMARK  10 active torsions:
REMARK  status: ('A' for Active; 'I' for Inactive)
REMARK    1  A    between atoms: C_1  and  C_2
REMARK    2  A    between atoms: C_2  and  C_3
REMARK    3  A    between atoms: C_3  and  C_4
REMARK    4  A    between atoms: C_4  and  C_5
REMARK    5  A    between atoms: C_7  and  C_8
REMARK    6  A    between atoms: C_9  and  O_10
REMARK    7  A    between atoms: O_10  and  C_11
REMARK    8  A    between atoms: C_14  and  C_15
REMARK    9  A    between atoms: C_21  and  O_22
REMARK   10  A    between atoms: O_22  and  C_23
REMARK                            x       y       z     vdW  Elec       q    Type
REMARK                         _______ _______ _______ _____ _____    ______ ____
ROOT
ATOM      1  C   UNL     1      45.120   4.747  11.222  0.00  0.00    +0.000 A 
ATOM      2  C   UNL     1      45.498   3.978  12.334  0.00  0.00    +0.000 A 
ATOM      3  C   UNL     1      46.421   4.464  13.272  0.00  0.00    +0.000 A 
ATOM      4  C   UNL     1      46.956   5.750  13.097  0.00  0.00    +0.000 A 
ATOM      5  C   UNL     1      46.585   6.524  11.999  0.00  0.00    +0.000 A 
ATOM      6  C   UNL     1      45.681   6.020  11.064  0.00  0.00    +0.000 A 
ENDROOT
BRANCH   3   7
ATOM      7  C   UNL     1      46.852   3.680  14.440  0.00  0.00    +0.000 C 
ATOM      8  C   UNL     1      47.017   4.179  15.669  0.00  0.00    +0.000 C 
BRANCH   8   9
ATOM      9  O   UNL     1      47.329   3.380  16.746  0.00  0.00    +0.000 OA
BRANCH   9  10
ATOM     10  C   UNL     1      48.659   3.207  17.058  0.00  0.00    +0.000 A 
ATOM     11  C   UNL     1      49.321   1.981  16.947  0.00  0.00    +0.000 A 
ATOM     12  C   UNL     1      50.672   1.885  17.281  0.00  0.00    +0.000 A 
ATOM     13  C   UNL     1      51.382   3.020  17.691  0.00  0.00    +0.000 A 
ATOM     14  C   UNL     1      50.727   4.256  17.767  0.00  0.00    +0.000 A 
ATOM     15  C   UNL     1      49.367   4.347  17.446  0.00  0.00    +0.000 A 
BRANCH  13  16
ATOM     16  C   UNL     1      52.811   2.849  18.059  0.00  0.00    +0.000 C 
ATOM     17  N   UNL     1      53.181   1.665  18.630  0.00  0.00    +0.000 N 
ATOM     18  O   UNL     1      53.628   3.745  17.888  0.00  0.00    +0.000 OA
ATOM     19  H   UNL     1      52.515   1.002  18.999  0.00  0.00    +0.000 HD
ATOM     20  H   UNL     1      54.135   1.612  18.967  0.00  0.00    +0.000 HD
ENDBRANCH  13  16
ENDBRANCH   9  10
ENDBRANCH   8   9
ENDBRANCH   3   7
BRANCH   1  21
ATOM     21  C   UNL     1      44.158   4.208  10.191  0.00  0.00    +0.000 C 
BRANCH  21  22
ATOM     22  C   UNL     1      44.248   2.697   9.955  0.00  0.00    +0.000 C 
BRANCH  22  24
ATOM     23  C   UNL     1      45.392   3.424   7.833  0.00  0.00    +0.000 C 
ATOM     24  C   UNL     1      45.260   2.321   8.870  0.00  0.00    +0.000 C 
ENDBRANCH  22  24
ENDBRANCH  21  22
ENDBRANCH   1  21
BRANCH   5  25
ATOM     25  O   UNL     1      47.081   7.773  11.715  0.00  0.00    +0.000 OA
BRANCH  25  26
ATOM     26  C   UNL     1      46.629   8.903  12.494  0.00  0.00    +0.000 C 
ATOM     27  C   UNL     1      45.206   9.438  12.233  0.00  0.00    +0.000 C 
ATOM     28  N   UNL     1      45.734  10.806  12.098  0.00  0.00    +0.000 NA
ATOM     29  C   UNL     1      47.101  10.276  11.972  0.00  0.00    +0.000 C 
ATOM     30  H   UNL     1      45.592  11.389  12.922  0.00  0.00    +0.000 HD
ENDBRANCH  25  26
ENDBRANCH   5  25
TORSDOF 9
ENDMDL
MODEL 5
REMARK VINA RESULT:    -6.598      1.233      2.133
REMARK INTER + INTRA:         -11.220
REMARK INTER:                 -10.420
REMARK INTRA:                  -0.799
REMARK UNBOUND:                -1.150
REMARK  Name = 
REMARK  10 active torsions:
REMARK  status: ('A' for Active; 'I' for Inactive)
REMARK    1  A    between atoms: C_1  and  C_2
REMARK    2  A    between atoms: C_2  and  C_3
REMARK    3  A    between atoms: C_3  and  C_4
REMARK    4  A    between atoms: C_4  and  C_5
REMARK    5  A    between atoms: C_7  and  C_8
REMARK    6  A    between atoms: C_9  and  O_10
REMARK    7  A    between atoms: O_10  and  C_11
REMARK    8  A    between atoms: C_14  and  C_15
REMARK    9  A    between atoms: C_21  and  O_22
REMARK   10  A    between atoms: O_22  and  C_23
REMARK                            x       y       z     vdW  Elec       q    Type
REMARK                         _______ _______ _______ _____ _____    ______ ____
ROOT
ATOM      1  C   UNL     1      48.186   6.966  14.062  0.00  0.00    +0.000 A 
ATOM      2  C   UNL     1      47.480   6.513  12.938  0.00  0.00    +0.000 A 
ATOM      3  C   UNL     1      46.756   5.311  12.970  0.00  0.00    +0.000 A 
ATOM      4  C   UNL     1      46.730   4.564  14.158  0.00  0.00    +0.000 A 
ATOM      5  C   UNL     1      47.426   5.006  15.283  0.00  0.00    +0.000 A 
ATOM      6  C   UNL     1      48.156   6.193  15.230  0.00  0.00    +0.000 A 
ENDROOT
BRANCH   3   7
ATOM      7  C   UNL     1      46.017   4.799  11.805  0.00  0.00    +0.000 C 
ATOM      8  C   UNL     1      44.712   4.993  11.591  0.00  0.00    +0.000 C 
BRANCH   8   9
ATOM      9  O   UNL     1      44.092   4.572  10.436  0.00  0.00    +0.000 OA
BRANCH   9  10
ATOM     10  C   UNL     1      44.863   3.952   9.478  0.00  0.00    +0.000 A 
ATOM     11  C   UNL     1      45.628   4.647   8.539  0.00  0.00    +0.000 A 
ATOM     12  C   UNL     1      46.385   3.947   7.600  0.00  0.00    +0.000 A 
ATOM     13  C   UNL     1      46.413   2.547   7.615  0.00  0.00    +0.000 A 
ATOM     14  C   UNL     1      45.674   1.851   8.580  0.00  0.00    +0.000 A 
ATOM     15  C   UNL     1      44.903   2.555   9.512  0.00  0.00    +0.000 A 
BRANCH  13  16
ATOM     16  C   UNL     1      47.216   1.858   6.572  0.00  0.00    +0.000 C 
ATOM     17  N   UNL     1      47.858   2.635   5.650  0.00  0.00    +0.000 N 
ATOM     18  O   UNL     1      47.280   0.636   6.517  0.00  0.00    +0.000 OA
ATOM     19  H   UNL     1      47.649   3.613   5.516  0.00  0.00    +0.000 HD
ATOM     20  H   UNL     1      48.311   2.140   4.891  0.00  0.00    +0.000 HD
ENDBRANCH  13  16
ENDBRANCH   9  10
ENDBRANCH   8   9
ENDBRANCH   3   7
BRANCH   1  21
ATOM     21  C   UNL     1      48.998   8.238  14.016  0.00  0.00    +0.000 C 
BRANCH  21  22
ATOM     22  C   UNL     1      49.598   8.667  15.359  0.00  0.00    +0.000 C 
BRANCH  22  24
ATOM     23  C   UNL     1      48.000   9.536  17.101  0.00  0.00    +0.000 C 
ATOM     24  C   UNL     1      48.919   9.906  15.947  0.00  0.00    +0.000 C 
ENDBRANCH  22  24
ENDBRANCH  21  22
ENDBRANCH   1  21
BRANCH   5  25
ATOM     25  O   UNL     1      47.499   4.330  16.476  0.00  0.00    +0.000 OA
BRANCH  25  26
ATOM     26  C   UNL     1      48.674   4.487  17.302  0.00  0.00    +0.000 C 
ATOM     27  C   UNL     1      49.493   3.225  17.642  0.00  0.00    +0.000 C 
ATOM     28  N   UNL     1      49.464   3.579  19.071  0.00  0.00    +0.000 NA
ATOM     29  C   UNL     1      48.393   4.555  18.818  0.00  0.00    +0.000 C 
ATOM     30  H   UNL     1      50.329   3.996  19.414  0.00  0.00    +0.000 HD
ENDBRANCH  25  26
ENDBRANCH   5  25
TORSDOF 9
ENDMDL
MODEL 6
REMARK VINA RESULT:    -6.263      2.969      7.849
REMARK INTER + INTRA:         -10.708
REMARK INTER:                 -10.036
REMARK INTRA:                  -0.672
REMARK UNBOUND:                -1.150
REMARK  Name = 
REMARK  10 active torsions:
REMARK  status: ('A' for Active; 'I' for Inactive)
REMARK    1  A    between atoms: C_1  and  C_2
REMARK    2  A    between atoms: C_2  and  C_3
REMARK    3  A    between atoms: C_3  and  C_4
REMARK    4  A    between atoms: C_4  and  C_5
REMARK    5  A    between atoms: C_7  and  C_8
REMARK    6  A    between atoms: C_9  and  O_10
REMARK    7  A    between atoms: O_10  and  C_11
REMARK    8  A    between atoms: C_14  and  C_15
REMARK    9  A    between atoms: C_21  and  O_22
REMARK   10  A    between atoms: O_22  and  C_23
REMARK                            x       y       z     vdW  Elec       q    Type
REMARK                         _______ _______ _______ _____ _____    ______ ____
ROOT
ATOM      1  C   UNL     1      47.128   6.533  12.128  0.00  0.00    +0.000 A 
ATOM      2  C   UNL     1      47.537   5.806  13.257  0.00  0.00    +0.000 A 
ATOM      3  C   UNL     1      46.654   4.944  13.925  0.00  0.00    +0.000 A 
ATOM      4  C   UNL     1      45.346   4.799  13.437  0.00  0.00    +0.000 A 
ATOM      5  C   UNL     1      44.929   5.513  12.314  0.00  0.00    +0.000 A 
ATOM      6  C   UNL     1      45.813   6.380  11.673  0.00  0.00    +0.000 A 
ENDROOT
BRANCH   3   7
ATOM      7  C   UNL     1      47.045   4.180  15.120  0.00  0.00    +0.000 C 
ATOM      8  C   UNL     1      47.794   4.662  16.117  0.00  0.00    +0.000 C 
BRANCH   8   9
ATOM      9  O   UNL     1      48.050   3.933  17.256  0.00  0.00    +0.000 OA
BRANCH   9  10
ATOM     10  C   UNL     1      49.322   3.436  17.433  0.00  0.00    +0.000 A 
ATOM     11  C   UNL     1      49.706   2.151  17.040  0.00  0.00    +0.000 A 
ATOM     12  C   UNL     1      51.015   1.719  17.252  0.00  0.00    +0.000 A 
ATOM     13  C   UNL     1      51.961   2.579  17.822  0.00  0.00    +0.000 A 
ATOM     14  C   UNL     1      51.585   3.880  18.182  0.00  0.00    +0.000 A 
ATOM     15  C   UNL     1      50.266   4.306  17.983  0.00  0.00    +0.000 A 
BRANCH  13  16
ATOM     16  C   UNL     1      53.332   2.053  18.048  0.00  0.00    +0.000 C 
ATOM     17  N   UNL     1      53.838   2.124  19.314  0.00  0.00    +0.000 N 
ATOM     18  O   UNL     1      54.001   1.598  17.129  0.00  0.00    +0.000 OA
ATOM     19  H   UNL     1      53.425   2.692  20.039  0.00  0.00    +0.000 HD
ATOM     20  H   UNL     1      54.809   1.856  19.421  0.00  0.00    +0.000 HD
ENDBRANCH  13  16
ENDBRANCH   9  10
ENDBRANCH   8   9
ENDBRANCH   3   7
BRANCH   1  21
ATOM     21  C   UNL     1      48.065   7.491  11.434  0.00  0.00    +0.000 C 
BRANCH  21  22
ATOM     22  C   UNL     1      48.756   8.499  12.359  0.00  0.00    +0.000 C 
BRANCH  22  24
ATOM     23  C   UNL     1      50.782   7.664  11.119  0.00  0.00    +0.000 C 
ATOM     24  C   UNL     1      50.278   8.339  12.384  0.00  0.00    +0.000 C 
ENDBRANCH  22  24
ENDBRANCH  21  22
ENDBRANCH   1  21
BRANCH   5  25
ATOM     25  O   UNL     1      43.663   5.474  11.785  0.00  0.00    +0.000 OA
BRANCH  25  26
ATOM     26  C   UNL     1      43.256   4.316  11.020  0.00  0.00    +0.000 C 
ATOM     27  C   UNL     1      43.296   2.940  11.715  0.00  0.00    +0.000 C 
ATOM     28  N   UNL     1      44.056   2.380  10.585  0.00  0.00    +0.000 NA
ATOM     29  C   UNL     1      44.348   3.738  10.096  0.00  0.00    +0.000 C 
ATOM     30  H   UNL     1      43.495   1.823   9.941  0.00  0.00    +0.000 HD
ENDBRANCH  25  26
ENDBRANCH   5  25
TORSDOF 9
ENDMDL
MODEL 7
REMARK VINA RESULT:    -5.888      3.236      8.112
REMARK INTER + INTRA:         -10.136
REMARK INTER:                  -9.304
REMARK INTRA:                  -0.831
REMARK UNBOUND:                -1.150
REMARK  Name = 
REMARK  10 active torsions:
REMARK  status: ('A' for Active; 'I' for Inactive)
REMARK    1  A    between atoms: C_1  and  C_2
REMARK    2  A    between atoms: C_2  and  C_3
REMARK    3  A    between atoms: C_3  and  C_4
REMARK    4  A    between atoms: C_4  and  C_5
REMARK    5  A    between atoms: C_7  and  C_8
REMARK    6  A    between atoms: C_9  and  O_10
REMARK    7  A    between atoms: O_10  and  C_11
REMARK    8  A    between atoms: C_14  and  C_15
REMARK    9  A    between atoms: C_21  and  O_22
REMARK   10  A    between atoms: O_22  and  C_23
REMARK                            x       y       z     vdW  Elec       q    Type
REMARK                         _______ _______ _______ _____ _____    ______ ____
ROOT
ATOM      1  C   UNL     1      47.027   6.748  12.694  0.00  0.00    +0.000 A 
ATOM      2  C   UNL     1      47.865   6.693  13.817  0.00  0.00    +0.000 A 
ATOM      3  C   UNL     1      47.734   5.675  14.773  0.00  0.00    +0.000 A 
ATOM      4  C   UNL     1      46.755   4.686  14.583  0.00  0.00    +0.000 A 
ATOM      5  C   UNL     1      45.919   4.727  13.468  0.00  0.00    +0.000 A 
ATOM      6  C   UNL     1      46.049   5.757  12.537  0.00  0.00    +0.000 A 
ENDROOT
BRANCH   3   7
ATOM      7  C   UNL     1      48.585   5.596  15.970  0.00  0.00    +0.000 C 
ATOM      8  C   UNL     1      48.436   4.697  16.949  0.00  0.00    +0.000 C 
BRANCH   8   9
ATOM      9  O   UNL     1      49.320   4.609  18.000  0.00  0.00    +0.000 OA
BRANCH   9  10
ATOM     10  C   UNL     1      50.302   3.646  17.939  0.00  0.00    +0.000 A 
ATOM     11  C   UNL     1      50.107   2.384  17.370  0.00  0.00    +0.000 A 
ATOM     12  C   UNL     1      51.151   1.461  17.344  0.00  0.00    +0.000 A 
ATOM     13  C   UNL     1      52.410   1.802  17.852  0.00  0.00    +0.000 A 
ATOM     14  C   UNL     1      52.617   3.079  18.389  0.00  0.00    +0.000 A 
ATOM     15  C   UNL     1      51.562   4.000  18.428  0.00  0.00    +0.000 A 
BRANCH  13  16
ATOM     16  C   UNL     1      53.475   0.767  17.821  0.00  0.00    +0.000 C 
ATOM     17  N   UNL     1      53.187  -0.455  18.359  0.00  0.00    +0.000 N 
ATOM     18  O   UNL     1      54.585   1.003  17.360  0.00  0.00    +0.000 OA
ATOM     19  H   UNL     1      52.385  -0.619  18.949  0.00  0.00    +0.000 HD
ATOM     20  H   UNL     1      53.959  -1.107  18.420  0.00  0.00    +0.000 HD
ENDBRANCH  13  16
ENDBRANCH   9  10
ENDBRANCH   8   9
ENDBRANCH   3   7
BRANCH   1  21
ATOM     21  C   UNL     1      47.141   7.867  11.686  0.00  0.00    +0.000 C 
BRANCH  21  22
ATOM     22  C   UNL     1      46.698   9.241  12.199  0.00  0.00    +0.000 C 
BRANCH  22  24
ATOM     23  C   UNL     1      44.407   9.730  11.275  0.00  0.00    +0.000 C 
ATOM     24  C   UNL     1      45.200   9.311  12.503  0.00  0.00    +0.000 C 
ENDBRANCH  22  24
ENDBRANCH  21  22
ENDBRANCH   1  21
BRANCH   5  25
ATOM     25  O   UNL     1      44.906   3.836  13.213  0.00  0.00    +0.000 OA
BRANCH  25  26
ATOM     26  C   UNL     1      44.301   3.816  11.901  0.00  0.00    +0.000 C 
ATOM     27  C   UNL     1      43.206   2.765  11.626  0.00  0.00    +0.000 C 
ATOM     28  N   UNL     1      43.901   2.349  10.395  0.00  0.00    +0.000 NA
ATOM     29  C   UNL     1      45.114   3.061  10.828  0.00  0.00    +0.000 C 
ATOM     30  H   UNL     1      43.488   2.719   9.539  0.00  0.00    +0.000 HD
ENDBRANCH  25  26
ENDBRANCH   5  25
TORSDOF 9
ENDMDL
MODEL 8
REMARK VINA RESULT:    -5.848      2.775      4.552
REMARK INTER + INTRA:         -10.075
REMARK INTER:                  -9.022
REMARK INTRA:                  -1.052
REMARK UNBOUND:                -1.150
REMARK  Name = 
REMARK  10 active torsions:
REMARK  status: ('A' for Active; 'I' for Inactive)
REMARK    1  A    between atoms: C_1  and  C_2
REMARK    2  A    between atoms: C_2  and  C_3
REMARK    3  A    between atoms: C_3  and  C_4
REMARK    4  A    between atoms: C_4  and  C_5
REMARK    5  A    between atoms: C_7  and  C_8
REMARK    6  A    between atoms: C_9  and  O_10
REMARK    7  A    between atoms: O_10  and  C_11
REMARK    8  A    between atoms: C_14  and  C_15
REMARK    9  A    between atoms: C_21  and  O_22
REMARK   10  A    between atoms: O_22  and  C_23
REMARK                            x       y       z     vdW  Elec       q    Type
REMARK                         _______ _______ _______ _____ _____    ______ ____
ROOT
ATOM      1  C   UNL     1      48.177   8.139  14.184  0.00  0.00    +0.000 A 
ATOM      2  C   UNL     1      47.354   7.128  13.665  0.00  0.00    +0.000 A 
ATOM      3  C   UNL     1      47.274   6.894  12.284  0.00  0.00    +0.000 A 
ATOM      4  C   UNL     1      48.050   7.678  11.415  0.00  0.00    +0.000 A 
ATOM      5  C   UNL     1      48.875   8.683  11.920  0.00  0.00    +0.000 A 
ATOM      6  C   UNL     1      48.928   8.916  13.294  0.00  0.00    +0.000 A 
ENDROOT
BRANCH   3   7
ATOM      7  C   UNL     1      46.410   5.854  11.704  0.00  0.00    +0.000 C 
ATOM      8  C   UNL     1      45.343   6.096  10.936  0.00  0.00    +0.000 C 
BRANCH   8   9
ATOM      9  O   UNL     1      44.626   5.082  10.342  0.00  0.00    +0.000 OA
BRANCH   9  10
ATOM     10  C   UNL     1      45.266   4.303   9.403  0.00  0.00    +0.000 A 
ATOM     11  C   UNL     1      46.027   4.831   8.357  0.00  0.00    +0.000 A 
ATOM     12  C   UNL     1      46.647   3.977   7.445  0.00  0.00    +0.000 A 
ATOM     13  C   UNL     1      46.543   2.589   7.592  0.00  0.00    +0.000 A 
ATOM     14  C   UNL     1      45.810   2.059   8.662  0.00  0.00    +0.000 A 
ATOM     15  C   UNL     1      45.176   2.919   9.568  0.00  0.00    +0.000 A 
BRANCH  13  16
ATOM     16  C   UNL     1      47.202   1.731   6.573  0.00  0.00    +0.000 C 
ATOM     17  N   UNL     1      47.979   2.347   5.634  0.00  0.00    +0.000 N 
ATOM     18  O   UNL     1      47.034   0.519   6.552  0.00  0.00    +0.000 OA
ATOM     19  H   UNL     1      47.958   3.343   5.472  0.00  0.00    +0.000 HD
ATOM     20  H   UNL     1      48.331   1.755   4.891  0.00  0.00    +0.000 HD
ENDBRANCH  13  16
ENDBRANCH   9  10
ENDBRANCH   8   9
ENDBRANCH   3   7
BRANCH   1  21
ATOM     21  C   UNL     1      48.231   8.418  15.667  0.00  0.00    +0.000 C 
BRANCH  21  22
ATOM     22  C   UNL     1      48.882   7.312  16.506  0.00  0.00    +0.000 C 
BRANCH  22  24
ATOM     23  C   UNL     1      50.912   5.878  16.909  0.00  0.00    +0.000 C 
ATOM     24  C   UNL     1      50.308   6.985  16.059  0.00  0.00    +0.000 C 
ENDBRANCH  22  24
ENDBRANCH  21  22
ENDBRANCH   1  21
BRANCH   5  25
ATOM     25  O   UNL     1      49.638   9.530  11.155  0.00  0.00    +0.000 OA
BRANCH  25  26
ATOM     26  C   UNL     1      51.078   9.479  11.273  0.00  0.00    +0.000 C 
ATOM     27  C   UNL     1      51.917  10.177  10.183  0.00  0.00    +0.000 C 
ATOM     28  N   UNL     1      52.723   8.957  10.008  0.00  0.00    +0.000 NA
ATOM     29  C   UNL     1      51.721   8.177  10.751  0.00  0.00    +0.000 C 
ATOM     30  H   UNL     1      53.636   8.993  10.461  0.00  0.00    +0.000 HD
ENDBRANCH  25  26
ENDBRANCH   5  25
TORSDOF 9
ENDMDL
MODEL 9
REMARK VINA RESULT:    -5.712      3.402      8.103
REMARK INTER + INTRA:          -9.868
REMARK INTER:                  -9.070
REMARK INTRA:                  -0.798
REMARK UNBOUND:                -1.150
REMARK  Name = 
REMARK  10 active torsions:
REMARK  status: ('A' for Active; 'I' for Inactive)
REMARK    1  A    between atoms: C_1  and  C_2
REMARK    2  A    between atoms: C_2  and  C_3
REMARK    3  A    between atoms: C_3  and  C_4
REMARK    4  A    between atoms: C_4  and  C_5
REMARK    5  A    between atoms: C_7  and  C_8
REMARK    6  A    between atoms: C_9  and  O_10
REMARK    7  A    between atoms: O_10  and  C_11
REMARK    8  A    between atoms: C_14  and  C_15
REMARK    9  A    between atoms: C_21  and  O_22
REMARK   10  A    between atoms: O_22  and  C_23
REMARK                            x       y       z     vdW  Elec       q    Type
REMARK                         _______ _______ _______ _____ _____    ______ ____
ROOT
ATOM      1  C   UNL     1      45.965   5.665  11.804  0.00  0.00    +0.000 A 
ATOM      2  C   UNL     1      46.239   4.864  12.923  0.00  0.00    +0.000 A 
ATOM      3  C   UNL     1      47.049   5.331  13.969  0.00  0.00    +0.000 A 
ATOM      4  C   UNL     1      47.575   6.630  13.894  0.00  0.00    +0.000 A 
ATOM      5  C   UNL     1      47.306   7.437  12.789  0.00  0.00    +0.000 A 
ATOM      6  C   UNL     1      46.515   6.952  11.748  0.00  0.00    +0.000 A 
ENDROOT
BRANCH   3   7
ATOM      7  C   UNL     1      47.370   4.512  15.149  0.00  0.00    +0.000 C 
ATOM      8  C   UNL     1      48.036   4.955  16.219  0.00  0.00    +0.000 C 
BRANCH   8   9
ATOM      9  O   UNL     1      48.225   4.172  17.336  0.00  0.00    +0.000 OA
BRANCH   9  10
ATOM     10  C   UNL     1      49.429   3.516  17.469  0.00  0.00    +0.000 A 
ATOM     11  C   UNL     1      49.633   2.196  17.061  0.00  0.00    +0.000 A 
ATOM     12  C   UNL     1      50.883   1.599  17.228  0.00  0.00    +0.000 A 
ATOM     13  C   UNL     1      51.949   2.329  17.767  0.00  0.00    +0.000 A 
ATOM     14  C   UNL     1      51.754   3.664  18.142  0.00  0.00    +0.000 A 
ATOM     15  C   UNL     1      50.494   4.256  17.989  0.00  0.00    +0.000 A 
BRANCH  13  16
ATOM     16  C   UNL     1      53.248   1.630  17.945  0.00  0.00    +0.000 C 
ATOM     17  N   UNL     1      54.364   2.229  17.434  0.00  0.00    +0.000 N 
ATOM     18  O   UNL     1      53.319   0.542  18.501  0.00  0.00    +0.000 OA
ATOM     19  H   UNL     1      54.324   2.994  16.777  0.00  0.00    +0.000 HD
ATOM     20  H   UNL     1      55.218   1.687  17.476  0.00  0.00    +0.000 HD
ENDBRANCH  13  16
ENDBRANCH   9  10
ENDBRANCH   8   9
ENDBRANCH   3   7
BRANCH   1  21
ATOM     21  C   UNL     1      45.126   5.149  10.659  0.00  0.00    +0.000 C 
BRANCH  21  22
ATOM     22  C   UNL     1      44.681   3.689  10.795  0.00  0.00    +0.000 C 
BRANCH  22  24
ATOM     23  C   UNL     1      44.987   3.803   8.299  0.00  0.00    +0.000 C 
ATOM     24  C   UNL     1      44.356   3.036   9.450  0.00  0.00    +0.000 C 
ENDBRANCH  22  24
ENDBRANCH  21  22
ENDBRANCH   1  21
BRANCH   5  25
ATOM     25  O   UNL     1      47.805   8.702  12.601  0.00  0.00    +0.000 OA
BRANCH  25  26
ATOM     26  C   UNL     1      49.134   8.859  12.054  0.00  0.00    +0.000 C 
ATOM     27  C   UNL     1      49.861   7.597  11.545  0.00  0.00    +0.000 C 
ATOM     28  N   UNL     1      51.050   7.952  12.338  0.00  0.00    +0.000 NA
ATOM     29  C   UNL     1      50.261   8.927  13.105  0.00  0.00    +0.000 C 
ATOM     30  H   UNL     1      51.804   8.369  11.792  0.00  0.00    +0.000 HD
ENDBRANCH  25  26
ENDBRANCH   5  25
TORSDOF 9
ENDMDL
