MODEL 1
REMARK VINA RESULT:    -8.499      0.000      0.000
REMARK INTER + INTRA:         -13.463
REMARK INTER:                 -11.976
REMARK INTRA:                  -1.486
REMARK UNBOUND:                -1.486
REMARK  Name = 
REMARK  8 active torsions:
REMARK  status: ('A' for Active; 'I' for Inactive)
REMARK    1  A    between atoms: C_1  and  C_2
REMARK    2  A    between atoms: C_2  and  N_3
REMARK    3  A    between atoms: C_2  and  C_25
REMARK    4  A    between atoms: N_3  and  C_4
REMARK    5  A    between atoms: C_4  and  C_5
REMARK    6  A    between atoms: C_8  and  C_9
REMARK    7  A    between atoms: C_9  and  N_10
REMARK    8  A    between atoms: C_11  and  C_13
REMARK                            x       y       z     vdW  Elec       q    Type
REMARK                         _______ _______ _______ _____ _____    ______ ____
ROOT
ATOM      1  C   UNL     1      44.563   5.798  10.998  0.00  0.00    +0.000 A 
ATOM      2  C   UNL     1      44.149   6.509  12.133  0.00  0.00    +0.000 A 
ATOM      3  C   UNL     1      45.064   7.259  12.881  0.00  0.00    +0.000 A 
ATOM      4  C   UNL     1      46.412   7.318  12.507  0.00  0.00    +0.000 A 
ATOM      5  C   UNL     1      46.831   6.599  11.380  0.00  0.00    +0.000 A 
ATOM      6  C   UNL     1      45.916   5.854  10.630  0.00  0.00    +0.000 A 
ENDROOT
BRANCH   1   7
ATOM      7  C   UNL     1      43.599   4.919  10.230  0.00  0.00    +0.000 C 
BRANCH   7   8
ATOM      8  N   UNL     1      44.156   4.432   8.968  0.00  0.00    +0.000 NA
ATOM      9  H   UNL     1      43.526   4.684   8.207  0.00  0.00    +0.000 HD
BRANCH   8  11
ATOM     10  C   UNL     1      44.421   2.366  10.342  0.00  0.00    +0.000 C 
ATOM     11  C   UNL     1      44.332   2.970   8.935  0.00  0.00    +0.000 C 
BRANCH  11  12
ATOM     12  C   UNL     1      45.571   2.625   8.110  0.00  0.00    +0.000 A 
ATOM     13  C   UNL     1      46.232   3.614   7.363  0.00  0.00    +0.000 A 
ATOM     14  C   UNL     1      47.403   3.322   6.659  0.00  0.00    +0.000 A 
ATOM     15  C   UNL     1      47.931   2.035   6.689  0.00  0.00    +0.000 A 
ATOM     16  C   UNL     1      47.283   1.035   7.408  0.00  0.00    +0.000 A 
ATOM     17  C   UNL     1      46.112   1.327   8.114  0.00  0.00    +0.000 A 
ENDBRANCH  11  12
ENDBRANCH   8  11
ENDBRANCH   7   8
ENDBRANCH   1   7
BRANCH   4  18
ATOM     18  C   UNL     1      47.412   8.090  13.327  0.00  0.00    +0.000 C 
BRANCH  18  19
ATOM     19  N   UNL     1      47.721   7.393  14.549  0.00  0.00    +0.000 N 
ATOM     20  C   UNL     1      48.978   6.900  14.793  0.00  0.00    +0.000 C 
ATOM     21  O   UNL     1      49.905   7.053  14.002  0.00  0.00    +0.000 OA
ATOM     22  H   UNL     1      46.937   7.043  15.090  0.00  0.00    +0.000 HD
BRANCH  20  23
ATOM     23  C   UNL     1      49.177   6.235  16.087  0.00  0.00    +0.000 A 
ATOM     24  C   UNL     1      50.145   6.709  16.964  0.00  0.00    +0.000 A 
ATOM     25  S   UNL     1      50.205   5.859  18.441  0.00  0.00    +0.000 S 
ATOM     26  C   UNL     1      48.975   4.792  17.940  0.00  0.00    +0.000 A 
ATOM     27  N   UNL     1      48.556   3.783  18.744  0.00  0.00    +0.000 NA
ATOM     28  C   UNL     1      47.640   3.033  18.227  0.00  0.00    +0.000 A 
ATOM     29  N   UNL     1      47.099   3.208  16.982  0.00  0.00    +0.000 N 
ATOM     30  C   UNL     1      47.465   4.233  16.143  0.00  0.00    +0.000 A 
ATOM     31  O   UNL     1      46.933   4.391  15.053  0.00  0.00    +0.000 OA
ATOM     32  C   UNL     1      48.510   5.096  16.674  0.00  0.00    +0.000 A 
ATOM     33  H   UNL     1      46.375   2.595  16.637  0.00  0.00    +0.000 HD
ENDBRANCH  20  23
ENDBRANCH  18  19
ENDBRANCH   4  18
TORSDOF 7
ENDMDL
MODEL 2
REMARK VINA RESULT:    -8.111      1.927      2.215
REMARK INTER + INTRA:         -12.917
REMARK INTER:                 -12.027
REMARK INTRA:                  -0.890
REMARK UNBOUND:                -1.486
REMARK  Name = 
REMARK  8 active torsions:
REMARK  status: ('A' for Active; 'I' for Inactive)
REMARK    1  A    between atoms: C_1  and  C_2
REMARK    2  A    between atoms: C_2  and  N_3
REMARK    3  A    between atoms: C_2  and  C_25
REMARK    4  A    between atoms: N_3  and  C_4
REMARK    5  A    between atoms: C_4  and  C_5
REMARK    6  A    between atoms: C_8  and  C_9
REMARK    7  A    between atoms: C_9  and  N_10
REMARK    8  A    between atoms: C_11  and  C_13
REMARK                            x       y       z     vdW  Elec       q    Type
REMARK                         _______ _______ _______ _____ _____    ______ ____
ROOT
ATOM      1  C   UNL     1      45.319   5.563  11.700  0.00  0.00    +0.000 A 
ATOM      2  C   UNL     1      45.561   4.956  12.940  0.00  0.00    +0.000 A 
ATOM      3  C   UNL     1      46.652   5.346  13.726  0.00  0.00    +0.000 A 
ATOM      4  C   UNL     1      47.522   6.353  13.290  0.00  0.00    +0.000 A 
ATOM      5  C   UNL     1      47.289   6.952  12.046  0.00  0.00    +0.000 A 
ATOM      6  C   UNL     1      46.196   6.567  11.263  0.00  0.00    +0.000 A 
ENDROOT
BRANCH   1   7
ATOM      7  C   UNL     1      44.190   5.095  10.805  0.00  0.00    +0.000 C 
BRANCH   7   8
ATOM      8  N   UNL     1      44.641   4.740   9.460  0.00  0.00    +0.000 NA
ATOM      9  H   UNL     1      44.149   5.318   8.780  0.00  0.00    +0.000 HD
BRANCH   8  11
ATOM     10  C   UNL     1      44.158   2.461  10.358  0.00  0.00    +0.000 C 
ATOM     11  C   UNL     1      44.385   3.330   9.114  0.00  0.00    +0.000 C 
BRANCH  11  12
ATOM     12  C   UNL     1      45.543   2.794   8.273  0.00  0.00    +0.000 A 
ATOM     13  C   UNL     1      46.315   3.662   7.483  0.00  0.00    +0.000 A 
ATOM     14  C   UNL     1      47.416   3.191   6.764  0.00  0.00    +0.000 A 
ATOM     15  C   UNL     1      47.762   1.845   6.820  0.00  0.00    +0.000 A 
ATOM     16  C   UNL     1      47.000   0.964   7.583  0.00  0.00    +0.000 A 
ATOM     17  C   UNL     1      45.899   1.435   8.305  0.00  0.00    +0.000 A 
ENDBRANCH  11  12
ENDBRANCH   8  11
ENDBRANCH   7   8
ENDBRANCH   1   7
BRANCH   4  18
ATOM     18  C   UNL     1      48.721   6.750  14.110  0.00  0.00    +0.000 C 
BRANCH  18  19
ATOM     19  N   UNL     1      48.352   6.974  15.485  0.00  0.00    +0.000 N 
ATOM     20  C   UNL     1      49.085   6.447  16.517  0.00  0.00    +0.000 C 
ATOM     21  O   UNL     1      50.104   5.789  16.325  0.00  0.00    +0.000 OA
ATOM     22  H   UNL     1      47.404   7.292  15.660  0.00  0.00    +0.000 HD
BRANCH  20  23
ATOM     23  C   UNL     1      48.626   6.771  17.874  0.00  0.00    +0.000 A 
ATOM     24  C   UNL     1      48.225   8.066  18.176  0.00  0.00    +0.000 A 
ATOM     25  S   UNL     1      47.669   8.253  19.777  0.00  0.00    +0.000 S 
ATOM     26  C   UNL     1      47.995   6.622  20.141  0.00  0.00    +0.000 A 
ATOM     27  N   UNL     1      47.765   6.123  21.381  0.00  0.00    +0.000 NA
ATOM     28  C   UNL     1      48.085   4.880  21.525  0.00  0.00    +0.000 A 
ATOM     29  N   UNL     1      48.605   4.089  20.536  0.00  0.00    +0.000 N 
ATOM     30  C   UNL     1      48.826   4.536  19.256  0.00  0.00    +0.000 A 
ATOM     31  O   UNL     1      49.250   3.794  18.381  0.00  0.00    +0.000 OA
ATOM     32  C   UNL     1      48.499   5.939  19.048  0.00  0.00    +0.000 A 
ATOM     33  H   UNL     1      48.824   3.117  20.706  0.00  0.00    +0.000 HD
ENDBRANCH  20  23
ENDBRANCH  18  19
ENDBRANCH   4  18
TORSDOF 7
ENDMDL
MODEL 3
REMARK VINA RESULT:    -7.979      2.155      2.717
REMARK INTER + INTRA:         -12.730
REMARK INTER:                 -11.518
REMARK INTRA:                  -1.213
REMARK UNBOUND:                -1.486
REMARK  Name = 
REMARK  8 active torsions:
REMARK  status: ('A' for Active; 'I' for Inactive)
REMARK    1  A    between atoms: C_1  and  C_2
REMARK    2  A    between atoms: C_2  and  N_3
REMARK    3  A    between atoms: C_2  and  C_25
REMARK    4  A    between atoms: N_3  and  C_4
REMARK    5  A    between atoms: C_4  and  C_5
REMARK    6  A    between atoms: C_8  and  C_9
REMARK    7  A    between atoms: C_9  and  N_10
REMARK    8  A    between atoms: C_11  and  C_13
REMARK                            x       y       z     vdW  Elec       q    Type
REMARK                         _______ _______ _______ _____ _____    ______ ____
ROOT
ATOM      1  C   UNL     1      45.237   5.568  11.602  0.00  0.00    +0.000 A 
ATOM      2  C   UNL     1      45.536   4.922  12.810  0.00  0.00    +0.000 A 
ATOM      3  C   UNL     1      46.582   5.373  13.623  0.00  0.00    +0.000 A 
ATOM      4  C   UNL     1      47.349   6.483  13.247  0.00  0.00    +0.000 A 
ATOM      5  C   UNL     1      47.061   7.123  12.035  0.00  0.00    +0.000 A 
ATOM      6  C   UNL     1      46.012   6.675  11.226  0.00  0.00    +0.000 A 
ENDROOT
BRANCH   1   7
ATOM      7  C   UNL     1      44.162   5.039  10.676  0.00  0.00    +0.000 C 
BRANCH   7   8
ATOM      8  N   UNL     1      44.673   4.691   9.351  0.00  0.00    +0.000 NA
ATOM      9  H   UNL     1      44.204   5.264   8.651  0.00  0.00    +0.000 HD
BRANCH   8  11
ATOM     10  C   UNL     1      44.276   2.389  10.231  0.00  0.00    +0.000 C 
ATOM     11  C   UNL     1      44.448   3.279   8.994  0.00  0.00    +0.000 C 
BRANCH  11  12
ATOM     12  C   UNL     1      45.599   2.786   8.118  0.00  0.00    +0.000 A 
ATOM     13  C   UNL     1      46.090   1.477   8.251  0.00  0.00    +0.000 A 
ATOM     14  C   UNL     1      47.096   0.996   7.409  0.00  0.00    +0.000 A 
ATOM     15  C   UNL     1      47.629   1.819   6.421  0.00  0.00    +0.000 A 
ATOM     16  C   UNL     1      47.170   3.126   6.283  0.00  0.00    +0.000 A 
ATOM     17  C   UNL     1      46.162   3.606   7.124  0.00  0.00    +0.000 A 
ENDBRANCH  11  12
ENDBRANCH   8  11
ENDBRANCH   7   8
ENDBRANCH   1   7
BRANCH   4  18
ATOM     18  C   UNL     1      48.502   6.952  14.095  0.00  0.00    +0.000 C 
BRANCH  18  19
ATOM     19  N   UNL     1      48.270   6.656  15.486  0.00  0.00    +0.000 N 
ATOM     20  C   UNL     1      49.293   6.278  16.317  0.00  0.00    +0.000 C 
ATOM     21  O   UNL     1      50.456   6.202  15.929  0.00  0.00    +0.000 OA
ATOM     22  H   UNL     1      47.311   6.473  15.763  0.00  0.00    +0.000 HD
BRANCH  20  23
ATOM     23  C   UNL     1      48.936   6.033  17.720  0.00  0.00    +0.000 A 
ATOM     24  C   UNL     1      49.153   4.780  18.279  0.00  0.00    +0.000 A 
ATOM     25  S   UNL     1      48.737   4.685  19.930  0.00  0.00    +0.000 S 
ATOM     26  C   UNL     1      48.201   6.302  19.945  0.00  0.00    +0.000 A 
ATOM     27  N   UNL     1      47.686   6.856  21.070  0.00  0.00    +0.000 NA
ATOM     28  C   UNL     1      47.292   8.079  20.931  0.00  0.00    +0.000 A 
ATOM     29  N   UNL     1      47.375   8.798  19.769  0.00  0.00    +0.000 N 
ATOM     30  C   UNL     1      47.918   8.294  18.612  0.00  0.00    +0.000 A 
ATOM     31  O   UNL     1      48.020   8.974  17.601  0.00  0.00    +0.000 OA
ATOM     32  C   UNL     1      48.360   6.911  18.713  0.00  0.00    +0.000 A 
ATOM     33  H   UNL     1      47.061   9.757  19.726  0.00  0.00    +0.000 HD
ENDBRANCH  20  23
ENDBRANCH  18  19
ENDBRANCH   4  18
TORSDOF 7
ENDMDL
MODEL 4
REMARK VINA RESULT:    -7.393      2.774      3.562
REMARK INTER + INTRA:         -11.904
REMARK INTER:                 -10.826
REMARK INTRA:                  -1.078
REMARK UNBOUND:                -1.486
REMARK  Name = 
REMARK  8 active torsions:
REMARK  status: ('A' for Active; 'I' for Inactive)
REMARK    1  A    between atoms: C_1  and  C_2
REMARK    2  A    between atoms: C_2  and  N_3
REMARK    3  A    between atoms: C_2  and  C_25
REMARK    4  A    between atoms: N_3  and  C_4
REMARK    5  A    between atoms: C_4  and  C_5
REMARK    6  A    between atoms: C_8  and  C_9
REMARK    7  A    between atoms: C_9  and  N_10
REMARK    8  A    between atoms: C_11  and  C_13
REMARK                            x       y       z     vdW  Elec       q    Type
REMARK                         _______ _______ _______ _____ _____    ______ ____
ROOT
ATOM      1  C   UNL     1      46.511   5.045  13.461  0.00  0.00    +0.000 A 
ATOM      2  C   UNL     1      46.789   4.493  14.719  0.00  0.00    +0.000 A 
ATOM      3  C   UNL     1      47.706   5.104  15.582  0.00  0.00    +0.000 A 
ATOM      4  C   UNL     1      48.361   6.283  15.207  0.00  0.00    +0.000 A 
ATOM      5  C   UNL     1      48.095   6.831  13.946  0.00  0.00    +0.000 A 
ATOM      6  C   UNL     1      47.175   6.223  13.086  0.00  0.00    +0.000 A 
ENDROOT
BRANCH   1   7
ATOM      7  C   UNL     1      45.584   4.350  12.487  0.00  0.00    +0.000 C 
BRANCH   7   8
ATOM      8  N   UNL     1      45.175   5.211  11.378  0.00  0.00    +0.000 NA
ATOM      9  H   UNL     1      44.695   6.029  11.750  0.00  0.00    +0.000 HD
BRANCH   8  11
ATOM     10  C   UNL     1      43.263   3.622  11.148  0.00  0.00    +0.000 C 
ATOM     11  C   UNL     1      44.257   4.547  10.435  0.00  0.00    +0.000 C 
BRANCH  11  12
ATOM     12  C   UNL     1      45.067   3.782   9.389  0.00  0.00    +0.000 A 
ATOM     13  C   UNL     1      45.114   2.378   9.407  0.00  0.00    +0.000 A 
ATOM     14  C   UNL     1      45.796   1.669   8.416  0.00  0.00    +0.000 A 
ATOM     15  C   UNL     1      46.446   2.352   7.392  0.00  0.00    +0.000 A 
ATOM     16  C   UNL     1      46.427   3.744   7.365  0.00  0.00    +0.000 A 
ATOM     17  C   UNL     1      45.742   4.454   8.356  0.00  0.00    +0.000 A 
ENDBRANCH  11  12
ENDBRANCH   8  11
ENDBRANCH   7   8
ENDBRANCH   1   7
BRANCH   4  18
ATOM     18  C   UNL     1      49.379   6.926  16.113  0.00  0.00    +0.000 C 
BRANCH  18  19
ATOM     19  N   UNL     1      50.368   5.968  16.536  0.00  0.00    +0.000 N 
ATOM     20  C   UNL     1      50.806   5.918  17.834  0.00  0.00    +0.000 C 
ATOM     21  O   UNL     1      50.359   6.662  18.704  0.00  0.00    +0.000 OA
ATOM     22  H   UNL     1      50.919   5.525  15.808  0.00  0.00    +0.000 HD
BRANCH  20  23
ATOM     23  C   UNL     1      51.793   4.878  18.150  0.00  0.00    +0.000 A 
ATOM     24  C   UNL     1      53.009   5.231  18.721  0.00  0.00    +0.000 A 
ATOM     25  S   UNL     1      54.012   3.899  19.075  0.00  0.00    +0.000 S 
ATOM     26  C   UNL     1      52.879   2.804  18.428  0.00  0.00    +0.000 A 
ATOM     27  N   UNL     1      53.134   1.472  18.397  0.00  0.00    +0.000 NA
ATOM     28  C   UNL     1      52.202   0.762  17.853  0.00  0.00    +0.000 A 
ATOM     29  N   UNL     1      51.033   1.265  17.346  0.00  0.00    +0.000 N 
ATOM     30  C   UNL     1      50.713   2.600  17.384  0.00  0.00    +0.000 A 
ATOM     31  O   UNL     1      49.642   3.015  16.964  0.00  0.00    +0.000 OA
ATOM     32  C   UNL     1      51.742   3.445  17.971  0.00  0.00    +0.000 A 
ATOM     33  H   UNL     1      50.335   0.656  16.944  0.00  0.00    +0.000 HD
ENDBRANCH  20  23
ENDBRANCH  18  19
ENDBRANCH   4  18
TORSDOF 7
ENDMDL
MODEL 5
REMARK VINA RESULT:    -7.371      2.564      3.036
REMARK INTER + INTRA:         -11.874
REMARK INTER:                 -10.726
REMARK INTRA:                  -1.148
REMARK UNBOUND:                -1.486
REMARK  Name = 
REMARK  8 active torsions:
REMARK  status: ('A' for Active; 'I' for Inactive)
REMARK    1  A    between atoms: C_1  and  C_2
REMARK    2  A    between atoms: C_2  and  N_3
REMARK    3  A    between atoms: C_2  and  C_25
REMARK    4  A    between atoms: N_3  and  C_4
REMARK    5  A    between atoms: C_4  and  C_5
REMARK    6  A    between atoms: C_8  and  C_9
REMARK    7  A    between atoms: C_9  and  N_10
REMARK    8  A    between atoms: C_11  and  C_13
REMARK                            x       y       z     vdW  Elec       q    Type
REMARK                         _______ _______ _______ _____ _____    ______ ____
ROOT
ATOM      1  C   UNL     1      45.229   6.428  11.787  0.00  0.00    +0.000 A 
ATOM      2  C   UNL     1      46.451   5.803  12.075  0.00  0.00    +0.000 A 
ATOM      3  C   UNL     1      47.424   6.454  12.841  0.00  0.00    +0.000 A 
ATOM      4  C   UNL     1      47.196   7.742  13.340  0.00  0.00    +0.000 A 
ATOM      5  C   UNL     1      45.981   8.374  13.045  0.00  0.00    +0.000 A 
ATOM      6  C   UNL     1      45.006   7.721  12.284  0.00  0.00    +0.000 A 
ENDROOT
BRANCH   1   7
ATOM      7  C   UNL     1      44.202   5.767  10.892  0.00  0.00    +0.000 C 
BRANCH   7   8
ATOM      8  N   UNL     1      44.788   5.197   9.679  0.00  0.00    +0.000 NA
ATOM      9  H   UNL     1      44.517   5.767   8.879  0.00  0.00    +0.000 HD
BRANCH   8  11
ATOM     10  C   UNL     1      44.060   3.042  10.706  0.00  0.00    +0.000 C 
ATOM     11  C   UNL     1      44.347   3.817   9.414  0.00  0.00    +0.000 C 
BRANCH  11  12
ATOM     12  C   UNL     1      45.396   3.101   8.566  0.00  0.00    +0.000 A 
ATOM     13  C   UNL     1      45.579   1.712   8.674  0.00  0.00    +0.000 A 
ATOM     14  C   UNL     1      46.489   1.041   7.854  0.00  0.00    +0.000 A 
ATOM     15  C   UNL     1      47.235   1.747   6.915  0.00  0.00    +0.000 A 
ATOM     16  C   UNL     1      47.082   3.126   6.803  0.00  0.00    +0.000 A 
ATOM     17  C   UNL     1      46.170   3.799   7.622  0.00  0.00    +0.000 A 
ENDBRANCH  11  12
ENDBRANCH   8  11
ENDBRANCH   7   8
ENDBRANCH   1   7
BRANCH   4  18
ATOM     18  C   UNL     1      48.253   8.466  14.132  0.00  0.00    +0.000 C 
BRANCH  18  19
ATOM     19  N   UNL     1      47.925   8.478  15.535  0.00  0.00    +0.000 N 
ATOM     20  C   UNL     1      48.448   9.420  16.383  0.00  0.00    +0.000 C 
ATOM     21  O   UNL     1      49.192  10.314  15.988  0.00  0.00    +0.000 OA
ATOM     22  H   UNL     1      47.527   7.629  15.921  0.00  0.00    +0.000 HD
BRANCH  20  23
ATOM     23  C   UNL     1      48.015   9.348  17.784  0.00  0.00    +0.000 A 
ATOM     24  C   UNL     1      47.522  10.484  18.414  0.00  0.00    +0.000 A 
ATOM     25  S   UNL     1      47.013  10.210  20.018  0.00  0.00    +0.000 S 
ATOM     26  C   UNL     1      47.482   8.574  19.947  0.00  0.00    +0.000 A 
ATOM     27  N   UNL     1      47.338   7.760  21.022  0.00  0.00    +0.000 NA
ATOM     28  C   UNL     1      47.762   6.553  20.838  0.00  0.00    +0.000 A 
ATOM     29  N   UNL     1      48.307   6.087  19.672  0.00  0.00    +0.000 N 
ATOM     30  C   UNL     1      48.444   6.862  18.546  0.00  0.00    +0.000 A 
ATOM     31  O   UNL     1      48.894   6.406  17.504  0.00  0.00    +0.000 OA
ATOM     32  C   UNL     1      47.998   8.237  18.709  0.00  0.00    +0.000 A 
ATOM     33  H   UNL     1      48.609   5.127  19.584  0.00  0.00    +0.000 HD
ENDBRANCH  20  23
ENDBRANCH  18  19
ENDBRANCH   4  18
TORSDOF 7
ENDMDL
MODEL 6
REMARK VINA RESULT:    -7.274      2.951      8.364
REMARK INTER + INTRA:         -11.736
REMARK INTER:                  -9.716
REMARK INTRA:                  -2.020
REMARK UNBOUND:                -1.486
REMARK  Name = 
REMARK  8 active torsions:
REMARK  status: ('A' for Active; 'I' for Inactive)
REMARK    1  A    between atoms: C_1  and  C_2
REMARK    2  A    between atoms: C_2  and  N_3
REMARK    3  A    between atoms: C_2  and  C_25
REMARK    4  A    between atoms: N_3  and  C_4
REMARK    5  A    between atoms: C_4  and  C_5
REMARK    6  A    between atoms: C_8  and  C_9
REMARK    7  A    between atoms: C_9  and  N_10
REMARK    8  A    between atoms: C_11  and  C_13
REMARK                            x       y       z     vdW  Elec       q    Type
REMARK                         _______ _______ _______ _____ _____    ______ ____
ROOT
ATOM      1  C   UNL     1      48.855   8.098  16.196  0.00  0.00    +0.000 A 
ATOM      2  C   UNL     1      49.180   6.948  15.463  0.00  0.00    +0.000 A 
ATOM      3  C   UNL     1      48.819   6.832  14.116  0.00  0.00    +0.000 A 
ATOM      4  C   UNL     1      48.127   7.865  13.472  0.00  0.00    +0.000 A 
ATOM      5  C   UNL     1      47.790   9.010  14.204  0.00  0.00    +0.000 A 
ATOM      6  C   UNL     1      48.156   9.128  15.549  0.00  0.00    +0.000 A 
ENDROOT
BRANCH   1   7
ATOM      7  C   UNL     1      49.169   8.200  17.674  0.00  0.00    +0.000 C 
BRANCH   7   8
ATOM      8  N   UNL     1      48.168   7.544  18.514  0.00  0.00    +0.000 NA
ATOM      9  H   UNL     1      47.801   8.219  19.184  0.00  0.00    +0.000 HD
BRANCH   8  11
ATOM     10  C   UNL     1      50.168   6.624  19.690  0.00  0.00    +0.000 C 
ATOM     11  C   UNL     1      48.707   6.405  19.279  0.00  0.00    +0.000 C 
BRANCH  11  12
ATOM     12  C   UNL     1      48.552   5.124  18.461  0.00  0.00    +0.000 A 
ATOM     13  C   UNL     1      47.319   4.794  17.874  0.00  0.00    +0.000 A 
ATOM     14  C   UNL     1      47.186   3.660  17.069  0.00  0.00    +0.000 A 
ATOM     15  C   UNL     1      48.284   2.835  16.840  0.00  0.00    +0.000 A 
ATOM     16  C   UNL     1      49.510   3.134  17.426  0.00  0.00    +0.000 A 
ATOM     17  C   UNL     1      49.644   4.270  18.231  0.00  0.00    +0.000 A 
ENDBRANCH  11  12
ENDBRANCH   8  11
ENDBRANCH   7   8
ENDBRANCH   1   7
BRANCH   4  18
ATOM     18  C   UNL     1      47.699   7.733  12.034  0.00  0.00    +0.000 C 
BRANCH  18  19
ATOM     19  N   UNL     1      46.986   6.498  11.822  0.00  0.00    +0.000 N 
ATOM     20  C   UNL     1      45.617   6.448  11.859  0.00  0.00    +0.000 C 
ATOM     21  O   UNL     1      44.931   7.450  12.044  0.00  0.00    +0.000 OA
ATOM     22  H   UNL     1      47.518   5.640  11.915  0.00  0.00    +0.000 HD
BRANCH  20  23
ATOM     23  C   UNL     1      45.005   5.139  11.598  0.00  0.00    +0.000 A 
ATOM     24  C   UNL     1      44.318   4.483  12.611  0.00  0.00    +0.000 A 
ATOM     25  S   UNL     1      43.624   3.005  12.122  0.00  0.00    +0.000 S 
ATOM     26  C   UNL     1      44.261   3.162  10.550  0.00  0.00    +0.000 A 
ATOM     27  N   UNL     1      44.054   2.202   9.614  0.00  0.00    +0.000 NA
ATOM     28  C   UNL     1      44.619   2.436   8.476  0.00  0.00    +0.000 A 
ATOM     29  N   UNL     1      45.364   3.549   8.188  0.00  0.00    +0.000 N 
ATOM     30  C   UNL     1      45.575   4.564   9.090  0.00  0.00    +0.000 A 
ATOM     31  O   UNL     1      46.207   5.567   8.791  0.00  0.00    +0.000 OA
ATOM     32  C   UNL     1      44.973   4.337  10.396  0.00  0.00    +0.000 A 
ATOM     33  H   UNL     1      45.771   3.682   7.273  0.00  0.00    +0.000 HD
ENDBRANCH  20  23
ENDBRANCH  18  19
ENDBRANCH   4  18
TORSDOF 7
ENDMDL
MODEL 7
REMARK VINA RESULT:    -7.071      3.780      9.824
REMARK INTER + INTRA:         -11.450
REMARK INTER:                  -9.582
REMARK INTRA:                  -1.868
REMARK UNBOUND:                -1.486
REMARK  Name = 
REMARK  8 active torsions:
REMARK  status: ('A' for Active; 'I' for Inactive)
REMARK    1  A    between atoms: C_1  and  C_2
REMARK    2  A    between atoms: C_2  and  N_3
REMARK    3  A    between atoms: C_2  and  C_25
REMARK    4  A    between atoms: N_3  and  C_4
REMARK    5  A    between atoms: C_4  and  C_5
REMARK    6  A    between atoms: C_8  and  C_9
REMARK    7  A    between atoms: C_9  and  N_10
REMARK    8  A    between atoms: C_11  and  C_13
REMARK                            x       y       z     vdW  Elec       q    Type
REMARK                         _______ _______ _______ _____ _____    ______ ____
ROOT
ATOM      1  C   UNL     1      51.286   4.815  17.790  0.00  0.00    +0.000 A 
ATOM      2  C   UNL     1      50.925   3.463  17.867  0.00  0.00    +0.000 A 
ATOM      3  C   UNL     1      49.660   3.034  17.450  0.00  0.00    +0.000 A 
ATOM      4  C   UNL     1      48.729   3.950  16.944  0.00  0.00    +0.000 A 
ATOM      5  C   UNL     1      49.081   5.303  16.877  0.00  0.00    +0.000 A 
ATOM      6  C   UNL     1      50.348   5.730  17.288  0.00  0.00    +0.000 A 
ENDROOT
BRANCH   1   7
ATOM      7  C   UNL     1      52.621   5.301  18.313  0.00  0.00    +0.000 C 
BRANCH   7   8
ATOM      8  N   UNL     1      52.704   5.272  19.773  0.00  0.00    +0.000 NA
ATOM      9  H   UNL     1      52.195   4.459  20.120  0.00  0.00    +0.000 HD
BRANCH   8  11
ATOM     10  C   UNL     1      52.870   6.855  21.696  0.00  0.00    +0.000 C 
ATOM     11  C   UNL     1      52.125   6.466  20.413  0.00  0.00    +0.000 C 
BRANCH  11  12
ATOM     12  C   UNL     1      50.642   6.226  20.690  0.00  0.00    +0.000 A 
ATOM     13  C   UNL     1      49.695   7.235  20.444  0.00  0.00    +0.000 A 
ATOM     14  C   UNL     1      48.331   7.002  20.630  0.00  0.00    +0.000 A 
ATOM     15  C   UNL     1      47.890   5.757  21.068  0.00  0.00    +0.000 A 
ATOM     16  C   UNL     1      48.812   4.748  21.335  0.00  0.00    +0.000 A 
ATOM     17  C   UNL     1      50.177   4.981  21.147  0.00  0.00    +0.000 A 
ENDBRANCH  11  12
ENDBRANCH   8  11
ENDBRANCH   7   8
ENDBRANCH   1   7
BRANCH   4  18
ATOM     18  C   UNL     1      47.350   3.505  16.530  0.00  0.00    +0.000 C 
BRANCH  18  19
ATOM     19  N   UNL     1      46.754   4.455  15.625  0.00  0.00    +0.000 N 
ATOM     20  C   UNL     1      46.754   4.248  14.269  0.00  0.00    +0.000 C 
ATOM     21  O   UNL     1      47.230   3.236  13.763  0.00  0.00    +0.000 OA
ATOM     22  H   UNL     1      46.584   5.388  15.986  0.00  0.00    +0.000 HD
BRANCH  20  23
ATOM     23  C   UNL     1      46.089   5.273  13.454  0.00  0.00    +0.000 A 
ATOM     24  C   UNL     1      46.694   6.509  13.271  0.00  0.00    +0.000 A 
ATOM     25  S   UNL     1      45.816   7.557  12.253  0.00  0.00    +0.000 S 
ATOM     26  C   UNL     1      44.566   6.416  12.063  0.00  0.00    +0.000 A 
ATOM     27  N   UNL     1      43.471   6.698  11.315  0.00  0.00    +0.000 NA
ATOM     28  C   UNL     1      42.589   5.754  11.281  0.00  0.00    +0.000 A 
ATOM     29  N   UNL     1      42.711   4.550  11.922  0.00  0.00    +0.000 N 
ATOM     30  C   UNL     1      43.814   4.203  12.665  0.00  0.00    +0.000 A 
ATOM     31  O   UNL     1      43.914   3.103  13.189  0.00  0.00    +0.000 OA
ATOM     32  C   UNL     1      44.828   5.243  12.748  0.00  0.00    +0.000 A 
ATOM     33  H   UNL     1      41.991   3.844  11.848  0.00  0.00    +0.000 HD
ENDBRANCH  20  23
ENDBRANCH  18  19
ENDBRANCH   4  18
TORSDOF 7
ENDMDL
MODEL 8
REMARK VINA RESULT:    -6.816      1.942      2.049
REMARK INTER + INTRA:         -11.091
REMARK INTER:                 -10.224
REMARK INTRA:                  -0.867
REMARK UNBOUND:                -1.486
REMARK  Name = 
REMARK  8 active torsions:
REMARK  status: ('A' for Active; 'I' for Inactive)
REMARK    1  A    between atoms: C_1  and  C_2
REMARK    2  A    between atoms: C_2  and  N_3
REMARK    3  A    between atoms: C_2  and  C_25
REMARK    4  A    between atoms: N_3  and  C_4
REMARK    5  A    between atoms: C_4  and  C_5
REMARK    6  A    between atoms: C_8  and  C_9
REMARK    7  A    between atoms: C_9  and  N_10
REMARK    8  A    between atoms: C_11  and  C_13
REMARK                            x       y       z     vdW  Elec       q    Type
REMARK                         _______ _______ _______ _____ _____    ______ ____
ROOT
ATOM      1  C   UNL     1      44.724   3.824  12.172  0.00  0.00    +0.000 A 
ATOM      2  C   UNL     1      44.293   5.140  12.386  0.00  0.00    +0.000 A 
ATOM      3  C   UNL     1      45.104   6.058  13.063  0.00  0.00    +0.000 A 
ATOM      4  C   UNL     1      46.366   5.679  13.538  0.00  0.00    +0.000 A 
ATOM      5  C   UNL     1      46.795   4.361  13.337  0.00  0.00    +0.000 A 
ATOM      6  C   UNL     1      45.986   3.446  12.655  0.00  0.00    +0.000 A 
ENDROOT
BRANCH   1   7
ATOM      7  C   UNL     1      43.823   2.801  11.513  0.00  0.00    +0.000 C 
BRANCH   7   8
ATOM      8  N   UNL     1      44.338   2.334  10.226  0.00  0.00    +0.000 NA
ATOM      9  H   UNL     1      45.036   1.609  10.390  0.00  0.00    +0.000 HD
BRANCH   8  11
ATOM     10  C   UNL     1      43.968   4.432   8.925  0.00  0.00    +0.000 C 
ATOM     11  C   UNL     1      44.981   3.400   9.436  0.00  0.00    +0.000 C 
BRANCH  11  12
ATOM     12  C   UNL     1      45.761   2.776   8.280  0.00  0.00    +0.000 A 
ATOM     13  C   UNL     1      46.089   3.536   7.145  0.00  0.00    +0.000 A 
ATOM     14  C   UNL     1      46.860   2.993   6.114  0.00  0.00    +0.000 A 
ATOM     15  C   UNL     1      47.313   1.680   6.200  0.00  0.00    +0.000 A 
ATOM     16  C   UNL     1      46.985   0.904   7.307  0.00  0.00    +0.000 A 
ATOM     17  C   UNL     1      46.215   1.447   8.340  0.00  0.00    +0.000 A 
ENDBRANCH  11  12
ENDBRANCH   8  11
ENDBRANCH   7   8
ENDBRANCH   1   7
BRANCH   4  18
ATOM     18  C   UNL     1      47.229   6.647  14.304  0.00  0.00    +0.000 C 
BRANCH  18  19
ATOM     19  N   UNL     1      48.315   5.962  14.958  0.00  0.00    +0.000 N 
ATOM     20  C   UNL     1      48.851   6.427  16.131  0.00  0.00    +0.000 C 
ATOM     21  O   UNL     1      48.417   7.426  16.697  0.00  0.00    +0.000 OA
ATOM     22  H   UNL     1      48.841   5.298  14.399  0.00  0.00    +0.000 HD
BRANCH  20  23
ATOM     23  C   UNL     1      49.932   5.624  16.717  0.00  0.00    +0.000 A 
ATOM     24  C   UNL     1      51.087   6.249  17.171  0.00  0.00    +0.000 A 
ATOM     25  S   UNL     1      52.213   5.178  17.873  0.00  0.00    +0.000 S 
ATOM     26  C   UNL     1      51.222   3.833  17.545  0.00  0.00    +0.000 A 
ATOM     27  N   UNL     1      51.617   2.578  17.875  0.00  0.00    +0.000 NA
ATOM     28  C   UNL     1      50.782   1.650  17.543  0.00  0.00    +0.000 A 
ATOM     29  N   UNL     1      49.582   1.867  16.919  0.00  0.00    +0.000 N 
ATOM     30  C   UNL     1      49.122   3.120  16.594  0.00  0.00    +0.000 A 
ATOM     31  O   UNL     1      48.026   3.287  16.077  0.00  0.00    +0.000 OA
ATOM     32  C   UNL     1      50.038   4.199  16.932  0.00  0.00    +0.000 A 
ATOM     33  H   UNL     1      48.964   1.100  16.696  0.00  0.00    +0.000 HD
ENDBRANCH  20  23
ENDBRANCH  18  19
ENDBRANCH   4  18
TORSDOF 7
ENDMDL
MODEL 9
REMARK VINA RESULT:    -6.608      2.175      3.056
REMARK INTER + INTRA:         -10.798
REMARK INTER:                  -9.897
REMARK INTRA:                  -0.901
REMARK UNBOUND:                -1.486
REMARK  Name = 
REMARK  8 active torsions:
REMARK  status: ('A' for Active; 'I' for Inactive)
REMARK    1  A    between atoms: C_1  and  C_2
REMARK    2  A    between atoms: C_2  and  N_3
REMARK    3  A    between atoms: C_2  and  C_25
REMARK    4  A    between atoms: N_3  and  C_4
REMARK    5  A    between atoms: C_4  and  C_5
REMARK    6  A    between atoms: C_8  and  C_9
REMARK    7  A    between atoms: C_9  and  N_10
REMARK    8  A    between atoms: C_11  and  C_13
REMARK                            x       y       z     vdW  Elec       q    Type
REMARK                         _______ _______ _______ _____ _____    ______ ____
ROOT
ATOM      1  C   UNL     1      44.660   4.270  12.145  0.00  0.00    +0.000 A 
ATOM      2  C   UNL     1      45.808   3.844  12.827  0.00  0.00    +0.000 A 
ATOM      3  C   UNL     1      46.688   4.772  13.397  0.00  0.00    +0.000 A 
ATOM      4  C   UNL     1      46.435   6.146  13.301  0.00  0.00    +0.000 A 
ATOM      5  C   UNL     1      45.295   6.575  12.610  0.00  0.00    +0.000 A 
ATOM      6  C   UNL     1      44.414   5.648  12.045  0.00  0.00    +0.000 A 
ENDROOT
BRANCH   1   7
ATOM      7  C   UNL     1      43.746   3.280  11.455  0.00  0.00    +0.000 C 
BRANCH   7   8
ATOM      8  N   UNL     1      44.381   2.619  10.315  0.00  0.00    +0.000 NA
ATOM      9  H   UNL     1      45.098   1.981  10.656  0.00  0.00    +0.000 HD
BRANCH   8  11
ATOM     10  C   UNL     1      44.014   4.474   8.684  0.00  0.00    +0.000 C 
ATOM     11  C   UNL     1      45.029   3.561   9.384  0.00  0.00    +0.000 C 
BRANCH  11  12
ATOM     12  C   UNL     1      45.858   2.780   8.366  0.00  0.00    +0.000 A 
ATOM     13  C   UNL     1      46.552   3.449   7.344  0.00  0.00    +0.000 A 
ATOM     14  C   UNL     1      47.367   2.749   6.450  0.00  0.00    +0.000 A 
ATOM     15  C   UNL     1      47.499   1.369   6.563  0.00  0.00    +0.000 A 
ATOM     16  C   UNL     1      46.807   0.684   7.558  0.00  0.00    +0.000 A 
ATOM     17  C   UNL     1      45.993   1.384   8.453  0.00  0.00    +0.000 A 
ENDBRANCH  11  12
ENDBRANCH   8  11
ENDBRANCH   7   8
ENDBRANCH   1   7
BRANCH   4  18
ATOM     18  C   UNL     1      47.396   7.153  13.877  0.00  0.00    +0.000 C 
BRANCH  18  19
ATOM     19  N   UNL     1      48.366   6.510  14.725  0.00  0.00    +0.000 N 
ATOM     20  C   UNL     1      48.823   7.109  15.871  0.00  0.00    +0.000 C 
ATOM     21  O   UNL     1      48.409   8.203  16.246  0.00  0.00    +0.000 OA
ATOM     22  H   UNL     1      48.895   5.745  14.320  0.00  0.00    +0.000 HD
BRANCH  20  23
ATOM     23  C   UNL     1      49.788   6.342  16.668  0.00  0.00    +0.000 A 
ATOM     24  C   UNL     1      49.335   5.479  17.658  0.00  0.00    +0.000 A 
ATOM     25  S   UNL     1      50.582   4.625  18.446  0.00  0.00    +0.000 S 
ATOM     26  C   UNL     1      51.779   5.417  17.530  0.00  0.00    +0.000 A 
ATOM     27  N   UNL     1      53.096   5.160  17.729  0.00  0.00    +0.000 NA
ATOM     28  C   UNL     1      53.894   5.853  16.987  0.00  0.00    +0.000 A 
ATOM     29  N   UNL     1      53.492   6.773  16.056  0.00  0.00    +0.000 N 
ATOM     30  C   UNL     1      52.172   7.046  15.793  0.00  0.00    +0.000 A 
ATOM     31  O   UNL     1      51.841   7.841  14.924  0.00  0.00    +0.000 OA
ATOM     32  C   UNL     1      51.232   6.303  16.619  0.00  0.00    +0.000 A 
ATOM     33  H   UNL     1      54.165   7.276  15.495  0.00  0.00    +0.000 HD
ENDBRANCH  20  23
ENDBRANCH  18  19
ENDBRANCH   4  18
TORSDOF 7
ENDMDL
