MODEL 1
REMARK VINA RESULT:    -8.363      0.000      0.000
REMARK INTER + INTRA:         -10.937
REMARK INTER:                 -10.319
REMARK INTRA:                  -0.619
REMARK UNBOUND:                -0.619
REMARK  Name = 
REMARK  4 active torsions:
REMARK  status: ('A' for Active; 'I' for Inactive)
REMARK    1  A    between atoms: C_5  and  N_6
REMARK    2  A    between atoms: N_6  and  C_7
REMARK    3  A    between atoms: C_7  and  C_8
REMARK    4  A    between atoms: C_12  and  C_13
REMARK                            x       y       z     vdW  Elec       q    Type
REMARK                         _______ _______ _______ _____ _____    ______ ____
ROOT
ATOM      1  C   UNL     1      44.101   4.595  11.402  0.00  0.00    +0.000 C 
ATOM      2  C   UNL     1      42.852   4.886  12.241  0.00  0.00    +0.000 C 
ATOM      3  C   UNL     1      43.130   5.705  11.028  0.00  0.00    +0.000 C 
ENDROOT
BRANCH   1   4
ATOM      4  C   UNL     1      45.442   5.012  12.013  0.00  0.00    +0.000 A 
ATOM      5  C   UNL     1      46.134   6.151  11.575  0.00  0.00    +0.000 A 
ATOM      6  C   UNL     1      47.239   6.639  12.270  0.00  0.00    +0.000 A 
ATOM      7  C   UNL     1      47.663   6.003  13.437  0.00  0.00    +0.000 A 
ATOM      8  C   UNL     1      47.036   4.833  13.893  0.00  0.00    +0.000 A 
ATOM      9  C   UNL     1      45.969   4.330  13.128  0.00  0.00    +0.000 A 
BRANCH   8  10
ATOM     10  C   UNL     1      47.393   4.234  15.192  0.00  0.00    +0.000 A 
ATOM     11  C   UNL     1      47.416   4.955  16.385  0.00  0.00    +0.000 A 
ATOM     12  C   UNL     1      47.880   4.337  17.546  0.00  0.00    +0.000 A 
ATOM     13  C   UNL     1      48.311   3.018  17.488  0.00  0.00    +0.000 A 
ATOM     14  C   UNL     1      48.245   2.365  16.272  0.00  0.00    +0.000 A 
ATOM     15  N   UNL     1      47.794   2.938  15.136  0.00  0.00    +0.000 NA
ENDBRANCH   8  10
ENDBRANCH   1   4
BRANCH   1  16
ATOM     16  N   UNL     1      44.124   3.341  10.630  0.00  0.00    +0.000 N 
ATOM     17  H   UNL     1      44.184   2.470  11.151  0.00  0.00    +0.000 HD
BRANCH  16  22
ATOM     18 CL   UNL     1      47.384   2.664   5.863  0.00  0.00    +0.000 Cl
ATOM     19  C   UNL     1      46.401   2.851   7.249  0.00  0.00    +0.000 A 
ATOM     20  C   UNL     1      46.119   1.799   8.101  0.00  0.00    +0.000 A 
ATOM     21  N   UNL     1      45.361   1.944   9.222  0.00  0.00    +0.000 NA
ATOM     22  C   UNL     1      44.893   3.186   9.474  0.00  0.00    +0.000 A 
ATOM     23  C   UNL     1      45.171   4.226   8.576  0.00  0.00    +0.000 A 
ATOM     24  N   UNL     1      45.931   4.093   7.458  0.00  0.00    +0.000 NA
ENDBRANCH  16  22
ENDBRANCH   1  16
TORSDOF 4
ENDMDL
MODEL 2
REMARK VINA RESULT:    -7.690      2.050      3.869
REMARK INTER + INTRA:         -10.107
REMARK INTER:                  -9.312
REMARK INTRA:                  -0.795
REMARK UNBOUND:                -0.619
REMARK  Name = 
REMARK  4 active torsions:
REMARK  status: ('A' for Active; 'I' for Inactive)
REMARK    1  A    between atoms: C_5  and  N_6
REMARK    2  A    between atoms: N_6  and  C_7
REMARK    3  A    between atoms: C_7  and  C_8
REMARK    4  A    between atoms: C_12  and  C_13
REMARK                            x       y       z     vdW  Elec       q    Type
REMARK                         _______ _______ _______ _____ _____    ______ ____
ROOT
ATOM      1  C   UNL     1      43.776   4.879  11.530  0.00  0.00    +0.000 C 
ATOM      2  C   UNL     1      42.475   5.307  12.215  0.00  0.00    +0.000 C 
ATOM      3  C   UNL     1      42.986   6.089  11.055  0.00  0.00    +0.000 C 
ENDROOT
BRANCH   1   4
ATOM      4  C   UNL     1      45.071   5.145  12.303  0.00  0.00    +0.000 A 
ATOM      5  C   UNL     1      45.648   4.176  13.139  0.00  0.00    +0.000 A 
ATOM      6  C   UNL     1      46.925   4.347  13.671  0.00  0.00    +0.000 A 
ATOM      7  C   UNL     1      47.663   5.488  13.357  0.00  0.00    +0.000 A 
ATOM      8  C   UNL     1      47.115   6.509  12.566  0.00  0.00    +0.000 A 
ATOM      9  C   UNL     1      45.798   6.335  12.104  0.00  0.00    +0.000 A 
BRANCH   8  10
ATOM     10  C   UNL     1      47.934   7.653  12.123  0.00  0.00    +0.000 A 
ATOM     11  C   UNL     1      49.290   7.547  11.815  0.00  0.00    +0.000 A 
ATOM     12  C   UNL     1      50.013   8.702  11.519  0.00  0.00    +0.000 A 
ATOM     13  C   UNL     1      49.368   9.932  11.541  0.00  0.00    +0.000 A 
ATOM     14  C   UNL     1      48.020   9.955  11.843  0.00  0.00    +0.000 A 
ATOM     15  N   UNL     1      47.296   8.851  12.125  0.00  0.00    +0.000 NA
ENDBRANCH   8  10
ENDBRANCH   1   4
BRANCH   1  16
ATOM     16  N   UNL     1      43.755   3.629  10.751  0.00  0.00    +0.000 N 
ATOM     17  H   UNL     1      43.696   2.754  11.267  0.00  0.00    +0.000 HD
BRANCH  16  22
ATOM     18 CL   UNL     1      47.331   2.680   6.265  0.00  0.00    +0.000 Cl
ATOM     19  C   UNL     1      46.256   2.949   7.567  0.00  0.00    +0.000 A 
ATOM     20  C   UNL     1      45.837   1.928   8.400  0.00  0.00    +0.000 A 
ATOM     21  N   UNL     1      45.004   2.136   9.456  0.00  0.00    +0.000 NA
ATOM     22  C   UNL     1      44.601   3.409   9.661  0.00  0.00    +0.000 A 
ATOM     23  C   UNL     1      45.018   4.417   8.781  0.00  0.00    +0.000 A 
ATOM     24  N   UNL     1      45.853   4.221   7.728  0.00  0.00    +0.000 NA
ENDBRANCH  16  22
ENDBRANCH   1  16
TORSDOF 4
ENDMDL
MODEL 3
REMARK VINA RESULT:    -7.676      2.952      7.103
REMARK INTER + INTRA:         -10.089
REMARK INTER:                  -9.488
REMARK INTRA:                  -0.601
REMARK UNBOUND:                -0.619
REMARK  Name = 
REMARK  4 active torsions:
REMARK  status: ('A' for Active; 'I' for Inactive)
REMARK    1  A    between atoms: C_5  and  N_6
REMARK    2  A    between atoms: N_6  and  C_7
REMARK    3  A    between atoms: C_7  and  C_8
REMARK    4  A    between atoms: C_12  and  C_13
REMARK                            x       y       z     vdW  Elec       q    Type
REMARK                         _______ _______ _______ _____ _____    ______ ____
ROOT
ATOM      1  C   UNL     1      46.373   7.143  12.457  0.00  0.00    +0.000 C 
ATOM      2  C   UNL     1      46.510   8.542  11.849  0.00  0.00    +0.000 C 
ATOM      3  C   UNL     1      45.801   8.372  13.147  0.00  0.00    +0.000 C 
ENDROOT
BRANCH   1   4
ATOM      4  C   UNL     1      45.384   6.198  11.771  0.00  0.00    +0.000 A 
ATOM      5  C   UNL     1      43.995   6.357  11.900  0.00  0.00    +0.000 A 
ATOM      6  C   UNL     1      43.107   5.629  11.111  0.00  0.00    +0.000 A 
ATOM      7  C   UNL     1      43.595   4.736  10.156  0.00  0.00    +0.000 A 
ATOM      8  C   UNL     1      44.972   4.504  10.019  0.00  0.00    +0.000 A 
ATOM      9  C   UNL     1      45.836   5.205  10.880  0.00  0.00    +0.000 A 
BRANCH   8  10
ATOM     10  C   UNL     1      45.498   3.664   8.928  0.00  0.00    +0.000 A 
ATOM     11  C   UNL     1      45.555   2.272   8.994  0.00  0.00    +0.000 A 
ATOM     12  C   UNL     1      46.177   1.566   7.965  0.00  0.00    +0.000 A 
ATOM     13  C   UNL     1      46.729   2.264   6.898  0.00  0.00    +0.000 A 
ATOM     14  C   UNL     1      46.621   3.642   6.897  0.00  0.00    +0.000 A 
ATOM     15  N   UNL     1      46.018   4.348   7.877  0.00  0.00    +0.000 NA
ENDBRANCH   8  10
ENDBRANCH   1   4
BRANCH   1  16
ATOM     16  N   UNL     1      47.595   6.506  12.977  0.00  0.00    +0.000 N 
ATOM     17  H   UNL     1      48.197   6.029  12.309  0.00  0.00    +0.000 HD
BRANCH  16  22
ATOM     18 CL   UNL     1      47.719   3.366  17.870  0.00  0.00    +0.000 Cl
ATOM     19  C   UNL     1      47.664   4.309  16.445  0.00  0.00    +0.000 A 
ATOM     20  C   UNL     1      48.418   5.458  16.291  0.00  0.00    +0.000 A 
ATOM     21  N   UNL     1      48.402   6.200  15.150  0.00  0.00    +0.000 NA
ATOM     22  C   UNL     1      47.606   5.753  14.154  0.00  0.00    +0.000 A 
ATOM     23  C   UNL     1      46.831   4.602  14.352  0.00  0.00    +0.000 A 
ATOM     24  N   UNL     1      46.844   3.851  15.484  0.00  0.00    +0.000 NA
ENDBRANCH  16  22
ENDBRANCH   1  16
TORSDOF 4
ENDMDL
MODEL 4
REMARK VINA RESULT:    -7.244      4.080      7.107
REMARK INTER + INTRA:          -9.556
REMARK INTER:                  -8.807
REMARK INTRA:                  -0.749
REMARK UNBOUND:                -0.619
REMARK  Name = 
REMARK  4 active torsions:
REMARK  status: ('A' for Active; 'I' for Inactive)
REMARK    1  A    between atoms: C_5  and  N_6
REMARK    2  A    between atoms: N_6  and  C_7
REMARK    3  A    between atoms: C_7  and  C_8
REMARK    4  A    between atoms: C_12  and  C_13
REMARK                            x       y       z     vdW  Elec       q    Type
REMARK                         _______ _______ _______ _____ _____    ______ ____
ROOT
ATOM      1  C   UNL     1      45.658   7.618  12.324  0.00  0.00    +0.000 C 
ATOM      2  C   UNL     1      46.825   7.400  13.292  0.00  0.00    +0.000 C 
ATOM      3  C   UNL     1      47.103   7.782  11.879  0.00  0.00    +0.000 C 
ENDROOT
BRANCH   1   4
ATOM      4  C   UNL     1      44.917   6.361  11.859  0.00  0.00    +0.000 A 
ATOM      5  C   UNL     1      43.584   6.110  12.218  0.00  0.00    +0.000 A 
ATOM      6  C   UNL     1      42.856   5.080  11.624  0.00  0.00    +0.000 A 
ATOM      7  C   UNL     1      43.446   4.290  10.639  0.00  0.00    +0.000 A 
ATOM      8  C   UNL     1      44.790   4.467  10.277  0.00  0.00    +0.000 A 
ATOM      9  C   UNL     1      45.515   5.470  10.946  0.00  0.00    +0.000 A 
BRANCH   8  10
ATOM     10  C   UNL     1      45.380   3.724   9.148  0.00  0.00    +0.000 A 
ATOM     11  C   UNL     1      45.455   2.332   9.105  0.00  0.00    +0.000 A 
ATOM     12  C   UNL     1      46.135   1.719   8.053  0.00  0.00    +0.000 A 
ATOM     13  C   UNL     1      46.725   2.507   7.073  0.00  0.00    +0.000 A 
ATOM     14  C   UNL     1      46.597   3.879   7.178  0.00  0.00    +0.000 A 
ATOM     15  N   UNL     1      45.938   4.497   8.181  0.00  0.00    +0.000 NA
ENDBRANCH   8  10
ENDBRANCH   1   4
BRANCH   1  16
ATOM     16  N   UNL     1      44.811   8.804  12.537  0.00  0.00    +0.000 N 
ATOM     17  H   UNL     1      43.913   8.665  12.994  0.00  0.00    +0.000 HD
BRANCH  16  22
ATOM     18 CL   UNL     1      44.053  12.813   8.394  0.00  0.00    +0.000 Cl
ATOM     19  C   UNL     1      44.252  11.647   9.628  0.00  0.00    +0.000 A 
ATOM     20  C   UNL     1      43.457  10.518   9.711  0.00  0.00    +0.000 A 
ATOM     21  N   UNL     1      43.626   9.569  10.672  0.00  0.00    +0.000 NA
ATOM     22  C   UNL     1      44.627   9.781  11.555  0.00  0.00    +0.000 A 
ATOM     23  C   UNL     1      45.395  10.950  11.463  0.00  0.00    +0.000 A 
ATOM     24  N   UNL     1      45.238  11.899  10.505  0.00  0.00    +0.000 NA
ENDBRANCH  16  22
ENDBRANCH   1  16
TORSDOF 4
ENDMDL
MODEL 5
REMARK VINA RESULT:    -7.242      2.858      4.754
REMARK INTER + INTRA:          -9.555
REMARK INTER:                  -8.960
REMARK INTRA:                  -0.594
REMARK UNBOUND:                -0.619
REMARK  Name = 
REMARK  4 active torsions:
REMARK  status: ('A' for Active; 'I' for Inactive)
REMARK    1  A    between atoms: C_5  and  N_6
REMARK    2  A    between atoms: N_6  and  C_7
REMARK    3  A    between atoms: C_7  and  C_8
REMARK    4  A    between atoms: C_12  and  C_13
REMARK                            x       y       z     vdW  Elec       q    Type
REMARK                         _______ _______ _______ _____ _____    ______ ____
ROOT
ATOM      1  C   UNL     1      44.104   5.006  12.011  0.00  0.00    +0.000 C 
ATOM      2  C   UNL     1      42.776   5.015  12.775  0.00  0.00    +0.000 C 
ATOM      3  C   UNL     1      42.864   5.686  11.448  0.00  0.00    +0.000 C 
ENDROOT
BRANCH   1   4
ATOM      4  C   UNL     1      45.211   5.907  12.561  0.00  0.00    +0.000 A 
ATOM      5  C   UNL     1      46.376   5.381  13.142  0.00  0.00    +0.000 A 
ATOM      6  C   UNL     1      47.464   6.196  13.448  0.00  0.00    +0.000 A 
ATOM      7  C   UNL     1      47.416   7.560  13.158  0.00  0.00    +0.000 A 
ATOM      8  C   UNL     1      46.258   8.145  12.623  0.00  0.00    +0.000 A 
ATOM      9  C   UNL     1      45.154   7.305  12.391  0.00  0.00    +0.000 A 
BRANCH   8  10
ATOM     10  C   UNL     1      46.246   9.556  12.193  0.00  0.00    +0.000 A 
ATOM     11  C   UNL     1      45.091  10.217  11.776  0.00  0.00    +0.000 A 
ATOM     12  C   UNL     1      45.193  11.514  11.274  0.00  0.00    +0.000 A 
ATOM     13  C   UNL     1      46.441  12.118  11.198  0.00  0.00    +0.000 A 
ATOM     14  C   UNL     1      47.538  11.404  11.642  0.00  0.00    +0.000 A 
ATOM     15  N   UNL     1      47.465  10.150  12.139  0.00  0.00    +0.000 NA
ENDBRANCH   8  10
ENDBRANCH   1   4
BRANCH   1  16
ATOM     16  N   UNL     1      44.558   3.720  11.454  0.00  0.00    +0.000 N 
ATOM     17  H   UNL     1      45.137   3.130  12.046  0.00  0.00    +0.000 HD
BRANCH  16  22
ATOM     18 CL   UNL     1      46.624   3.157   6.048  0.00  0.00    +0.000 Cl
ATOM     19  C   UNL     1      45.988   3.318   7.626  0.00  0.00    +0.000 A 
ATOM     20  C   UNL     1      45.621   2.225   8.389  0.00  0.00    +0.000 A 
ATOM     21  N   UNL     1      45.140   2.341   9.657  0.00  0.00    +0.000 NA
ATOM     22  C   UNL     1      45.041   3.596  10.149  0.00  0.00    +0.000 A 
ATOM     23  C   UNL     1      45.392   4.686   9.340  0.00  0.00    +0.000 A 
ATOM     24  N   UNL     1      45.878   4.580   8.076  0.00  0.00    +0.000 NA
ENDBRANCH  16  22
ENDBRANCH   1  16
TORSDOF 4
ENDMDL
MODEL 6
REMARK VINA RESULT:    -6.742      2.604      2.997
REMARK INTER + INTRA:          -8.937
REMARK INTER:                  -8.307
REMARK INTRA:                  -0.629
REMARK UNBOUND:                -0.619
REMARK  Name = 
REMARK  4 active torsions:
REMARK  status: ('A' for Active; 'I' for Inactive)
REMARK    1  A    between atoms: C_5  and  N_6
REMARK    2  A    between atoms: N_6  and  C_7
REMARK    3  A    between atoms: C_7  and  C_8
REMARK    4  A    between atoms: C_12  and  C_13
REMARK                            x       y       z     vdW  Elec       q    Type
REMARK                         _______ _______ _______ _____ _____    ______ ____
ROOT
ATOM      1  C   UNL     1      44.085   5.467  11.934  0.00  0.00    +0.000 C 
ATOM      2  C   UNL     1      42.960   5.301  12.961  0.00  0.00    +0.000 C 
ATOM      3  C   UNL     1      42.620   5.580  11.538  0.00  0.00    +0.000 C 
ENDROOT
BRANCH   1   4
ATOM      4  C   UNL     1      44.892   6.766  12.015  0.00  0.00    +0.000 A 
ATOM      5  C   UNL     1      44.419   7.968  11.466  0.00  0.00    +0.000 A 
ATOM      6  C   UNL     1      45.056   9.181  11.724  0.00  0.00    +0.000 A 
ATOM      7  C   UNL     1      46.173   9.217  12.559  0.00  0.00    +0.000 A 
ATOM      8  C   UNL     1      46.715   8.039  13.094  0.00  0.00    +0.000 A 
ATOM      9  C   UNL     1      46.089   6.825  12.756  0.00  0.00    +0.000 A 
BRANCH   8  10
ATOM     10  C   UNL     1      47.811   8.083  14.079  0.00  0.00    +0.000 A 
ATOM     11  C   UNL     1      47.937   9.089  15.037  0.00  0.00    +0.000 A 
ATOM     12  C   UNL     1      49.069   9.116  15.851  0.00  0.00    +0.000 A 
ATOM     13  C   UNL     1      50.048   8.144  15.688  0.00  0.00    +0.000 A 
ATOM     14  C   UNL     1      49.845   7.172  14.726  0.00  0.00    +0.000 A 
ATOM     15  N   UNL     1      48.756   7.119  13.931  0.00  0.00    +0.000 NA
ENDBRANCH   8  10
ENDBRANCH   1   4
BRANCH   1  16
ATOM     16  N   UNL     1      44.858   4.267  11.573  0.00  0.00    +0.000 N 
ATOM     17  H   UNL     1      45.655   4.028  12.159  0.00  0.00    +0.000 HD
BRANCH  16  22
ATOM     18 CL   UNL     1      46.375   2.977   6.110  0.00  0.00    +0.000 Cl
ATOM     19  C   UNL     1      45.899   3.355   7.708  0.00  0.00    +0.000 A 
ATOM     20  C   UNL     1      45.469   2.388   8.598  0.00  0.00    +0.000 A 
ATOM     21  N   UNL     1      45.115   2.675   9.880  0.00  0.00    +0.000 NA
ATOM     22  C   UNL     1      45.210   3.970  10.254  0.00  0.00    +0.000 A 
ATOM     23  C   UNL     1      45.621   4.931   9.320  0.00  0.00    +0.000 A 
ATOM     24  N   UNL     1      45.981   4.655   8.040  0.00  0.00    +0.000 NA
ENDBRANCH  16  22
ENDBRANCH   1  16
TORSDOF 4
ENDMDL
MODEL 7
REMARK VINA RESULT:    -6.495      3.433      7.094
REMARK INTER + INTRA:          -8.633
REMARK INTER:                  -7.971
REMARK INTRA:                  -0.662
REMARK UNBOUND:                -0.619
REMARK  Name = 
REMARK  4 active torsions:
REMARK  status: ('A' for Active; 'I' for Inactive)
REMARK    1  A    between atoms: C_5  and  N_6
REMARK    2  A    between atoms: N_6  and  C_7
REMARK    3  A    between atoms: C_7  and  C_8
REMARK    4  A    between atoms: C_12  and  C_13
REMARK                            x       y       z     vdW  Elec       q    Type
REMARK                         _______ _______ _______ _____ _____    ______ ____
ROOT
ATOM      1  C   UNL     1      45.505   7.855  11.815  0.00  0.00    +0.000 C 
ATOM      2  C   UNL     1      44.884   9.081  11.138  0.00  0.00    +0.000 C 
ATOM      3  C   UNL     1      44.689   8.872  12.599  0.00  0.00    +0.000 C 
ENDROOT
BRANCH   1   4
ATOM      4  C   UNL     1      44.846   6.507  11.515  0.00  0.00    +0.000 A 
ATOM      5  C   UNL     1      43.556   6.194  11.971  0.00  0.00    +0.000 A 
ATOM      6  C   UNL     1      42.885   5.058  11.521  0.00  0.00    +0.000 A 
ATOM      7  C   UNL     1      43.488   4.219  10.584  0.00  0.00    +0.000 A 
ATOM      8  C   UNL     1      44.795   4.459  10.132  0.00  0.00    +0.000 A 
ATOM      9  C   UNL     1      45.468   5.575  10.660  0.00  0.00    +0.000 A 
BRANCH   8  10
ATOM     10  C   UNL     1      45.386   3.654   9.048  0.00  0.00    +0.000 A 
ATOM     11  C   UNL     1      45.444   2.260   9.076  0.00  0.00    +0.000 A 
ATOM     12  C   UNL     1      46.126   1.587   8.063  0.00  0.00    +0.000 A 
ATOM     13  C   UNL     1      46.736   2.318   7.051  0.00  0.00    +0.000 A 
ATOM     14  C   UNL     1      46.623   3.695   7.085  0.00  0.00    +0.000 A 
ATOM     15  N   UNL     1      45.963   4.370   8.050  0.00  0.00    +0.000 NA
ENDBRANCH   8  10
ENDBRANCH   1   4
BRANCH   1  16
ATOM     16  N   UNL     1      46.972   7.823  11.949  0.00  0.00    +0.000 N 
ATOM     17  H   UNL     1      47.501   7.359  11.215  0.00  0.00    +0.000 HD
BRANCH  16  22
ATOM     18 CL   UNL     1      49.552   6.620  17.019  0.00  0.00    +0.000 Cl
ATOM     19  C   UNL     1      48.816   6.958  15.514  0.00  0.00    +0.000 A 
ATOM     20  C   UNL     1      48.026   6.034  14.854  0.00  0.00    +0.000 A 
ATOM     21  N   UNL     1      47.413   6.303  13.670  0.00  0.00    +0.000 NA
ATOM     22  C   UNL     1      47.608   7.539  13.160  0.00  0.00    +0.000 A 
ATOM     23  C   UNL     1      48.439   8.443  13.836  0.00  0.00    +0.000 A 
ATOM     24  N   UNL     1      49.051   8.186  15.021  0.00  0.00    +0.000 NA
ENDBRANCH  16  22
ENDBRANCH   1  16
TORSDOF 4
ENDMDL
MODEL 8
REMARK VINA RESULT:    -6.484      2.945      6.796
REMARK INTER + INTRA:          -8.618
REMARK INTER:                  -7.798
REMARK INTRA:                  -0.820
REMARK UNBOUND:                -0.619
REMARK  Name = 
REMARK  4 active torsions:
REMARK  status: ('A' for Active; 'I' for Inactive)
REMARK    1  A    between atoms: C_5  and  N_6
REMARK    2  A    between atoms: N_6  and  C_7
REMARK    3  A    between atoms: C_7  and  C_8
REMARK    4  A    between atoms: C_12  and  C_13
REMARK                            x       y       z     vdW  Elec       q    Type
REMARK                         _______ _______ _______ _____ _____    ______ ____
ROOT
ATOM      1  C   UNL     1      46.279   5.129  13.603  0.00  0.00    +0.000 C 
ATOM      2  C   UNL     1      46.141   4.288  14.875  0.00  0.00    +0.000 C 
ATOM      3  C   UNL     1      47.283   4.041  13.953  0.00  0.00    +0.000 C 
ENDROOT
BRANCH   1   4
ATOM      4  C   UNL     1      45.283   4.830  12.479  0.00  0.00    +0.000 A 
ATOM      5  C   UNL     1      44.012   5.423  12.438  0.00  0.00    +0.000 A 
ATOM      6  C   UNL     1      43.197   5.312  11.313  0.00  0.00    +0.000 A 
ATOM      7  C   UNL     1      43.651   4.617  10.191  0.00  0.00    +0.000 A 
ATOM      8  C   UNL     1      44.892   3.965  10.197  0.00  0.00    +0.000 A 
ATOM      9  C   UNL     1      45.658   4.040  11.375  0.00  0.00    +0.000 A 
BRANCH   8  10
ATOM     10  C   UNL     1      45.433   3.342   8.974  0.00  0.00    +0.000 A 
ATOM     11  C   UNL     1      45.630   1.968   8.840  0.00  0.00    +0.000 A 
ATOM     12  C   UNL     1      46.255   1.479   7.694  0.00  0.00    +0.000 A 
ATOM     13  C   UNL     1      46.671   2.370   6.713  0.00  0.00    +0.000 A 
ATOM     14  C   UNL     1      46.428   3.716   6.912  0.00  0.00    +0.000 A 
ATOM     15  N   UNL     1      45.818   4.214   8.009  0.00  0.00    +0.000 NA
ENDBRANCH   8  10
ENDBRANCH   1   4
BRANCH   1  16
ATOM     16  N   UNL     1      46.641   6.548  13.762  0.00  0.00    +0.000 N 
ATOM     17  H   UNL     1      45.913   7.239  13.599  0.00  0.00    +0.000 HD
BRANCH  16  22
ATOM     18 CL   UNL     1      51.608   8.697  11.636  0.00  0.00    +0.000 Cl
ATOM     19  C   UNL     1      50.136   8.094  12.261  0.00  0.00    +0.000 A 
ATOM     20  C   UNL     1      49.039   7.845  11.455  0.00  0.00    +0.000 A 
ATOM     21  N   UNL     1      47.872   7.339  11.938  0.00  0.00    +0.000 NA
ATOM     22  C   UNL     1      47.834   7.078  13.264  0.00  0.00    +0.000 A 
ATOM     23  C   UNL     1      48.951   7.370  14.059  0.00  0.00    +0.000 A 
ATOM     24  N   UNL     1      50.122   7.870  13.586  0.00  0.00    +0.000 NA
ENDBRANCH  16  22
ENDBRANCH   1  16
TORSDOF 4
ENDMDL
MODEL 9
REMARK VINA RESULT:    -6.415      3.827      7.691
REMARK INTER + INTRA:          -8.534
REMARK INTER:                  -7.797
REMARK INTRA:                  -0.736
REMARK UNBOUND:                -0.619
REMARK  Name = 
REMARK  4 active torsions:
REMARK  status: ('A' for Active; 'I' for Inactive)
REMARK    1  A    between atoms: C_5  and  N_6
REMARK    2  A    between atoms: N_6  and  C_7
REMARK    3  A    between atoms: C_7  and  C_8
REMARK    4  A    between atoms: C_12  and  C_13
REMARK                            x       y       z     vdW  Elec       q    Type
REMARK                         _______ _______ _______ _____ _____    ______ ____
ROOT
ATOM      1  C   UNL     1      48.978   7.830  12.636  0.00  0.00    +0.000 C 
ATOM      2  C   UNL     1      49.799   8.189  11.394  0.00  0.00    +0.000 C 
ATOM      3  C   UNL     1      49.508   9.238  12.410  0.00  0.00    +0.000 C 
ENDROOT
BRANCH   1   4
ATOM      4  C   UNL     1      47.480   7.600  12.417  0.00  0.00    +0.000 A 
ATOM      5  C   UNL     1      46.526   8.578  12.736  0.00  0.00    +0.000 A 
ATOM      6  C   UNL     1      45.195   8.447  12.344  0.00  0.00    +0.000 A 
ATOM      7  C   UNL     1      44.796   7.336  11.601  0.00  0.00    +0.000 A 
ATOM      8  C   UNL     1      45.699   6.306  11.296  0.00  0.00    +0.000 A 
ATOM      9  C   UNL     1      47.017   6.439  11.768  0.00  0.00    +0.000 A 
BRANCH   8  10
ATOM     10  C   UNL     1      45.317   5.197  10.402  0.00  0.00    +0.000 A 
ATOM     11  C   UNL     1      44.593   4.084  10.832  0.00  0.00    +0.000 A 
ATOM     12  C   UNL     1      44.378   3.029   9.947  0.00  0.00    +0.000 A 
ATOM     13  C   UNL     1      44.893   3.106   8.659  0.00  0.00    +0.000 A 
ATOM     14  C   UNL     1      45.588   4.246   8.303  0.00  0.00    +0.000 A 
ATOM     15  N   UNL     1      45.803   5.285   9.138  0.00  0.00    +0.000 NA
ENDBRANCH   8  10
ENDBRANCH   1   4
BRANCH   1  16
ATOM     16  N   UNL     1      49.609   6.955  13.638  0.00  0.00    +0.000 N 
ATOM     17  H   UNL     1      49.784   5.988  13.374  0.00  0.00    +0.000 HD
BRANCH  16  22
ATOM     18 CL   UNL     1      47.943   6.914  19.209  0.00  0.00    +0.000 Cl
ATOM     19  C   UNL     1      48.461   6.915  17.579  0.00  0.00    +0.000 A 
ATOM     20  C   UNL     1      48.496   5.763  16.815  0.00  0.00    +0.000 A 
ATOM     21  N   UNL     1      48.880   5.758  15.510  0.00  0.00    +0.000 NA
ATOM     22  C   UNL     1      49.225   6.953  14.981  0.00  0.00    +0.000 A 
ATOM     23  C   UNL     1      49.209   8.098  15.790  0.00  0.00    +0.000 A 
ATOM     24  N   UNL     1      48.823   8.114  17.092  0.00  0.00    +0.000 NA
ENDBRANCH  16  22
ENDBRANCH   1  16
TORSDOF 4
ENDMDL
