MODEL 1
REMARK VINA RESULT:    -7.183      0.000      0.000
REMARK INTER + INTRA:         -10.434
REMARK INTER:                  -9.493
REMARK INTRA:                  -0.941
REMARK UNBOUND:                -0.941
REMARK  Name = 
REMARK  6 active torsions:
REMARK  status: ('A' for Active; 'I' for Inactive)
REMARK    1  A    between atoms: N_1  and  S_2
REMARK    2  A    between atoms: S_2  and  C_5
REMARK    3  A    between atoms: C_10  and  N_11
REMARK    4  A    between atoms: N_11  and  C_12
REMARK    5  A    between atoms: C_12  and  C_13
REMARK    6  A    between atoms: C_17  and  C_18
REMARK                            x       y       z     vdW  Elec       q    Type
REMARK                         _______ _______ _______ _____ _____    ______ ____
ROOT
ATOM      1  N   UNL     1      44.952   5.796  10.546  0.00  0.00    +0.000 N 
ATOM      2  H   UNL     1      44.895   6.637   9.958  0.00  0.00    +0.000 HD
ENDROOT
BRANCH   1   8
ATOM      3  C   UNL     1      44.626   3.341  10.174  0.00  0.00    +0.000 A 
ATOM      4  C   UNL     1      44.836   2.204   9.363  0.00  0.00    +0.000 A 
ATOM      5  C   UNL     1      45.516   2.303   8.155  0.00  0.00    +0.000 A 
ATOM      6  C   UNL     1      46.018   3.531   7.762  0.00  0.00    +0.000 A 
ATOM      7  C   UNL     1      45.830   4.652   8.575  0.00  0.00    +0.000 A 
ATOM      8  C   UNL     1      45.083   4.614   9.774  0.00  0.00    +0.000 A 
BRANCH   3   9
ATOM      9  S   UNL     1      43.640   3.066  11.621  0.00  0.00    +0.000 S 
ATOM     10  O   UNL     1      44.434   3.317  12.798  0.00  0.00    +0.000 OA
ATOM     11  O   UNL     1      42.886   1.842  11.473  0.00  0.00    +0.000 OA
BRANCH   9  12
ATOM     12  N   UNL     1      42.515   4.314  11.558  0.00  0.00    +0.000 NA
ATOM     13  H   UNL     1      42.485   4.706  10.617  0.00  0.00    +0.000 HD
ATOM     14  H   UNL     1      42.719   5.000  12.286  0.00  0.00    +0.000 HD
ENDBRANCH   9  12
ENDBRANCH   3   9
ENDBRANCH   1   8
BRANCH   1  15
ATOM     15  C   UNL     1      45.958   5.963  11.603  0.00  0.00    +0.000 C 
BRANCH  15  16
ATOM     16  C   UNL     1      46.293   7.399  11.903  0.00  0.00    +0.000 A 
ATOM     17  C   UNL     1      45.320   8.398  11.832  0.00  0.00    +0.000 A 
ATOM     18  C   UNL     1      45.689   9.739  11.929  0.00  0.00    +0.000 A 
ATOM     19  C   UNL     1      47.016  10.090  12.175  0.00  0.00    +0.000 A 
ATOM     20  C   UNL     1      47.982   9.102  12.398  0.00  0.00    +0.000 A 
ATOM     21  C   UNL     1      47.618   7.761  12.187  0.00  0.00    +0.000 A 
BRANCH  20  22
ATOM     22  C   UNL     1      49.310   9.374  13.101  0.00  0.00    +0.000 C 
ATOM     23  C   UNL     1      49.997  10.532  12.346  0.00  0.00    +0.000 C 
ATOM     24  C   UNL     1      50.550  10.052  11.004  0.00  0.00    +0.000 C 
ATOM     25  C   UNL     1      51.470   8.842  11.173  0.00  0.00    +0.000 C 
ATOM     26  N   UNL     1      50.895   7.757  11.967  0.00  0.00    +0.000 NA
ATOM     27  C   UNL     1      50.323   8.216  13.238  0.00  0.00    +0.000 C 
ATOM     28  H   UNL     1      51.602   7.045  12.143  0.00  0.00    +0.000 HD
ENDBRANCH  20  22
ENDBRANCH  15  16
ENDBRANCH   1  15
TORSDOF 6
ENDMDL
MODEL 2
REMARK VINA RESULT:    -7.124      4.010      7.156
REMARK INTER + INTRA:         -10.354
REMARK INTER:                  -8.912
REMARK INTRA:                  -1.442
REMARK UNBOUND:                -0.941
REMARK  Name = 
REMARK  6 active torsions:
REMARK  status: ('A' for Active; 'I' for Inactive)
REMARK    1  A    between atoms: N_1  and  S_2
REMARK    2  A    between atoms: S_2  and  C_5
REMARK    3  A    between atoms: C_10  and  N_11
REMARK    4  A    between atoms: N_11  and  C_12
REMARK    5  A    between atoms: C_12  and  C_13
REMARK    6  A    between atoms: C_17  and  C_18
REMARK                            x       y       z     vdW  Elec       q    Type
REMARK                         _______ _______ _______ _____ _____    ______ ____
ROOT
ATOM      1  N   UNL     1      48.583   6.390  14.988  0.00  0.00    +0.000 N 
ATOM      2  H   UNL     1      49.393   5.904  14.584  0.00  0.00    +0.000 HD
ENDROOT
BRANCH   1   8
ATOM      3  C   UNL     1      48.119   5.234  17.161  0.00  0.00    +0.000 A 
ATOM      4  C   UNL     1      48.108   5.276  18.573  0.00  0.00    +0.000 A 
ATOM      5  C   UNL     1      48.533   6.409  19.258  0.00  0.00    +0.000 A 
ATOM      6  C   UNL     1      48.942   7.518  18.539  0.00  0.00    +0.000 A 
ATOM      7  C   UNL     1      48.932   7.485  17.143  0.00  0.00    +0.000 A 
ATOM      8  C   UNL     1      48.579   6.332  16.404  0.00  0.00    +0.000 A 
BRANCH   3   9
ATOM      9  S   UNL     1      47.660   3.678  16.447  0.00  0.00    +0.000 S 
ATOM     10  O   UNL     1      48.808   2.807  16.418  0.00  0.00    +0.000 OA
ATOM     11  O   UNL     1      46.857   3.901  15.266  0.00  0.00    +0.000 OA
BRANCH   9  12
ATOM     12  N   UNL     1      46.622   3.024  17.596  0.00  0.00    +0.000 NA
ATOM     13  H   UNL     1      45.665   3.323  17.409  0.00  0.00    +0.000 HD
ATOM     14  H   UNL     1      46.953   3.256  18.533  0.00  0.00    +0.000 HD
ENDBRANCH   9  12
ENDBRANCH   3   9
ENDBRANCH   1   8
BRANCH   1  15
ATOM     15  C   UNL     1      48.440   7.735  14.419  0.00  0.00    +0.000 C 
BRANCH  15  16
ATOM     16  C   UNL     1      47.313   7.862  13.431  0.00  0.00    +0.000 A 
ATOM     17  C   UNL     1      46.876   9.112  12.988  0.00  0.00    +0.000 A 
ATOM     18  C   UNL     1      45.716   9.215  12.222  0.00  0.00    +0.000 A 
ATOM     19  C   UNL     1      45.027   8.069  11.828  0.00  0.00    +0.000 A 
ATOM     20  C   UNL     1      45.528   6.799  12.133  0.00  0.00    +0.000 A 
ATOM     21  C   UNL     1      46.634   6.713  12.998  0.00  0.00    +0.000 A 
BRANCH  20  22
ATOM     22  C   UNL     1      45.114   5.534  11.385  0.00  0.00    +0.000 C 
ATOM     23  C   UNL     1      43.589   5.614  11.161  0.00  0.00    +0.000 C 
ATOM     24  C   UNL     1      42.835   5.356  12.466  0.00  0.00    +0.000 C 
ATOM     25  C   UNL     1      43.259   4.036  13.112  0.00  0.00    +0.000 C 
ATOM     26  N   UNL     1      44.705   3.875  13.254  0.00  0.00    +0.000 NA
ATOM     27  C   UNL     1      45.440   4.162  12.017  0.00  0.00    +0.000 C 
ATOM     28  H   UNL     1      44.918   2.931  13.571  0.00  0.00    +0.000 HD
ENDBRANCH  20  22
ENDBRANCH  15  16
ENDBRANCH   1  15
TORSDOF 6
ENDMDL
MODEL 3
REMARK VINA RESULT:    -7.084      1.495      2.163
REMARK INTER + INTRA:         -10.303
REMARK INTER:                  -9.422
REMARK INTRA:                  -0.880
REMARK UNBOUND:                -0.941
REMARK  Name = 
REMARK  6 active torsions:
REMARK  status: ('A' for Active; 'I' for Inactive)
REMARK    1  A    between atoms: N_1  and  S_2
REMARK    2  A    between atoms: S_2  and  C_5
REMARK    3  A    between atoms: C_10  and  N_11
REMARK    4  A    between atoms: N_11  and  C_12
REMARK    5  A    between atoms: C_12  and  C_13
REMARK    6  A    between atoms: C_17  and  C_18
REMARK                            x       y       z     vdW  Elec       q    Type
REMARK                         _______ _______ _______ _____ _____    ______ ____
ROOT
ATOM      1  N   UNL     1      44.995   5.811  10.356  0.00  0.00    +0.000 N 
ATOM      2  H   UNL     1      44.976   6.632   9.739  0.00  0.00    +0.000 HD
ENDROOT
BRANCH   1   8
ATOM      3  C   UNL     1      44.607   3.353  10.066  0.00  0.00    +0.000 A 
ATOM      4  C   UNL     1      44.791   2.184   9.295  0.00  0.00    +0.000 A 
ATOM      5  C   UNL     1      45.481   2.224   8.089  0.00  0.00    +0.000 A 
ATOM      6  C   UNL     1      46.018   3.424   7.658  0.00  0.00    +0.000 A 
ATOM      7  C   UNL     1      45.854   4.576   8.431  0.00  0.00    +0.000 A 
ATOM      8  C   UNL     1      45.099   4.600   9.625  0.00  0.00    +0.000 A 
BRANCH   3   9
ATOM      9  S   UNL     1      43.605   3.154  11.514  0.00  0.00    +0.000 S 
ATOM     10  O   UNL     1      42.866   1.920  11.420  0.00  0.00    +0.000 OA
ATOM     11  O   UNL     1      42.945   4.401  11.827  0.00  0.00    +0.000 OA
BRANCH   9  12
ATOM     12  N   UNL     1      44.739   2.912  12.731  0.00  0.00    +0.000 NA
ATOM     13  H   UNL     1      45.661   3.201  12.407  0.00  0.00    +0.000 HD
ATOM     14  H   UNL     1      44.698   1.944  13.054  0.00  0.00    +0.000 HD
ENDBRANCH   9  12
ENDBRANCH   3   9
ENDBRANCH   1   8
BRANCH   1  15
ATOM     15  C   UNL     1      45.986   5.979  11.425  0.00  0.00    +0.000 C 
BRANCH  15  16
ATOM     16  C   UNL     1      46.250   7.415  11.790  0.00  0.00    +0.000 A 
ATOM     17  C   UNL     1      45.209   8.342  11.873  0.00  0.00    +0.000 A 
ATOM     18  C   UNL     1      45.493   9.698  12.026  0.00  0.00    +0.000 A 
ATOM     19  C   UNL     1      46.810  10.131  12.177  0.00  0.00    +0.000 A 
ATOM     20  C   UNL     1      47.858   9.205  12.247  0.00  0.00    +0.000 A 
ATOM     21  C   UNL     1      47.568   7.856  11.979  0.00  0.00    +0.000 A 
BRANCH  20  22
ATOM     22  C   UNL     1      49.223   9.531  12.846  0.00  0.00    +0.000 C 
ATOM     23  C   UNL     1      49.553   8.417  13.863  0.00  0.00    +0.000 C 
ATOM     24  C   UNL     1      48.712   8.571  15.130  0.00  0.00    +0.000 C 
ATOM     25  C   UNL     1      48.853   9.969  15.734  0.00  0.00    +0.000 C 
ATOM     26  N   UNL     1      48.645  11.058  14.781  0.00  0.00    +0.000 NA
ATOM     27  C   UNL     1      49.417  10.896  13.544  0.00  0.00    +0.000 C 
ATOM     28  H   UNL     1      48.877  11.949  15.219  0.00  0.00    +0.000 HD
ENDBRANCH  20  22
ENDBRANCH  15  16
ENDBRANCH   1  15
TORSDOF 6
ENDMDL
MODEL 4
REMARK VINA RESULT:    -6.991      1.907      3.591
REMARK INTER + INTRA:         -10.180
REMARK INTER:                  -9.178
REMARK INTRA:                  -1.002
REMARK UNBOUND:                -0.941
REMARK  Name = 
REMARK  6 active torsions:
REMARK  status: ('A' for Active; 'I' for Inactive)
REMARK    1  A    between atoms: N_1  and  S_2
REMARK    2  A    between atoms: S_2  and  C_5
REMARK    3  A    between atoms: C_10  and  N_11
REMARK    4  A    between atoms: N_11  and  C_12
REMARK    5  A    between atoms: C_12  and  C_13
REMARK    6  A    between atoms: C_17  and  C_18
REMARK                            x       y       z     vdW  Elec       q    Type
REMARK                         _______ _______ _______ _____ _____    ______ ____
ROOT
ATOM      1  N   UNL     1      44.891   5.847  10.525  0.00  0.00    +0.000 N 
ATOM      2  H   UNL     1      44.726   6.662   9.921  0.00  0.00    +0.000 HD
ENDROOT
BRANCH   1   8
ATOM      3  C   UNL     1      44.646   3.375  10.202  0.00  0.00    +0.000 A 
ATOM      4  C   UNL     1      44.892   2.230   9.413  0.00  0.00    +0.000 A 
ATOM      5  C   UNL     1      45.567   2.328   8.202  0.00  0.00    +0.000 A 
ATOM      6  C   UNL     1      46.028   3.563   7.784  0.00  0.00    +0.000 A 
ATOM      7  C   UNL     1      45.804   4.693   8.575  0.00  0.00    +0.000 A 
ATOM      8  C   UNL     1      45.059   4.655   9.776  0.00  0.00    +0.000 A 
BRANCH   3   9
ATOM      9  S   UNL     1      43.671   3.097  11.656  0.00  0.00    +0.000 S 
ATOM     10  O   UNL     1      44.487   3.301  12.827  0.00  0.00    +0.000 OA
ATOM     11  O   UNL     1      42.882   1.897  11.492  0.00  0.00    +0.000 OA
BRANCH   9  12
ATOM     12  N   UNL     1      42.580   4.375  11.634  0.00  0.00    +0.000 NA
ATOM     13  H   UNL     1      42.868   5.088  12.303  0.00  0.00    +0.000 HD
ATOM     14  H   UNL     1      41.633   4.025  11.784  0.00  0.00    +0.000 HD
ENDBRANCH   9  12
ENDBRANCH   3   9
ENDBRANCH   1   8
BRANCH   1  15
ATOM     15  C   UNL     1      45.952   6.123  11.501  0.00  0.00    +0.000 C 
BRANCH  15  16
ATOM     16  C   UNL     1      46.271   7.585  11.655  0.00  0.00    +0.000 A 
ATOM     17  C   UNL     1      47.591   8.038  11.695  0.00  0.00    +0.000 A 
ATOM     18  C   UNL     1      47.865   9.364  12.025  0.00  0.00    +0.000 A 
ATOM     19  C   UNL     1      46.825  10.267  12.240  0.00  0.00    +0.000 A 
ATOM     20  C   UNL     1      45.494   9.873  12.060  0.00  0.00    +0.000 A 
ATOM     21  C   UNL     1      45.231   8.510  11.837  0.00  0.00    +0.000 A 
BRANCH  20  22
ATOM     22  C   UNL     1      44.353  10.861  11.830  0.00  0.00    +0.000 C 
ATOM     23  C   UNL     1      43.484  10.297  10.686  0.00  0.00    +0.000 C 
ATOM     24  C   UNL     1      44.190  10.456   9.339  0.00  0.00    +0.000 C 
ATOM     25  C   UNL     1      44.609  11.906   9.089  0.00  0.00    +0.000 C 
ATOM     26  N   UNL     1      45.353  12.513  10.192  0.00  0.00    +0.000 NA
ATOM     27  C   UNL     1      44.703  12.328  11.494  0.00  0.00    +0.000 C 
ATOM     28  H   UNL     1      45.487  13.507  10.012  0.00  0.00    +0.000 HD
ENDBRANCH  20  22
ENDBRANCH  15  16
ENDBRANCH   1  15
TORSDOF 6
ENDMDL
MODEL 5
REMARK VINA RESULT:    -6.891      3.959      7.283
REMARK INTER + INTRA:         -10.047
REMARK INTER:                  -8.914
REMARK INTRA:                  -1.133
REMARK UNBOUND:                -0.941
REMARK  Name = 
REMARK  6 active torsions:
REMARK  status: ('A' for Active; 'I' for Inactive)
REMARK    1  A    between atoms: N_1  and  S_2
REMARK    2  A    between atoms: S_2  and  C_5
REMARK    3  A    between atoms: C_10  and  N_11
REMARK    4  A    between atoms: N_11  and  C_12
REMARK    5  A    between atoms: C_12  and  C_13
REMARK    6  A    between atoms: C_17  and  C_18
REMARK                            x       y       z     vdW  Elec       q    Type
REMARK                         _______ _______ _______ _____ _____    ______ ____
ROOT
ATOM      1  N   UNL     1      48.222   6.505  15.527  0.00  0.00    +0.000 N 
ATOM      2  H   UNL     1      47.310   6.086  15.746  0.00  0.00    +0.000 HD
ENDROOT
BRANCH   1   8
ATOM      3  C   UNL     1      49.117   4.818  17.147  0.00  0.00    +0.000 A 
ATOM      4  C   UNL     1      50.210   4.318  17.890  0.00  0.00    +0.000 A 
ATOM      5  C   UNL     1      51.466   4.906  17.797  0.00  0.00    +0.000 A 
ATOM      6  C   UNL     1      51.634   6.014  16.987  0.00  0.00    +0.000 A 
ATOM      7  C   UNL     1      50.549   6.522  16.269  0.00  0.00    +0.000 A 
ATOM      8  C   UNL     1      49.272   5.915  16.274  0.00  0.00    +0.000 A 
BRANCH   3   9
ATOM      9  S   UNL     1      47.617   3.884  17.287  0.00  0.00    +0.000 S 
ATOM     10  O   UNL     1      47.837   2.750  18.149  0.00  0.00    +0.000 OA
ATOM     11  O   UNL     1      47.015   3.729  15.982  0.00  0.00    +0.000 OA
BRANCH   9  12
ATOM     12  N   UNL     1      46.605   4.917  18.145  0.00  0.00    +0.000 NA
ATOM     13  H   UNL     1      47.058   5.205  19.011  0.00  0.00    +0.000 HD
ATOM     14  H   UNL     1      45.695   4.474  18.281  0.00  0.00    +0.000 HD
ENDBRANCH   9  12
ENDBRANCH   3   9
ENDBRANCH   1   8
BRANCH   1  15
ATOM     15  C   UNL     1      48.441   6.553  14.076  0.00  0.00    +0.000 C 
BRANCH  15  16
ATOM     16  C   UNL     1      47.194   6.828  13.281  0.00  0.00    +0.000 A 
ATOM     17  C   UNL     1      47.106   7.932  12.431  0.00  0.00    +0.000 A 
ATOM     18  C   UNL     1      45.885   8.272  11.851  0.00  0.00    +0.000 A 
ATOM     19  C   UNL     1      44.762   7.469  12.050  0.00  0.00    +0.000 A 
ATOM     20  C   UNL     1      44.861   6.277  12.776  0.00  0.00    +0.000 A 
ATOM     21  C   UNL     1      46.068   6.007  13.445  0.00  0.00    +0.000 A 
BRANCH  20  22
ATOM     22  C   UNL     1      43.843   5.144  12.667  0.00  0.00    +0.000 C 
ATOM     23  C   UNL     1      44.636   3.837  12.448  0.00  0.00    +0.000 C 
ATOM     24  C   UNL     1      45.193   3.773  11.026  0.00  0.00    +0.000 C 
ATOM     25  C   UNL     1      44.095   3.968   9.980  0.00  0.00    +0.000 C 
ATOM     26  N   UNL     1      43.255   5.143  10.204  0.00  0.00    +0.000 NA
ATOM     27  C   UNL     1      42.751   5.236  11.578  0.00  0.00    +0.000 C 
ATOM     28  H   UNL     1      42.475   5.140   9.549  0.00  0.00    +0.000 HD
ENDBRANCH  20  22
ENDBRANCH  15  16
ENDBRANCH   1  15
TORSDOF 6
ENDMDL
MODEL 6
REMARK VINA RESULT:    -6.827      4.372      7.200
REMARK INTER + INTRA:          -9.962
REMARK INTER:                  -8.757
REMARK INTRA:                  -1.205
REMARK UNBOUND:                -0.941
REMARK  Name = 
REMARK  6 active torsions:
REMARK  status: ('A' for Active; 'I' for Inactive)
REMARK    1  A    between atoms: N_1  and  S_2
REMARK    2  A    between atoms: S_2  and  C_5
REMARK    3  A    between atoms: C_10  and  N_11
REMARK    4  A    between atoms: N_11  and  C_12
REMARK    5  A    between atoms: C_12  and  C_13
REMARK    6  A    between atoms: C_17  and  C_18
REMARK                            x       y       z     vdW  Elec       q    Type
REMARK                         _______ _______ _______ _____ _____    ______ ____
ROOT
ATOM      1  N   UNL     1      43.401   9.438  11.019  0.00  0.00    +0.000 N 
ATOM      2  H   UNL     1      42.612   9.184  11.626  0.00  0.00    +0.000 HD
ENDROOT
BRANCH   1   8
ATOM      3  C   UNL     1      41.860  11.201  10.131  0.00  0.00    +0.000 A 
ATOM      4  C   UNL     1      41.572  12.166   9.141  0.00  0.00    +0.000 A 
ATOM      5  C   UNL     1      42.449  12.392   8.086  0.00  0.00    +0.000 A 
ATOM      6  C   UNL     1      43.604  11.636   7.995  0.00  0.00    +0.000 A 
ATOM      7  C   UNL     1      43.879  10.667   8.963  0.00  0.00    +0.000 A 
ATOM      8  C   UNL     1      43.055  10.453  10.092  0.00  0.00    +0.000 A 
BRANCH   3   9
ATOM      9  S   UNL     1      40.700  11.121  11.468  0.00  0.00    +0.000 S 
ATOM     10  O   UNL     1      39.497  11.826  11.103  0.00  0.00    +0.000 OA
ATOM     11  O   UNL     1      41.376  11.388  12.718  0.00  0.00    +0.000 OA
BRANCH   9  12
ATOM     12  N   UNL     1      40.277   9.494  11.508  0.00  0.00    +0.000 NA
ATOM     13  H   UNL     1      39.516   9.318  10.853  0.00  0.00    +0.000 HD
ATOM     14  H   UNL     1      40.072   9.214  12.468  0.00  0.00    +0.000 HD
ENDBRANCH   9  12
ENDBRANCH   3   9
ENDBRANCH   1   8
BRANCH   1  15
ATOM     15  C   UNL     1      44.609   9.704  11.811  0.00  0.00    +0.000 C 
BRANCH  15  16
ATOM     16  C   UNL     1      45.424   8.475  12.109  0.00  0.00    +0.000 A 
ATOM     17  C   UNL     1      46.820   8.511  12.088  0.00  0.00    +0.000 A 
ATOM     18  C   UNL     1      47.550   7.327  12.181  0.00  0.00    +0.000 A 
ATOM     19  C   UNL     1      46.898   6.109  12.373  0.00  0.00    +0.000 A 
ATOM     20  C   UNL     1      45.510   6.067  12.546  0.00  0.00    +0.000 A 
ATOM     21  C   UNL     1      44.780   7.250  12.339  0.00  0.00    +0.000 A 
BRANCH  20  22
ATOM     22  C   UNL     1      44.784   4.891  13.195  0.00  0.00    +0.000 C 
ATOM     23  C   UNL     1      45.398   3.599  12.615  0.00  0.00    +0.000 C 
ATOM     24  C   UNL     1      44.937   3.378  11.174  0.00  0.00    +0.000 C 
ATOM     25  C   UNL     1      43.413   3.397  11.060  0.00  0.00    +0.000 C 
ATOM     26  N   UNL     1      42.779   4.558  11.684  0.00  0.00    +0.000 NA
ATOM     27  C   UNL     1      43.248   4.802  13.052  0.00  0.00    +0.000 C 
ATOM     28  H   UNL     1      41.767   4.442  11.681  0.00  0.00    +0.000 HD
ENDBRANCH  20  22
ENDBRANCH  15  16
ENDBRANCH   1  15
TORSDOF 6
ENDMDL
MODEL 7
REMARK VINA RESULT:    -6.457      4.903      7.750
REMARK INTER + INTRA:          -9.473
REMARK INTER:                  -8.227
REMARK INTRA:                  -1.247
REMARK UNBOUND:                -0.941
REMARK  Name = 
REMARK  6 active torsions:
REMARK  status: ('A' for Active; 'I' for Inactive)
REMARK    1  A    between atoms: N_1  and  S_2
REMARK    2  A    between atoms: S_2  and  C_5
REMARK    3  A    between atoms: C_10  and  N_11
REMARK    4  A    between atoms: N_11  and  C_12
REMARK    5  A    between atoms: C_12  and  C_13
REMARK    6  A    between atoms: C_17  and  C_18
REMARK                            x       y       z     vdW  Elec       q    Type
REMARK                         _______ _______ _______ _____ _____    ______ ____
ROOT
ATOM      1  N   UNL     1      48.215   6.451  15.750  0.00  0.00    +0.000 N 
ATOM      2  H   UNL     1      47.327   6.945  15.895  0.00  0.00    +0.000 HD
ENDROOT
BRANCH   1   8
ATOM      3  C   UNL     1      49.467   5.022  17.383  0.00  0.00    +0.000 A 
ATOM      4  C   UNL     1      49.524   3.844  18.161  0.00  0.00    +0.000 A 
ATOM      5  C   UNL     1      48.478   2.930  18.153  0.00  0.00    +0.000 A 
ATOM      6  C   UNL     1      47.379   3.168  17.346  0.00  0.00    +0.000 A 
ATOM      7  C   UNL     1      47.331   4.322  16.560  0.00  0.00    +0.000 A 
ATOM      8  C   UNL     1      48.337   5.316  16.591  0.00  0.00    +0.000 A 
BRANCH   3   9
ATOM      9  S   UNL     1      50.827   6.137  17.598  0.00  0.00    +0.000 S 
ATOM     10  O   UNL     1      51.829   5.518  18.429  0.00  0.00    +0.000 OA
ATOM     11  O   UNL     1      50.330   7.464  17.885  0.00  0.00    +0.000 OA
BRANCH   9  12
ATOM     12  N   UNL     1      51.500   6.218  16.059  0.00  0.00    +0.000 NA
ATOM     13  H   UNL     1      50.888   5.752  15.389  0.00  0.00    +0.000 HD
ATOM     14  H   UNL     1      52.451   5.848  16.078  0.00  0.00    +0.000 HD
ENDBRANCH   9  12
ENDBRANCH   3   9
ENDBRANCH   1   8
BRANCH   1  15
ATOM     15  C   UNL     1      48.447   6.195  14.323  0.00  0.00    +0.000 C 
BRANCH  15  16
ATOM     16  C   UNL     1      47.275   6.540  13.445  0.00  0.00    +0.000 A 
ATOM     17  C   UNL     1      47.329   7.616  12.557  0.00  0.00    +0.000 A 
ATOM     18  C   UNL     1      46.176   8.032  11.893  0.00  0.00    +0.000 A 
ATOM     19  C   UNL     1      44.981   7.331  12.049  0.00  0.00    +0.000 A 
ATOM     20  C   UNL     1      44.938   6.162  12.817  0.00  0.00    +0.000 A 
ATOM     21  C   UNL     1      46.078   5.820  13.567  0.00  0.00    +0.000 A 
BRANCH  20  22
ATOM     22  C   UNL     1      43.838   5.113  12.683  0.00  0.00    +0.000 C 
ATOM     23  C   UNL     1      44.529   3.755  12.434  0.00  0.00    +0.000 C 
ATOM     24  C   UNL     1      45.083   3.680  11.011  0.00  0.00    +0.000 C 
ATOM     25  C   UNL     1      44.004   3.981   9.970  0.00  0.00    +0.000 C 
ATOM     26  N   UNL     1      43.255   5.212  10.220  0.00  0.00    +0.000 NA
ATOM     27  C   UNL     1      42.757   5.311  11.596  0.00  0.00    +0.000 C 
ATOM     28  H   UNL     1      42.478   5.283   9.565  0.00  0.00    +0.000 HD
ENDBRANCH  20  22
ENDBRANCH  15  16
ENDBRANCH   1  15
TORSDOF 6
ENDMDL
MODEL 8
REMARK VINA RESULT:    -6.400      2.297      2.732
REMARK INTER + INTRA:          -9.398
REMARK INTER:                  -8.276
REMARK INTRA:                  -1.121
REMARK UNBOUND:                -0.941
REMARK  Name = 
REMARK  6 active torsions:
REMARK  status: ('A' for Active; 'I' for Inactive)
REMARK    1  A    between atoms: N_1  and  S_2
REMARK    2  A    between atoms: S_2  and  C_5
REMARK    3  A    between atoms: C_10  and  N_11
REMARK    4  A    between atoms: N_11  and  C_12
REMARK    5  A    between atoms: C_12  and  C_13
REMARK    6  A    between atoms: C_17  and  C_18
REMARK                            x       y       z     vdW  Elec       q    Type
REMARK                         _______ _______ _______ _____ _____    ______ ____
ROOT
ATOM      1  N   UNL     1      44.529   7.056  12.746  0.00  0.00    +0.000 N 
ATOM      2  H   UNL     1      43.510   6.954  12.823  0.00  0.00    +0.000 HD
ENDROOT
BRANCH   1   8
ATOM      3  C   UNL     1      44.734   4.592  12.343  0.00  0.00    +0.000 A 
ATOM      4  C   UNL     1      45.443   3.389  12.553  0.00  0.00    +0.000 A 
ATOM      5  C   UNL     1      46.611   3.369  13.306  0.00  0.00    +0.000 A 
ATOM      6  C   UNL     1      47.064   4.544  13.880  0.00  0.00    +0.000 A 
ATOM      7  C   UNL     1      46.351   5.730  13.690  0.00  0.00    +0.000 A 
ATOM      8  C   UNL     1      45.201   5.814  12.873  0.00  0.00    +0.000 A 
BRANCH   3   9
ATOM      9  S   UNL     1      43.333   4.467  11.264  0.00  0.00    +0.000 S 
ATOM     10  O   UNL     1      43.771   4.583   9.895  0.00  0.00    +0.000 OA
ATOM     11  O   UNL     1      42.249   5.274  11.776  0.00  0.00    +0.000 OA
BRANCH   9  12
ATOM     12  N   UNL     1      42.850   2.868  11.451  0.00  0.00    +0.000 NA
ATOM     13  H   UNL     1      42.092   2.657  10.803  0.00  0.00    +0.000 HD
ATOM     14  H   UNL     1      42.620   2.689  12.430  0.00  0.00    +0.000 HD
ENDBRANCH   9  12
ENDBRANCH   3   9
ENDBRANCH   1   8
BRANCH   1  15
ATOM     15  C   UNL     1      44.890   7.840  11.559  0.00  0.00    +0.000 C 
BRANCH  15  16
ATOM     16  C   UNL     1      45.792   9.008  11.852  0.00  0.00    +0.000 A 
ATOM     17  C   UNL     1      45.344  10.322  11.704  0.00  0.00    +0.000 A 
ATOM     18  C   UNL     1      46.245  11.382  11.798  0.00  0.00    +0.000 A 
ATOM     19  C   UNL     1      47.582  11.145  12.118  0.00  0.00    +0.000 A 
ATOM     20  C   UNL     1      48.021   9.850  12.418  0.00  0.00    +0.000 A 
ATOM     21  C   UNL     1      47.130   8.783  12.210  0.00  0.00    +0.000 A 
BRANCH  20  22
ATOM     22  C   UNL     1      49.303   9.561  13.196  0.00  0.00    +0.000 C 
ATOM     23  C   UNL     1      50.451  10.300  12.475  0.00  0.00    +0.000 C 
ATOM     24  C   UNL     1      50.818   9.591  11.171  0.00  0.00    +0.000 C 
ATOM     25  C   UNL     1      51.133   8.113  11.401  0.00  0.00    +0.000 C 
ATOM     26  N   UNL     1      50.116   7.395  12.167  0.00  0.00    +0.000 NA
ATOM     27  C   UNL     1      49.727   8.089  13.400  0.00  0.00    +0.000 C 
ATOM     28  H   UNL     1      50.448   6.457  12.390  0.00  0.00    +0.000 HD
ENDBRANCH  20  22
ENDBRANCH  15  16
ENDBRANCH   1  15
TORSDOF 6
ENDMDL
MODEL 9
REMARK VINA RESULT:    -6.352      5.165      6.562
REMARK INTER + INTRA:          -9.335
REMARK INTER:                  -8.250
REMARK INTRA:                  -1.085
REMARK UNBOUND:                -0.941
REMARK  Name = 
REMARK  6 active torsions:
REMARK  status: ('A' for Active; 'I' for Inactive)
REMARK    1  A    between atoms: N_1  and  S_2
REMARK    2  A    between atoms: S_2  and  C_5
REMARK    3  A    between atoms: C_10  and  N_11
REMARK    4  A    between atoms: N_11  and  C_12
REMARK    5  A    between atoms: C_12  and  C_13
REMARK    6  A    between atoms: C_17  and  C_18
REMARK                            x       y       z     vdW  Elec       q    Type
REMARK                         _______ _______ _______ _____ _____    ______ ____
ROOT
ATOM      1  N   UNL     1      46.316   4.922  14.127  0.00  0.00    +0.000 N 
ATOM      2  H   UNL     1      45.654   4.553  14.820  0.00  0.00    +0.000 HD
ENDROOT
BRANCH   1   8
ATOM      3  C   UNL     1      44.679   5.469  12.312  0.00  0.00    +0.000 A 
ATOM      4  C   UNL     1      44.143   6.419  11.415  0.00  0.00    +0.000 A 
ATOM      5  C   UNL     1      44.617   7.725  11.390  0.00  0.00    +0.000 A 
ATOM      6  C   UNL     1      45.649   8.085  12.239  0.00  0.00    +0.000 A 
ATOM      7  C   UNL     1      46.193   7.140  13.111  0.00  0.00    +0.000 A 
ATOM      8  C   UNL     1      45.695   5.822  13.224  0.00  0.00    +0.000 A 
BRANCH   3   9
ATOM      9  S   UNL     1      43.884   3.884  12.299  0.00  0.00    +0.000 S 
ATOM     10  O   UNL     1      42.986   3.807  11.174  0.00  0.00    +0.000 OA
ATOM     11  O   UNL     1      43.444   3.548  13.634  0.00  0.00    +0.000 OA
BRANCH   9  12
ATOM     12  N   UNL     1      45.145   2.829  11.947  0.00  0.00    +0.000 NA
ATOM     13  H   UNL     1      46.011   3.353  11.826  0.00  0.00    +0.000 HD
ATOM     14  H   UNL     1      44.896   2.249  11.145  0.00  0.00    +0.000 HD
ENDBRANCH   9  12
ENDBRANCH   3   9
ENDBRANCH   1   8
BRANCH   1  15
ATOM     15  C   UNL     1      47.529   5.431  14.778  0.00  0.00    +0.000 C 
BRANCH  15  16
ATOM     16  C   UNL     1      47.870   4.729  16.064  0.00  0.00    +0.000 A 
ATOM     17  C   UNL     1      47.703   3.350  16.202  0.00  0.00    +0.000 A 
ATOM     18  C   UNL     1      47.845   2.750  17.452  0.00  0.00    +0.000 A 
ATOM     19  C   UNL     1      48.231   3.508  18.558  0.00  0.00    +0.000 A 
ATOM     20  C   UNL     1      48.549   4.863  18.414  0.00  0.00    +0.000 A 
ATOM     21  C   UNL     1      48.294   5.475  17.174  0.00  0.00    +0.000 A 
BRANCH  20  22
ATOM     22  C   UNL     1      49.389   5.637  19.427  0.00  0.00    +0.000 C 
ATOM     23  C   UNL     1      48.846   5.290  20.830  0.00  0.00    +0.000 C 
ATOM     24  C   UNL     1      47.505   5.981  21.079  0.00  0.00    +0.000 C 
ATOM     25  C   UNL     1      47.596   7.490  20.849  0.00  0.00    +0.000 C 
ATOM     26  N   UNL     1      48.196   7.866  19.569  0.00  0.00    +0.000 NA
ATOM     27  C   UNL     1      49.463   7.175  19.303  0.00  0.00    +0.000 C 
ATOM     28  H   UNL     1      48.340   8.875  19.538  0.00  0.00    +0.000 HD
ENDBRANCH  20  22
ENDBRANCH  15  16
ENDBRANCH   1  15
TORSDOF 6
ENDMDL
