MODEL 1
REMARK VINA RESULT:    -8.188      0.000      0.000
REMARK INTER + INTRA:         -11.873
REMARK INTER:                 -11.061
REMARK INTRA:                  -0.812
REMARK UNBOUND:                -0.812
REMARK  Name = 
REMARK  8 active torsions:
REMARK  status: ('A' for Active; 'I' for Inactive)
REMARK    1  A    between atoms: C_1  and  C_2
REMARK    2  A    between atoms: C_4  and  C_5
REMARK    3  A    between atoms: C_5  and  C_6
REMARK    4  A    between atoms: C_6  and  N_7
REMARK    5  A    between atoms: C_11  and  C_12
REMARK    6  A    between atoms: C_18  and  C_19
REMARK    7  A    between atoms: C_20  and  O_21
REMARK    8  A    between atoms: O_21  and  C_22
REMARK                            x       y       z     vdW  Elec       q    Type
REMARK                         _______ _______ _______ _____ _____    ______ ____
ROOT
ATOM      1  C   UNL     1      43.590   5.741  11.972  0.00  0.00    +0.000 C 
ENDROOT
BRANCH   1   5
ATOM      2  C   UNL     1      47.150   4.242  15.181  0.00  0.00    +0.000 C 
ATOM      3  C   UNL     1      46.845   5.088  13.979  0.00  0.00    +0.000 A 
ATOM      4  C   UNL     1      45.520   5.027  13.504  0.00  0.00    +0.000 A 
ATOM      5  C   UNL     1      45.046   5.784  12.424  0.00  0.00    +0.000 A 
ATOM      6  C   UNL     1      45.961   6.610  11.771  0.00  0.00    +0.000 A 
ATOM      7  C   UNL     1      47.295   6.699  12.213  0.00  0.00    +0.000 A 
ATOM      8  C   UNL     1      48.250   7.612  11.485  0.00  0.00    +0.000 C 
ATOM      9  C   UNL     1      47.738   5.950  13.332  0.00  0.00    +0.000 A 
BRANCH   9  10
ATOM     10  O   UNL     1      49.012   6.275  13.743  0.00  0.00    +0.000 OA
BRANCH  10  11
ATOM     11  C   UNL     1      49.276   7.145  14.859  0.00  0.00    +0.000 C 
ATOM     12  C   UNL     1      50.659   7.813  14.819  0.00  0.00    +0.000 C 
ATOM     13  O   UNL     1      51.030   7.254  16.097  0.00  0.00    +0.000 OA
ATOM     14  C   UNL     1      49.775   6.537  16.174  0.00  0.00    +0.000 C 
ENDBRANCH  10  11
ENDBRANCH   9  10
ENDBRANCH   1   5
BRANCH   1  15
ATOM     15  C   UNL     1      43.408   5.093  10.595  0.00  0.00    +0.000 C 
BRANCH  15  16
ATOM     16  N   UNL     1      43.633   3.645  10.566  0.00  0.00    +0.000 N 
ATOM     17  C   UNL     1      44.588   3.324   9.566  0.00  0.00    +0.000 A 
ATOM     18  C   UNL     1      44.925   1.991   9.361  0.00  0.00    +0.000 A 
ATOM     19  C   UNL     1      45.856   1.657   8.372  0.00  0.00    +0.000 A 
ATOM     20  C   UNL     1      46.433   2.670   7.605  0.00  0.00    +0.000 A 
ATOM     21  C   UNL     1      46.049   3.969   7.872  0.00  0.00    +0.000 A 
ATOM     22  N   UNL     1      45.161   4.309   8.836  0.00  0.00    +0.000 NA
ATOM     23  H   UNL     1      42.781   3.131  10.362  0.00  0.00    +0.000 HD
BRANCH  20  24
ATOM     24  C   UNL     1      47.398   2.436   6.512  0.00  0.00    +0.000 C 
ATOM     25  N   UNL     1      47.207   3.125   5.346  0.00  0.00    +0.000 N 
ATOM     26  O   UNL     1      48.317   1.634   6.625  0.00  0.00    +0.000 OA
ATOM     27  H   UNL     1      46.347   3.603   5.123  0.00  0.00    +0.000 HD
ATOM     28  H   UNL     1      47.820   2.879   4.578  0.00  0.00    +0.000 HD
ENDBRANCH  20  24
ENDBRANCH  15  16
ENDBRANCH   1  15
TORSDOF 6
ENDMDL
MODEL 2
REMARK VINA RESULT:    -8.109      1.200      2.201
REMARK INTER + INTRA:         -11.765
REMARK INTER:                 -11.118
REMARK INTRA:                  -0.647
REMARK UNBOUND:                -0.812
REMARK  Name = 
REMARK  8 active torsions:
REMARK  status: ('A' for Active; 'I' for Inactive)
REMARK    1  A    between atoms: C_1  and  C_2
REMARK    2  A    between atoms: C_4  and  C_5
REMARK    3  A    between atoms: C_5  and  C_6
REMARK    4  A    between atoms: C_6  and  N_7
REMARK    5  A    between atoms: C_11  and  C_12
REMARK    6  A    between atoms: C_18  and  C_19
REMARK    7  A    between atoms: C_20  and  O_21
REMARK    8  A    between atoms: O_21  and  C_22
REMARK                            x       y       z     vdW  Elec       q    Type
REMARK                         _______ _______ _______ _____ _____    ______ ____
ROOT
ATOM      1  C   UNL     1      43.144   5.201  12.315  0.00  0.00    +0.000 C 
ENDROOT
BRANCH   1   5
ATOM      2  C   UNL     1      46.993   8.425  12.438  0.00  0.00    +0.000 C 
ATOM      3  C   UNL     1      46.482   7.090  12.899  0.00  0.00    +0.000 A 
ATOM      4  C   UNL     1      45.168   6.766  12.506  0.00  0.00    +0.000 A 
ATOM      5  C   UNL     1      44.546   5.546  12.806  0.00  0.00    +0.000 A 
ATOM      6  C   UNL     1      45.270   4.629  13.569  0.00  0.00    +0.000 A 
ATOM      7  C   UNL     1      46.586   4.915  13.982  0.00  0.00    +0.000 A 
ATOM      8  C   UNL     1      47.337   3.891  14.796  0.00  0.00    +0.000 C 
ATOM      9  C   UNL     1      47.204   6.142  13.632  0.00  0.00    +0.000 A 
BRANCH   9  10
ATOM     10  O   UNL     1      48.540   6.198  13.961  0.00  0.00    +0.000 OA
BRANCH  10  11
ATOM     11  C   UNL     1      49.055   7.053  14.998  0.00  0.00    +0.000 C 
ATOM     12  C   UNL     1      50.461   7.604  14.717  0.00  0.00    +0.000 C 
ATOM     13  O   UNL     1      50.992   7.028  15.928  0.00  0.00    +0.000 OA
ATOM     14  C   UNL     1      49.715   6.417  16.227  0.00  0.00    +0.000 C 
ENDBRANCH  10  11
ENDBRANCH   9  10
ENDBRANCH   1   5
BRANCH   1  15
ATOM     15  C   UNL     1      43.147   4.391  11.014  0.00  0.00    +0.000 C 
BRANCH  15  16
ATOM     16  N   UNL     1      43.873   5.018   9.905  0.00  0.00    +0.000 N 
ATOM     17  C   UNL     1      44.671   4.051   9.240  0.00  0.00    +0.000 A 
ATOM     18  C   UNL     1      45.460   4.451   8.167  0.00  0.00    +0.000 A 
ATOM     19  C   UNL     1      46.260   3.513   7.509  0.00  0.00    +0.000 A 
ATOM     20  C   UNL     1      46.254   2.185   7.939  0.00  0.00    +0.000 A 
ATOM     21  C   UNL     1      45.440   1.866   9.008  0.00  0.00    +0.000 A 
ATOM     22  N   UNL     1      44.649   2.760   9.646  0.00  0.00    +0.000 NA
ATOM     23  H   UNL     1      44.485   5.764  10.223  0.00  0.00    +0.000 HD
BRANCH  20  24
ATOM     24  C   UNL     1      47.082   1.116   7.346  0.00  0.00    +0.000 C 
ATOM     25  N   UNL     1      46.712  -0.177   7.595  0.00  0.00    +0.000 N 
ATOM     26  O   UNL     1      48.082   1.369   6.685  0.00  0.00    +0.000 OA
ATOM     27  H   UNL     1      46.055  -0.434   8.316  0.00  0.00    +0.000 HD
ATOM     28  H   UNL     1      47.347  -0.893   7.261  0.00  0.00    +0.000 HD
ENDBRANCH  20  24
ENDBRANCH  15  16
ENDBRANCH   1  15
TORSDOF 6
ENDMDL
MODEL 3
REMARK VINA RESULT:    -7.912      0.620      1.917
REMARK INTER + INTRA:         -11.499
REMARK INTER:                 -10.781
REMARK INTRA:                  -0.718
REMARK UNBOUND:                -0.812
REMARK  Name = 
REMARK  8 active torsions:
REMARK  status: ('A' for Active; 'I' for Inactive)
REMARK    1  A    between atoms: C_1  and  C_2
REMARK    2  A    between atoms: C_4  and  C_5
REMARK    3  A    between atoms: C_5  and  C_6
REMARK    4  A    between atoms: C_6  and  N_7
REMARK    5  A    between atoms: C_11  and  C_12
REMARK    6  A    between atoms: C_18  and  C_19
REMARK    7  A    between atoms: C_20  and  O_21
REMARK    8  A    between atoms: O_21  and  C_22
REMARK                            x       y       z     vdW  Elec       q    Type
REMARK                         _______ _______ _______ _____ _____    ______ ____
ROOT
ATOM      1  C   UNL     1      43.572   5.865  11.713  0.00  0.00    +0.000 C 
ENDROOT
BRANCH   1   5
ATOM      2  C   UNL     1      48.026   8.184  11.711  0.00  0.00    +0.000 C 
ATOM      3  C   UNL     1      47.181   7.129  12.364  0.00  0.00    +0.000 A 
ATOM      4  C   UNL     1      45.872   6.991  11.862  0.00  0.00    +0.000 A 
ATOM      5  C   UNL     1      44.961   6.029  12.320  0.00  0.00    +0.000 A 
ATOM      6  C   UNL     1      45.380   5.194  13.356  0.00  0.00    +0.000 A 
ATOM      7  C   UNL     1      46.680   5.299  13.887  0.00  0.00    +0.000 A 
ATOM      8  C   UNL     1      47.095   4.370  15.000  0.00  0.00    +0.000 C 
ATOM      9  C   UNL     1      47.593   6.258  13.379  0.00  0.00    +0.000 A 
BRANCH   9  10
ATOM     10  O   UNL     1      48.869   6.121  13.880  0.00  0.00    +0.000 OA
BRANCH  10  11
ATOM     11  C   UNL     1      49.470   7.086  14.763  0.00  0.00    +0.000 C 
ATOM     12  C   UNL     1      49.635   6.595  16.209  0.00  0.00    +0.000 C 
ATOM     13  O   UNL     1      48.846   7.684  16.730  0.00  0.00    +0.000 OA
ATOM     14  C   UNL     1      48.587   8.169  15.392  0.00  0.00    +0.000 C 
ENDBRANCH  10  11
ENDBRANCH   9  10
ENDBRANCH   1   5
BRANCH   1  15
ATOM     15  C   UNL     1      43.591   5.167  10.349  0.00  0.00    +0.000 C 
BRANCH  15  16
ATOM     16  N   UNL     1      43.852   3.725  10.403  0.00  0.00    +0.000 N 
ATOM     17  C   UNL     1      44.782   3.364   9.393  0.00  0.00    +0.000 A 
ATOM     18  C   UNL     1      45.146   2.029   9.260  0.00  0.00    +0.000 A 
ATOM     19  C   UNL     1      46.051   1.654   8.262  0.00  0.00    +0.000 A 
ATOM     20  C   UNL     1      46.576   2.630   7.414  0.00  0.00    +0.000 A 
ATOM     21  C   UNL     1      46.168   3.934   7.612  0.00  0.00    +0.000 A 
ATOM     22  N   UNL     1      45.304   4.314   8.583  0.00  0.00    +0.000 NA
ATOM     23  H   UNL     1      43.007   3.179  10.262  0.00  0.00    +0.000 HD
BRANCH  20  24
ATOM     24  C   UNL     1      47.509   2.350   6.304  0.00  0.00    +0.000 C 
ATOM     25  N   UNL     1      47.477   3.192   5.227  0.00  0.00    +0.000 N 
ATOM     26  O   UNL     1      48.263   1.385   6.326  0.00  0.00    +0.000 OA
ATOM     27  H   UNL     1      46.724   3.843   5.058  0.00  0.00    +0.000 HD
ATOM     28  H   UNL     1      48.054   2.927   4.438  0.00  0.00    +0.000 HD
ENDBRANCH  20  24
ENDBRANCH  15  16
ENDBRANCH   1  15
TORSDOF 6
ENDMDL
MODEL 4
REMARK VINA RESULT:    -7.205      1.912      2.642
REMARK INTER + INTRA:         -10.544
REMARK INTER:                 -10.306
REMARK INTRA:                  -0.239
REMARK UNBOUND:                -0.812
REMARK  Name = 
REMARK  8 active torsions:
REMARK  status: ('A' for Active; 'I' for Inactive)
REMARK    1  A    between atoms: C_1  and  C_2
REMARK    2  A    between atoms: C_4  and  C_5
REMARK    3  A    between atoms: C_5  and  C_6
REMARK    4  A    between atoms: C_6  and  N_7
REMARK    5  A    between atoms: C_11  and  C_12
REMARK    6  A    between atoms: C_18  and  C_19
REMARK    7  A    between atoms: C_20  and  O_21
REMARK    8  A    between atoms: O_21  and  C_22
REMARK                            x       y       z     vdW  Elec       q    Type
REMARK                         _______ _______ _______ _____ _____    ______ ____
ROOT
ATOM      1  C   UNL     1      43.623   4.404  12.581  0.00  0.00    +0.000 C 
ENDROOT
BRANCH   1   5
ATOM      2  C   UNL     1      48.109   6.103  14.067  0.00  0.00    +0.000 C 
ATOM      3  C   UNL     1      46.834   6.440  13.349  0.00  0.00    +0.000 A 
ATOM      4  C   UNL     1      45.898   5.394  13.233  0.00  0.00    +0.000 A 
ATOM      5  C   UNL     1      44.638   5.540  12.636  0.00  0.00    +0.000 A 
ATOM      6  C   UNL     1      44.326   6.790  12.100  0.00  0.00    +0.000 A 
ATOM      7  C   UNL     1      45.234   7.862  12.194  0.00  0.00    +0.000 A 
ATOM      8  C   UNL     1      44.853   9.199  11.609  0.00  0.00    +0.000 C 
ATOM      9  C   UNL     1      46.487   7.695  12.836  0.00  0.00    +0.000 A 
BRANCH   9  10
ATOM     10  O   UNL     1      47.184   8.872  12.997  0.00  0.00    +0.000 OA
BRANCH  10  11
ATOM     11  C   UNL     1      48.408   9.159  12.295  0.00  0.00    +0.000 C 
ATOM     12  C   UNL     1      49.459   9.893  13.142  0.00  0.00    +0.000 C 
ATOM     13  O   UNL     1      49.517  10.998  12.216  0.00  0.00    +0.000 OA
ATOM     14  C   UNL     1      48.479  10.402  11.402  0.00  0.00    +0.000 C 
ENDBRANCH  10  11
ENDBRANCH   9  10
ENDBRANCH   1   5
BRANCH   1  15
ATOM     15  C   UNL     1      43.338   3.923  11.154  0.00  0.00    +0.000 C 
BRANCH  15  16
ATOM     16  N   UNL     1      43.954   4.736  10.100  0.00  0.00    +0.000 N 
ATOM     17  C   UNL     1      44.798   3.926   9.296  0.00  0.00    +0.000 A 
ATOM     18  C   UNL     1      45.498   4.516   8.249  0.00  0.00    +0.000 A 
ATOM     19  C   UNL     1      46.342   3.735   7.454  0.00  0.00    +0.000 A 
ATOM     20  C   UNL     1      46.469   2.372   7.724  0.00  0.00    +0.000 A 
ATOM     21  C   UNL     1      45.738   1.860   8.778  0.00  0.00    +0.000 A 
ATOM     22  N   UNL     1      44.905   2.601   9.547  0.00  0.00    +0.000 NA
ATOM     23  H   UNL     1      44.515   5.492  10.481  0.00  0.00    +0.000 HD
BRANCH  20  24
ATOM     24  C   UNL     1      47.355   1.456   6.978  0.00  0.00    +0.000 C 
ATOM     25  N   UNL     1      48.539   1.963   6.518  0.00  0.00    +0.000 N 
ATOM     26  O   UNL     1      47.035   0.297   6.748  0.00  0.00    +0.000 OA
ATOM     27  H   UNL     1      48.736   2.951   6.473  0.00  0.00    +0.000 HD
ATOM     28  H   UNL     1      49.086   1.347   5.927  0.00  0.00    +0.000 HD
ENDBRANCH  20  24
ENDBRANCH  15  16
ENDBRANCH   1  15
TORSDOF 6
ENDMDL
MODEL 5
REMARK VINA RESULT:    -6.860      2.154      2.886
REMARK INTER + INTRA:         -10.078
REMARK INTER:                  -9.443
REMARK INTRA:                  -0.635
REMARK UNBOUND:                -0.812
REMARK  Name = 
REMARK  8 active torsions:
REMARK  status: ('A' for Active; 'I' for Inactive)
REMARK    1  A    between atoms: C_1  and  C_2
REMARK    2  A    between atoms: C_4  and  C_5
REMARK    3  A    between atoms: C_5  and  C_6
REMARK    4  A    between atoms: C_6  and  N_7
REMARK    5  A    between atoms: C_11  and  C_12
REMARK    6  A    between atoms: C_18  and  C_19
REMARK    7  A    between atoms: C_20  and  O_21
REMARK    8  A    between atoms: O_21  and  C_22
REMARK                            x       y       z     vdW  Elec       q    Type
REMARK                         _______ _______ _______ _____ _____    ______ ____
ROOT
ATOM      1  C   UNL     1      44.189   5.563  12.266  0.00  0.00    +0.000 C 
ENDROOT
BRANCH   1   5
ATOM      2  C   UNL     1      45.315  10.438  11.829  0.00  0.00    +0.000 C 
ATOM      3  C   UNL     1      45.864   9.055  12.031  0.00  0.00    +0.000 A 
ATOM      4  C   UNL     1      44.910   8.021  12.107  0.00  0.00    +0.000 A 
ATOM      5  C   UNL     1      45.242   6.666  12.247  0.00  0.00    +0.000 A 
ATOM      6  C   UNL     1      46.597   6.347  12.351  0.00  0.00    +0.000 A 
ATOM      7  C   UNL     1      47.582   7.351  12.280  0.00  0.00    +0.000 A 
ATOM      8  C   UNL     1      49.035   6.963  12.386  0.00  0.00    +0.000 C 
ATOM      9  C   UNL     1      47.218   8.710  12.101  0.00  0.00    +0.000 A 
BRANCH   9  10
ATOM     10  O   UNL     1      48.292   9.543  11.880  0.00  0.00    +0.000 OA
BRANCH  10  11
ATOM     11  C   UNL     1      48.736  10.519  12.840  0.00  0.00    +0.000 C 
ATOM     12  C   UNL     1      49.230  11.833  12.216  0.00  0.00    +0.000 C 
ATOM     13  O   UNL     1      50.530  11.702  12.828  0.00  0.00    +0.000 OA
ATOM     14  C   UNL     1      50.162  10.422  13.394  0.00  0.00    +0.000 C 
ENDBRANCH  10  11
ENDBRANCH   9  10
ENDBRANCH   1   5
BRANCH   1  15
ATOM     15  C   UNL     1      43.754   5.126  10.863  0.00  0.00    +0.000 C 
BRANCH  15  16
ATOM     16  N   UNL     1      43.767   3.676  10.643  0.00  0.00    +0.000 N 
ATOM     17  C   UNL     1      44.689   3.352   9.613  0.00  0.00    +0.000 A 
ATOM     18  C   UNL     1      44.833   2.022   9.235  0.00  0.00    +0.000 A 
ATOM     19  C   UNL     1      45.728   1.687   8.214  0.00  0.00    +0.000 A 
ATOM     20  C   UNL     1      46.464   2.695   7.590  0.00  0.00    +0.000 A 
ATOM     21  C   UNL     1      46.267   3.991   8.026  0.00  0.00    +0.000 A 
ATOM     22  N   UNL     1      45.415   4.329   9.023  0.00  0.00    +0.000 NA
ATOM     23  H   UNL     1      42.854   3.324  10.370  0.00  0.00    +0.000 HD
BRANCH  20  24
ATOM     24  C   UNL     1      47.411   2.467   6.480  0.00  0.00    +0.000 C 
ATOM     25  N   UNL     1      47.259   3.234   5.357  0.00  0.00    +0.000 N 
ATOM     26  O   UNL     1      48.278   1.605   6.541  0.00  0.00    +0.000 OA
ATOM     27  H   UNL     1      46.430   3.776   5.167  0.00  0.00    +0.000 HD
ATOM     28  H   UNL     1      47.855   2.995   4.573  0.00  0.00    +0.000 HD
ENDBRANCH  20  24
ENDBRANCH  15  16
ENDBRANCH   1  15
TORSDOF 6
ENDMDL
MODEL 6
REMARK VINA RESULT:    -6.556      3.972      6.231
REMARK INTER + INTRA:          -9.668
REMARK INTER:                  -9.108
REMARK INTRA:                  -0.560
REMARK UNBOUND:                -0.812
REMARK  Name = 
REMARK  8 active torsions:
REMARK  status: ('A' for Active; 'I' for Inactive)
REMARK    1  A    between atoms: C_1  and  C_2
REMARK    2  A    between atoms: C_4  and  C_5
REMARK    3  A    between atoms: C_5  and  C_6
REMARK    4  A    between atoms: C_6  and  N_7
REMARK    5  A    between atoms: C_11  and  C_12
REMARK    6  A    between atoms: C_18  and  C_19
REMARK    7  A    between atoms: C_20  and  O_21
REMARK    8  A    between atoms: O_21  and  C_22
REMARK                            x       y       z     vdW  Elec       q    Type
REMARK                         _______ _______ _______ _____ _____    ______ ____
ROOT
ATOM      1  C   UNL     1      47.556   4.043  17.049  0.00  0.00    +0.000 C 
ENDROOT
BRANCH   1   5
ATOM      2  C   UNL     1      51.907   6.383  17.955  0.00  0.00    +0.000 C 
ATOM      3  C   UNL     1      51.233   5.055  17.763  0.00  0.00    +0.000 A 
ATOM      4  C   UNL     1      49.839   5.095  17.563  0.00  0.00    +0.000 A 
ATOM      5  C   UNL     1      49.054   3.959  17.322  0.00  0.00    +0.000 A 
ATOM      6  C   UNL     1      49.702   2.724  17.319  0.00  0.00    +0.000 A 
ATOM      7  C   UNL     1      51.094   2.639  17.515  0.00  0.00    +0.000 A 
ATOM      8  C   UNL     1      51.757   1.284  17.494  0.00  0.00    +0.000 C 
ATOM      9  C   UNL     1      51.869   3.809  17.720  0.00  0.00    +0.000 A 
BRANCH   9  10
ATOM     10  O   UNL     1      53.226   3.576  17.723  0.00  0.00    +0.000 OA
BRANCH  10  11
ATOM     11  C   UNL     1      54.044   3.732  18.898  0.00  0.00    +0.000 C 
ATOM     12  C   UNL     1      54.744   2.442  19.351  0.00  0.00    +0.000 C 
ATOM     13  O   UNL     1      54.129   2.497  20.654  0.00  0.00    +0.000 OA
ATOM     14  C   UNL     1      53.380   3.677  20.278  0.00  0.00    +0.000 C 
ENDBRANCH  10  11
ENDBRANCH   9  10
ENDBRANCH   1   5
BRANCH   1  15
ATOM     15  C   UNL     1      47.199   3.800  15.579  0.00  0.00    +0.000 C 
BRANCH  15  16
ATOM     16  N   UNL     1      46.965   5.018  14.797  0.00  0.00    +0.000 N 
ATOM     17  C   UNL     1      46.275   4.699  13.599  0.00  0.00    +0.000 A 
ATOM     18  C   UNL     1      45.977   5.719  12.702  0.00  0.00    +0.000 A 
ATOM     19  C   UNL     1      45.309   5.420  11.511  0.00  0.00    +0.000 A 
ATOM     20  C   UNL     1      44.950   4.098  11.241  0.00  0.00    +0.000 A 
ATOM     21  C   UNL     1      45.278   3.143  12.183  0.00  0.00    +0.000 A 
ATOM     22  N   UNL     1      45.912   3.420  13.347  0.00  0.00    +0.000 NA
ATOM     23  H   UNL     1      47.833   5.483  14.546  0.00  0.00    +0.000 HD
BRANCH  20  24
ATOM     24  C   UNL     1      44.275   3.657  10.003  0.00  0.00    +0.000 C 
ATOM     25  N   UNL     1      43.919   4.623   9.103  0.00  0.00    +0.000 N 
ATOM     26  O   UNL     1      44.011   2.478   9.800  0.00  0.00    +0.000 OA
ATOM     27  H   UNL     1      43.897   5.606   9.328  0.00  0.00    +0.000 HD
ATOM     28  H   UNL     1      43.373   4.310   8.309  0.00  0.00    +0.000 HD
ENDBRANCH  20  24
ENDBRANCH  15  16
ENDBRANCH   1  15
TORSDOF 6
ENDMDL
MODEL 7
REMARK VINA RESULT:    -6.159      4.302      8.561
REMARK INTER + INTRA:          -9.131
REMARK INTER:                  -8.247
REMARK INTRA:                  -0.884
REMARK UNBOUND:                -0.812
REMARK  Name = 
REMARK  8 active torsions:
REMARK  status: ('A' for Active; 'I' for Inactive)
REMARK    1  A    between atoms: C_1  and  C_2
REMARK    2  A    between atoms: C_4  and  C_5
REMARK    3  A    between atoms: C_5  and  C_6
REMARK    4  A    between atoms: C_6  and  N_7
REMARK    5  A    between atoms: C_11  and  C_12
REMARK    6  A    between atoms: C_18  and  C_19
REMARK    7  A    between atoms: C_20  and  O_21
REMARK    8  A    between atoms: O_21  and  C_22
REMARK                            x       y       z     vdW  Elec       q    Type
REMARK                         _______ _______ _______ _____ _____    ______ ____
ROOT
ATOM      1  C   UNL     1      49.326   7.886  12.904  0.00  0.00    +0.000 C 
ENDROOT
BRANCH   1   5
ATOM      2  C   UNL     1      44.547   8.259  11.407  0.00  0.00    +0.000 C 
ATOM      3  C   UNL     1      45.593   7.354  11.992  0.00  0.00    +0.000 A 
ATOM      4  C   UNL     1      46.878   7.913  12.137  0.00  0.00    +0.000 A 
ATOM      5  C   UNL     1      47.963   7.232  12.706  0.00  0.00    +0.000 A 
ATOM      6  C   UNL     1      47.749   5.914  13.111  0.00  0.00    +0.000 A 
ATOM      7  C   UNL     1      46.480   5.318  12.983  0.00  0.00    +0.000 A 
ATOM      8  C   UNL     1      46.288   3.894  13.444  0.00  0.00    +0.000 C 
ATOM      9  C   UNL     1      45.391   6.044  12.438  0.00  0.00    +0.000 A 
BRANCH   9  10
ATOM     10  O   UNL     1      44.185   5.385  12.539  0.00  0.00    +0.000 OA
BRANCH  10  11
ATOM     11  C   UNL     1      43.472   4.881  11.395  0.00  0.00    +0.000 C 
ATOM     12  C   UNL     1      43.156   3.379  11.463  0.00  0.00    +0.000 C 
ATOM     13  O   UNL     1      43.861   3.116  10.233  0.00  0.00    +0.000 OA
ATOM     14  C   UNL     1      44.258   4.504  10.135  0.00  0.00    +0.000 C 
ENDBRANCH  10  11
ENDBRANCH   9  10
ENDBRANCH   1   5
BRANCH   1  15
ATOM     15  C   UNL     1      49.979   7.519  14.242  0.00  0.00    +0.000 C 
BRANCH  15  16
ATOM     16  N   UNL     1      49.368   8.153  15.414  0.00  0.00    +0.000 N 
ATOM     17  C   UNL     1      49.199   7.197  16.449  0.00  0.00    +0.000 A 
ATOM     18  C   UNL     1      48.611   7.595  17.644  0.00  0.00    +0.000 A 
ATOM     19  C   UNL     1      48.426   6.662  18.669  0.00  0.00    +0.000 A 
ATOM     20  C   UNL     1      48.838   5.343  18.476  0.00  0.00    +0.000 A 
ATOM     21  C   UNL     1      49.418   5.027  17.263  0.00  0.00    +0.000 A 
ATOM     22  N   UNL     1      49.616   5.922  16.267  0.00  0.00    +0.000 NA
ATOM     23  H   UNL     1      48.457   8.550  15.201  0.00  0.00    +0.000 HD
BRANCH  20  24
ATOM     24  C   UNL     1      48.663   4.264  19.470  0.00  0.00    +0.000 C 
ATOM     25  N   UNL     1      48.300   3.031  19.003  0.00  0.00    +0.000 N 
ATOM     26  O   UNL     1      48.805   4.467  20.670  0.00  0.00    +0.000 OA
ATOM     27  H   UNL     1      47.944   2.877  18.071  0.00  0.00    +0.000 HD
ATOM     28  H   UNL     1      48.092   2.333  19.707  0.00  0.00    +0.000 HD
ENDBRANCH  20  24
ENDBRANCH  15  16
ENDBRANCH   1  15
TORSDOF 6
ENDMDL
MODEL 8
REMARK VINA RESULT:    -5.864      4.350      7.204
REMARK INTER + INTRA:          -8.733
REMARK INTER:                  -7.919
REMARK INTRA:                  -0.814
REMARK UNBOUND:                -0.812
REMARK  Name = 
REMARK  8 active torsions:
REMARK  status: ('A' for Active; 'I' for Inactive)
REMARK    1  A    between atoms: C_1  and  C_2
REMARK    2  A    between atoms: C_4  and  C_5
REMARK    3  A    between atoms: C_5  and  C_6
REMARK    4  A    between atoms: C_6  and  N_7
REMARK    5  A    between atoms: C_11  and  C_12
REMARK    6  A    between atoms: C_18  and  C_19
REMARK    7  A    between atoms: C_20  and  O_21
REMARK    8  A    between atoms: O_21  and  C_22
REMARK                            x       y       z     vdW  Elec       q    Type
REMARK                         _______ _______ _______ _____ _____    ______ ____
ROOT
ATOM      1  C   UNL     1      48.639   8.783  12.618  0.00  0.00    +0.000 C 
ENDROOT
BRANCH   1   5
ATOM      2  C   UNL     1      46.919   4.658  14.909  0.00  0.00    +0.000 C 
ATOM      3  C   UNL     1      46.891   5.477  13.651  0.00  0.00    +0.000 A 
ATOM      4  C   UNL     1      47.642   6.668  13.676  0.00  0.00    +0.000 A 
ATOM      5  C   UNL     1      47.769   7.532  12.579  0.00  0.00    +0.000 A 
ATOM      6  C   UNL     1      47.074   7.195  11.417  0.00  0.00    +0.000 A 
ATOM      7  C   UNL     1      46.311   6.013  11.350  0.00  0.00    +0.000 A 
ATOM      8  C   UNL     1      45.583   5.681  10.071  0.00  0.00    +0.000 C 
ATOM      9  C   UNL     1      46.231   5.139  12.464  0.00  0.00    +0.000 A 
BRANCH   9  10
ATOM     10  O   UNL     1      45.593   3.951  12.186  0.00  0.00    +0.000 OA
BRANCH  10  11
ATOM     11  C   UNL     1      44.221   3.698  12.544  0.00  0.00    +0.000 C 
ATOM     12  C   UNL     1      43.267   3.604  11.344  0.00  0.00    +0.000 C 
ATOM     13  O   UNL     1      42.442   4.677  11.842  0.00  0.00    +0.000 OA
ATOM     14  C   UNL     1      43.333   4.874  12.965  0.00  0.00    +0.000 C 
ENDBRANCH  10  11
ENDBRANCH   9  10
ENDBRANCH   1   5
BRANCH   1  15
ATOM     15  C   UNL     1      47.845  10.057  12.924  0.00  0.00    +0.000 C 
BRANCH  15  16
ATOM     16  N   UNL     1      47.581  10.908  11.760  0.00  0.00    +0.000 N 
ATOM     17  C   UNL     1      46.205  10.843  11.415  0.00  0.00    +0.000 A 
ATOM     18  C   UNL     1      45.753  11.564  10.316  0.00  0.00    +0.000 A 
ATOM     19  C   UNL     1      44.403  11.502   9.956  0.00  0.00    +0.000 A 
ATOM     20  C   UNL     1      43.530  10.715  10.708  0.00  0.00    +0.000 A 
ATOM     21  C   UNL     1      44.055  10.032  11.787  0.00  0.00    +0.000 A 
ATOM     22  N   UNL     1      45.357  10.094  12.156  0.00  0.00    +0.000 NA
ATOM     23  H   UNL     1      48.122  10.622  10.948  0.00  0.00    +0.000 HD
BRANCH  20  24
ATOM     24  C   UNL     1      42.095  10.544  10.403  0.00  0.00    +0.000 C 
ATOM     25  N   UNL     1      41.431   9.535  11.046  0.00  0.00    +0.000 N 
ATOM     26  O   UNL     1      41.522  11.252   9.584  0.00  0.00    +0.000 OA
ATOM     27  H   UNL     1      41.903   8.789  11.536  0.00  0.00    +0.000 HD
ATOM     28  H   UNL     1      40.475   9.373  10.751  0.00  0.00    +0.000 HD
ENDBRANCH  20  24
ENDBRANCH  15  16
ENDBRANCH   1  15
TORSDOF 6
ENDMDL
MODEL 9
REMARK VINA RESULT:    -5.591      3.472      5.577
REMARK INTER + INTRA:          -8.365
REMARK INTER:                  -7.732
REMARK INTRA:                  -0.633
REMARK UNBOUND:                -0.812
REMARK  Name = 
REMARK  8 active torsions:
REMARK  status: ('A' for Active; 'I' for Inactive)
REMARK    1  A    between atoms: C_1  and  C_2
REMARK    2  A    between atoms: C_4  and  C_5
REMARK    3  A    between atoms: C_5  and  C_6
REMARK    4  A    between atoms: C_6  and  N_7
REMARK    5  A    between atoms: C_11  and  C_12
REMARK    6  A    between atoms: C_18  and  C_19
REMARK    7  A    between atoms: C_20  and  O_21
REMARK    8  A    between atoms: O_21  and  C_22
REMARK                            x       y       z     vdW  Elec       q    Type
REMARK                         _______ _______ _______ _____ _____    ______ ____
ROOT
ATOM      1  C   UNL     1      49.288   7.737  13.971  0.00  0.00    +0.000 C 
ENDROOT
BRANCH   1   5
ATOM      2  C   UNL     1      47.406   4.395  17.213  0.00  0.00    +0.000 C 
ATOM      3  C   UNL     1      48.614   5.198  16.826  0.00  0.00    +0.000 A 
ATOM      4  C   UNL     1      48.480   5.994  15.672  0.00  0.00    +0.000 A 
ATOM      5  C   UNL     1      49.486   6.842  15.190  0.00  0.00    +0.000 A 
ATOM      6  C   UNL     1      50.696   6.858  15.885  0.00  0.00    +0.000 A 
ATOM      7  C   UNL     1      50.872   6.077  17.044  0.00  0.00    +0.000 A 
ATOM      8  C   UNL     1      52.192   6.131  17.771  0.00  0.00    +0.000 C 
ATOM      9  C   UNL     1      49.823   5.256  17.529  0.00  0.00    +0.000 A 
BRANCH   9  10
ATOM     10  O   UNL     1      50.089   4.692  18.757  0.00  0.00    +0.000 OA
BRANCH  10  11
ATOM     11  C   UNL     1      49.753   5.334  20.002  0.00  0.00    +0.000 C 
ATOM     12  C   UNL     1      48.635   4.633  20.787  0.00  0.00    +0.000 C 
ATOM     13  O   UNL     1      47.813   5.819  20.788  0.00  0.00    +0.000 OA
ATOM     14  C   UNL     1      48.789   6.526  19.988  0.00  0.00    +0.000 C 
ENDBRANCH  10  11
ENDBRANCH   9  10
ENDBRANCH   1   5
BRANCH   1  15
ATOM     15  C   UNL     1      47.813   7.941  13.610  0.00  0.00    +0.000 C 
BRANCH  15  16
ATOM     16  N   UNL     1      47.493   7.720  12.197  0.00  0.00    +0.000 N 
ATOM     17  C   UNL     1      46.557   6.660  12.073  0.00  0.00    +0.000 A 
ATOM     18  C   UNL     1      46.140   6.276  10.803  0.00  0.00    +0.000 A 
ATOM     19  C   UNL     1      45.228   5.225  10.662  0.00  0.00    +0.000 A 
ATOM     20  C   UNL     1      44.749   4.578  11.802  0.00  0.00    +0.000 A 
ATOM     21  C   UNL     1      45.208   5.020  13.027  0.00  0.00    +0.000 A 
ATOM     22  N   UNL     1      46.080   6.045  13.179  0.00  0.00    +0.000 NA
ATOM     23  H   UNL     1      48.316   7.477  11.653  0.00  0.00    +0.000 HD
BRANCH  20  24
ATOM     24  C   UNL     1      43.813   3.435  11.777  0.00  0.00    +0.000 C 
ATOM     25  N   UNL     1      44.034   2.421  12.668  0.00  0.00    +0.000 N 
ATOM     26  O   UNL     1      42.893   3.376  10.970  0.00  0.00    +0.000 OA
ATOM     27  H   UNL     1      44.899   2.312  13.176  0.00  0.00    +0.000 HD
ATOM     28  H   UNL     1      43.441   1.606  12.569  0.00  0.00    +0.000 HD
ENDBRANCH  20  24
ENDBRANCH  15  16
ENDBRANCH   1  15
TORSDOF 6
ENDMDL
