MODEL 1
REMARK VINA RESULT:    -8.284      0.000      0.000
REMARK INTER + INTRA:         -12.504
REMARK INTER:                 -11.674
REMARK INTRA:                  -0.830
REMARK UNBOUND:                -0.830
REMARK  Name = 
REMARK  8 active torsions:
REMARK  status: ('A' for Active; 'I' for Inactive)
REMARK    1  A    between atoms: C_1  and  N_2
REMARK    2  A    between atoms: N_2  and  C_3
REMARK    3  A    between atoms: N_2  and  C_10
REMARK    4  A    between atoms: C_3  and  C_4
REMARK    5  A    between atoms: C_10  and  C_11
REMARK    6  A    between atoms: C_14  and  C_15
REMARK    7  A    between atoms: C_15  and  N_16
REMARK    8  A    between atoms: C_17  and  C_19
REMARK                            x       y       z     vdW  Elec       q    Type
REMARK                         _______ _______ _______ _____ _____    ______ ____
ROOT
ATOM      1  C   UNL     1      45.668   5.499  11.765  0.00  0.00    +0.000 A 
ATOM      2  C   UNL     1      46.492   6.525  11.298  0.00  0.00    +0.000 A 
ATOM      3  C   UNL     1      47.557   6.968  12.079  0.00  0.00    +0.000 A 
ATOM      4  C   UNL     1      47.760   6.388  13.330  0.00  0.00    +0.000 A 
ATOM      5  N   UNL     1      46.995   5.366  13.791  0.00  0.00    +0.000 NA
ATOM      6  C   UNL     1      45.980   4.947  13.003  0.00  0.00    +0.000 A 
ENDROOT
BRANCH   1   7
ATOM      7  C   UNL     1      44.476   5.011  10.982  0.00  0.00    +0.000 C 
BRANCH   7   9
ATOM      8  C   UNL     1      43.566   2.780  11.205  0.00  0.00    +0.000 C 
ATOM      9  N   UNL     1      44.576   3.607  10.531  0.00  0.00    +0.000 NA
BRANCH   9  10
ATOM     10  C   UNL     1      44.405   3.566   9.062  0.00  0.00    +0.000 C 
BRANCH  10  11
ATOM     11  C   UNL     1      45.545   2.910   8.316  0.00  0.00    +0.000 A 
ATOM     12  C   UNL     1      45.774   1.534   8.428  0.00  0.00    +0.000 A 
ATOM     13  C   UNL     1      46.834   0.974   7.731  0.00  0.00    +0.000 A 
ATOM     14  N   UNL     1      47.666   1.679   6.936  0.00  0.00    +0.000 NA
ATOM     15  C   UNL     1      47.429   3.005   6.839  0.00  0.00    +0.000 A 
ATOM     16  C   UNL     1      46.397   3.658   7.497  0.00  0.00    +0.000 A 
ENDBRANCH  10  11
ENDBRANCH   9  10
ENDBRANCH   7   9
ENDBRANCH   1   7
BRANCH   4  17
ATOM     17  C   UNL     1      48.841   6.903  14.245  0.00  0.00    +0.000 C 
BRANCH  17  18
ATOM     18  N   UNL     1      48.432   6.947  15.629  0.00  0.00    +0.000 N 
ATOM     19  C   UNL     1      49.181   6.395  16.630  0.00  0.00    +0.000 C 
ATOM     20  O   UNL     1      50.226   5.789  16.409  0.00  0.00    +0.000 OA
ATOM     21  H   UNL     1      47.471   7.229  15.800  0.00  0.00    +0.000 HD
BRANCH  19  22
ATOM     22  C   UNL     1      48.717   6.642  17.999  0.00  0.00    +0.000 A 
ATOM     23  C   UNL     1      48.349   7.927  18.381  0.00  0.00    +0.000 A 
ATOM     24  S   UNL     1      47.782   8.024  19.991  0.00  0.00    +0.000 S 
ATOM     25  C   UNL     1      48.058   6.365  20.239  0.00  0.00    +0.000 A 
ATOM     26  N   UNL     1      47.815   5.770  21.434  0.00  0.00    +0.000 NA
ATOM     27  N   UNL     1      48.072   4.548  21.577  0.00  0.00    +0.000 NA
ATOM     28  N   UNL     1      48.567   3.842  20.517  0.00  0.00    +0.000 N 
ATOM     29  C   UNL     1      48.804   4.331  19.256  0.00  0.00    +0.000 A 
ATOM     30  O   UNL     1      49.189   3.614  18.343  0.00  0.00    +0.000 OA
ATOM     31  C   UNL     1      48.544   5.745  19.112  0.00  0.00    +0.000 A 
ATOM     32  H   UNL     1      48.741   2.858  20.684  0.00  0.00    +0.000 HD
ENDBRANCH  19  22
ENDBRANCH  17  18
ENDBRANCH   4  17
TORSDOF 7
ENDMDL
MODEL 2
REMARK VINA RESULT:    -8.083      1.725      2.205
REMARK INTER + INTRA:         -12.222
REMARK INTER:                 -11.324
REMARK INTRA:                  -0.897
REMARK UNBOUND:                -0.830
REMARK  Name = 
REMARK  8 active torsions:
REMARK  status: ('A' for Active; 'I' for Inactive)
REMARK    1  A    between atoms: C_1  and  N_2
REMARK    2  A    between atoms: N_2  and  C_3
REMARK    3  A    between atoms: N_2  and  C_10
REMARK    4  A    between atoms: C_3  and  C_4
REMARK    5  A    between atoms: C_10  and  C_11
REMARK    6  A    between atoms: C_14  and  C_15
REMARK    7  A    between atoms: C_15  and  N_16
REMARK    8  A    between atoms: C_17  and  C_19
REMARK                            x       y       z     vdW  Elec       q    Type
REMARK                         _______ _______ _______ _____ _____    ______ ____
ROOT
ATOM      1  C   UNL     1      44.974   6.066  11.198  0.00  0.00    +0.000 A 
ATOM      2  C   UNL     1      44.671   7.411  11.419  0.00  0.00    +0.000 A 
ATOM      3  C   UNL     1      45.511   8.187  12.214  0.00  0.00    +0.000 A 
ATOM      4  C   UNL     1      46.628   7.590  12.794  0.00  0.00    +0.000 A 
ATOM      5  N   UNL     1      46.963   6.295  12.565  0.00  0.00    +0.000 NA
ATOM      6  C   UNL     1      46.137   5.572  11.777  0.00  0.00    +0.000 A 
ENDROOT
BRANCH   1   7
ATOM      7  C   UNL     1      44.077   5.167  10.383  0.00  0.00    +0.000 C 
BRANCH   7   9
ATOM      8  C   UNL     1      43.983   2.765  10.652  0.00  0.00    +0.000 C 
ATOM      9  N   UNL     1      44.690   3.877  10.003  0.00  0.00    +0.000 NA
BRANCH   9  10
ATOM     10  C   UNL     1      44.650   3.748   8.530  0.00  0.00    +0.000 C 
BRANCH  10  11
ATOM     11  C   UNL     1      45.783   2.937   7.941  0.00  0.00    +0.000 A 
ATOM     12  C   UNL     1      46.713   3.529   7.080  0.00  0.00    +0.000 A 
ATOM     13  C   UNL     1      47.732   2.746   6.558  0.00  0.00    +0.000 A 
ATOM     14  N   UNL     1      47.892   1.436   6.837  0.00  0.00    +0.000 NA
ATOM     15  C   UNL     1      46.985   0.882   7.672  0.00  0.00    +0.000 A 
ATOM     16  C   UNL     1      45.931   1.579   8.243  0.00  0.00    +0.000 A 
ENDBRANCH  10  11
ENDBRANCH   9  10
ENDBRANCH   7   9
ENDBRANCH   1   7
BRANCH   4  17
ATOM     17  C   UNL     1      47.509   8.370  13.737  0.00  0.00    +0.000 C 
BRANCH  17  18
ATOM     18  N   UNL     1      47.905   7.608  14.897  0.00  0.00    +0.000 N 
ATOM     19  C   UNL     1      49.197   7.212  15.105  0.00  0.00    +0.000 C 
ATOM     20  O   UNL     1      50.092   7.442  14.296  0.00  0.00    +0.000 OA
ATOM     21  H   UNL     1      47.149   7.210  15.447  0.00  0.00    +0.000 HD
BRANCH  19  22
ATOM     22  C   UNL     1      49.479   6.572  16.393  0.00  0.00    +0.000 A 
ATOM     23  C   UNL     1      50.371   7.166  17.279  0.00  0.00    +0.000 A 
ATOM     24  S   UNL     1      50.540   6.316  18.751  0.00  0.00    +0.000 S 
ATOM     25  C   UNL     1      49.467   5.105  18.231  0.00  0.00    +0.000 A 
ATOM     26  N   UNL     1      49.173   4.028  19.003  0.00  0.00    +0.000 NA
ATOM     27  N   UNL     1      48.404   3.141  18.556  0.00  0.00    +0.000 NA
ATOM     28  N   UNL     1      47.860   3.294  17.311  0.00  0.00    +0.000 N 
ATOM     29  C   UNL     1      48.051   4.362  16.469  0.00  0.00    +0.000 A 
ATOM     30  O   UNL     1      47.475   4.451  15.394  0.00  0.00    +0.000 OA
ATOM     31  C   UNL     1      48.968   5.357  16.974  0.00  0.00    +0.000 A 
ATOM     32  H   UNL     1      47.236   2.556  17.008  0.00  0.00    +0.000 HD
ENDBRANCH  19  22
ENDBRANCH  17  18
ENDBRANCH   4  17
TORSDOF 7
ENDMDL
MODEL 3
REMARK VINA RESULT:    -7.677      1.771      2.364
REMARK INTER + INTRA:         -11.649
REMARK INTER:                 -10.727
REMARK INTRA:                  -0.923
REMARK UNBOUND:                -0.830
REMARK  Name = 
REMARK  8 active torsions:
REMARK  status: ('A' for Active; 'I' for Inactive)
REMARK    1  A    between atoms: C_1  and  N_2
REMARK    2  A    between atoms: N_2  and  C_3
REMARK    3  A    between atoms: N_2  and  C_10
REMARK    4  A    between atoms: C_3  and  C_4
REMARK    5  A    between atoms: C_10  and  C_11
REMARK    6  A    between atoms: C_14  and  C_15
REMARK    7  A    between atoms: C_15  and  N_16
REMARK    8  A    between atoms: C_17  and  C_19
REMARK                            x       y       z     vdW  Elec       q    Type
REMARK                         _______ _______ _______ _____ _____    ______ ____
ROOT
ATOM      1  C   UNL     1      46.105   5.018  12.001  0.00  0.00    +0.000 A 
ATOM      2  C   UNL     1      46.694   6.038  12.751  0.00  0.00    +0.000 A 
ATOM      3  C   UNL     1      47.143   5.775  14.043  0.00  0.00    +0.000 A 
ATOM      4  C   UNL     1      46.967   4.497  14.569  0.00  0.00    +0.000 A 
ATOM      5  N   UNL     1      46.430   3.480  13.848  0.00  0.00    +0.000 NA
ATOM      6  C   UNL     1      46.019   3.762  12.592  0.00  0.00    +0.000 A 
ENDROOT
BRANCH   1   7
ATOM      7  C   UNL     1      45.561   5.256  10.615  0.00  0.00    +0.000 C 
BRANCH   7   9
ATOM      8  C   UNL     1      43.366   4.247  10.499  0.00  0.00    +0.000 C 
ATOM      9  N   UNL     1      44.766   4.135  10.071  0.00  0.00    +0.000 NA
BRANCH   9  10
ATOM     10  C   UNL     1      44.876   4.146   8.596  0.00  0.00    +0.000 C 
BRANCH  10  11
ATOM     11  C   UNL     1      45.872   3.156   8.034  0.00  0.00    +0.000 A 
ATOM     12  C   UNL     1      46.887   3.577   7.168  0.00  0.00    +0.000 A 
ATOM     13  C   UNL     1      47.775   2.635   6.671  0.00  0.00    +0.000 A 
ATOM     14  N   UNL     1      47.727   1.322   6.979  0.00  0.00    +0.000 NA
ATOM     15  C   UNL     1      46.741   0.934   7.817  0.00  0.00    +0.000 A 
ATOM     16  C   UNL     1      45.805   1.799   8.365  0.00  0.00    +0.000 A 
ENDBRANCH  10  11
ENDBRANCH   9  10
ENDBRANCH   7   9
ENDBRANCH   1   7
BRANCH   4  17
ATOM     17  C   UNL     1      47.352   4.197  15.996  0.00  0.00    +0.000 C 
BRANCH  17  18
ATOM     18  N   UNL     1      47.671   5.384  16.753  0.00  0.00    +0.000 N 
ATOM     19  C   UNL     1      48.957   5.728  17.064  0.00  0.00    +0.000 C 
ATOM     20  O   UNL     1      49.917   5.025  16.756  0.00  0.00    +0.000 OA
ATOM     21  H   UNL     1      46.890   5.842  17.213  0.00  0.00    +0.000 HD
BRANCH  19  22
ATOM     22  C   UNL     1      49.142   7.031  17.709  0.00  0.00    +0.000 A 
ATOM     23  C   UNL     1      49.965   7.984  17.118  0.00  0.00    +0.000 A 
ATOM     24  S   UNL     1      50.022   9.462  17.974  0.00  0.00    +0.000 S 
ATOM     25  C   UNL     1      48.992   8.857  19.183  0.00  0.00    +0.000 A 
ATOM     26  N   UNL     1      48.641   9.600  20.263  0.00  0.00    +0.000 NA
ATOM     27  N   UNL     1      47.907   9.093  21.148  0.00  0.00    +0.000 NA
ATOM     28  N   UNL     1      47.458   7.812  20.990  0.00  0.00    +0.000 N 
ATOM     29  C   UNL     1      47.712   6.990  19.918  0.00  0.00    +0.000 A 
ATOM     30  O   UNL     1      47.218   5.875  19.824  0.00  0.00    +0.000 OA
ATOM     31  C   UNL     1      48.588   7.567  18.926  0.00  0.00    +0.000 A 
ATOM     32  H   UNL     1      46.859   7.460  21.726  0.00  0.00    +0.000 HD
ENDBRANCH  19  22
ENDBRANCH  17  18
ENDBRANCH   4  17
TORSDOF 7
ENDMDL
MODEL 4
REMARK VINA RESULT:    -7.562      3.636      8.506
REMARK INTER + INTRA:         -11.487
REMARK INTER:                 -10.445
REMARK INTRA:                  -1.042
REMARK UNBOUND:                -0.830
REMARK  Name = 
REMARK  8 active torsions:
REMARK  status: ('A' for Active; 'I' for Inactive)
REMARK    1  A    between atoms: C_1  and  N_2
REMARK    2  A    between atoms: N_2  and  C_3
REMARK    3  A    between atoms: N_2  and  C_10
REMARK    4  A    between atoms: C_3  and  C_4
REMARK    5  A    between atoms: C_10  and  C_11
REMARK    6  A    between atoms: C_14  and  C_15
REMARK    7  A    between atoms: C_15  and  N_16
REMARK    8  A    between atoms: C_17  and  C_19
REMARK                            x       y       z     vdW  Elec       q    Type
REMARK                         _______ _______ _______ _____ _____    ______ ____
ROOT
ATOM      1  C   UNL     1      48.952   7.575  16.646  0.00  0.00    +0.000 A 
ATOM      2  C   UNL     1      48.321   8.708  16.128  0.00  0.00    +0.000 A 
ATOM      3  C   UNL     1      48.102   8.812  14.756  0.00  0.00    +0.000 A 
ATOM      4  C   UNL     1      48.547   7.785  13.925  0.00  0.00    +0.000 A 
ATOM      5  N   UNL     1      49.131   6.659  14.407  0.00  0.00    +0.000 NA
ATOM      6  C   UNL     1      49.314   6.580  15.744  0.00  0.00    +0.000 A 
ENDROOT
BRANCH   1   7
ATOM      7  C   UNL     1      49.255   7.429  18.116  0.00  0.00    +0.000 C 
BRANCH   7   9
ATOM      8  C   UNL     1      50.966   6.532  19.572  0.00  0.00    +0.000 C 
ATOM      9  N   UNL     1      50.056   6.235  18.457  0.00  0.00    +0.000 NA
BRANCH   9  10
ATOM     10  C   UNL     1      49.137   5.127  18.799  0.00  0.00    +0.000 C 
BRANCH  10  11
ATOM     11  C   UNL     1      49.263   3.911  17.909  0.00  0.00    +0.000 A 
ATOM     12  C   UNL     1      50.480   3.232  17.795  0.00  0.00    +0.000 A 
ATOM     13  C   UNL     1      50.552   2.125  16.963  0.00  0.00    +0.000 A 
ATOM     14  N   UNL     1      49.508   1.650  16.252  0.00  0.00    +0.000 NA
ATOM     15  C   UNL     1      48.340   2.318  16.375  0.00  0.00    +0.000 A 
ATOM     16  C   UNL     1      48.168   3.435  17.180  0.00  0.00    +0.000 A 
ENDBRANCH  10  11
ENDBRANCH   9  10
ENDBRANCH   7   9
ENDBRANCH   1   7
BRANCH   4  17
ATOM     17  C   UNL     1      48.415   7.903  12.428  0.00  0.00    +0.000 C 
BRANCH  17  18
ATOM     18  N   UNL     1      47.658   6.822  11.843  0.00  0.00    +0.000 N 
ATOM     19  C   UNL     1      46.291   6.799  11.852  0.00  0.00    +0.000 C 
ATOM     20  O   UNL     1      45.624   7.675  12.397  0.00  0.00    +0.000 OA
ATOM     21  H   UNL     1      48.186   5.988  11.604  0.00  0.00    +0.000 HD
BRANCH  19  22
ATOM     22  C   UNL     1      45.656   5.716  11.096  0.00  0.00    +0.000 A 
ATOM     23  C   UNL     1      45.817   5.650   9.716  0.00  0.00    +0.000 A 
ATOM     24  S   UNL     1      45.057   4.296   9.004  0.00  0.00    +0.000 S 
ATOM     25  C   UNL     1      44.449   3.786  10.507  0.00  0.00    +0.000 A 
ATOM     26  N   UNL     1      43.666   2.684  10.626  0.00  0.00    +0.000 NA
ATOM     27  N   UNL     1      43.210   2.371  11.755  0.00  0.00    +0.000 NA
ATOM     28  N   UNL     1      43.535   3.135  12.841  0.00  0.00    +0.000 N 
ATOM     29  C   UNL     1      44.354   4.237  12.841  0.00  0.00    +0.000 A 
ATOM     30  O   UNL     1      44.646   4.829  13.872  0.00  0.00    +0.000 OA
ATOM     31  C   UNL     1      44.841   4.612  11.534  0.00  0.00    +0.000 A 
ATOM     32  H   UNL     1      43.153   2.828  13.727  0.00  0.00    +0.000 HD
ENDBRANCH  19  22
ENDBRANCH  17  18
ENDBRANCH   4  17
TORSDOF 7
ENDMDL
MODEL 5
REMARK VINA RESULT:    -7.535      3.422      5.051
REMARK INTER + INTRA:         -11.449
REMARK INTER:                 -10.361
REMARK INTRA:                  -1.088
REMARK UNBOUND:                -0.830
REMARK  Name = 
REMARK  8 active torsions:
REMARK  status: ('A' for Active; 'I' for Inactive)
REMARK    1  A    between atoms: C_1  and  N_2
REMARK    2  A    between atoms: N_2  and  C_3
REMARK    3  A    between atoms: N_2  and  C_10
REMARK    4  A    between atoms: C_3  and  C_4
REMARK    5  A    between atoms: C_10  and  C_11
REMARK    6  A    between atoms: C_14  and  C_15
REMARK    7  A    between atoms: C_15  and  N_16
REMARK    8  A    between atoms: C_17  and  C_19
REMARK                            x       y       z     vdW  Elec       q    Type
REMARK                         _______ _______ _______ _____ _____    ______ ____
ROOT
ATOM      1  C   UNL     1      47.399   5.907  13.961  0.00  0.00    +0.000 A 
ATOM      2  C   UNL     1      48.166   6.302  15.060  0.00  0.00    +0.000 A 
ATOM      3  C   UNL     1      48.317   5.440  16.144  0.00  0.00    +0.000 A 
ATOM      4  C   UNL     1      47.671   4.206  16.116  0.00  0.00    +0.000 A 
ATOM      5  N   UNL     1      46.950   3.785  15.046  0.00  0.00    +0.000 NA
ATOM      6  C   UNL     1      46.836   4.636  14.003  0.00  0.00    +0.000 A 
ENDROOT
BRANCH   1   7
ATOM      7  C   UNL     1      47.165   6.815  12.780  0.00  0.00    +0.000 C 
BRANCH   7   9
ATOM      8  C   UNL     1      45.533   8.600  12.738  0.00  0.00    +0.000 C 
ATOM      9  N   UNL     1      45.747   7.160  12.548  0.00  0.00    +0.000 NA
BRANCH   9  10
ATOM     10  C   UNL     1      45.375   6.740  11.179  0.00  0.00    +0.000 C 
BRANCH  10  11
ATOM     11  C   UNL     1      44.720   5.379  11.097  0.00  0.00    +0.000 A 
ATOM     12  C   UNL     1      45.068   4.479  10.084  0.00  0.00    +0.000 A 
ATOM     13  C   UNL     1      44.439   3.244  10.042  0.00  0.00    +0.000 A 
ATOM     14  N   UNL     1      43.507   2.845  10.932  0.00  0.00    +0.000 NA
ATOM     15  C   UNL     1      43.184   3.727  11.904  0.00  0.00    +0.000 A 
ATOM     16  C   UNL     1      43.755   4.985  12.029  0.00  0.00    +0.000 A 
ENDBRANCH  10  11
ENDBRANCH   9  10
ENDBRANCH   7   9
ENDBRANCH   1   7
BRANCH   4  17
ATOM     17  C   UNL     1      47.730   3.285  17.309  0.00  0.00    +0.000 C 
BRANCH  17  18
ATOM     18  N   UNL     1      49.079   3.017  17.745  0.00  0.00    +0.000 N 
ATOM     19  C   UNL     1      49.939   2.237  17.024  0.00  0.00    +0.000 C 
ATOM     20  O   UNL     1      49.603   1.679  15.983  0.00  0.00    +0.000 OA
ATOM     21  H   UNL     1      49.294   3.269  18.706  0.00  0.00    +0.000 HD
BRANCH  19  22
ATOM     22  C   UNL     1      51.320   2.170  17.514  0.00  0.00    +0.000 A 
ATOM     23  C   UNL     1      51.991   0.952  17.524  0.00  0.00    +0.000 A 
ATOM     24  S   UNL     1      53.605   1.067  18.073  0.00  0.00    +0.000 S 
ATOM     25  C   UNL     1      53.440   2.734  18.360  0.00  0.00    +0.000 A 
ATOM     26  N   UNL     1      54.453   3.476  18.874  0.00  0.00    +0.000 NA
ATOM     27  N   UNL     1      54.267   4.698  19.104  0.00  0.00    +0.000 NA
ATOM     28  N   UNL     1      53.056   5.256  18.805  0.00  0.00    +0.000 N 
ATOM     29  C   UNL     1      51.983   4.612  18.240  0.00  0.00    +0.000 A 
ATOM     30  O   UNL     1      50.953   5.202  17.945  0.00  0.00    +0.000 OA
ATOM     31  C   UNL     1      52.192   3.200  18.017  0.00  0.00    +0.000 A 
ATOM     32  H   UNL     1      52.968   6.247  18.996  0.00  0.00    +0.000 HD
ENDBRANCH  19  22
ENDBRANCH  17  18
ENDBRANCH   4  17
TORSDOF 7
ENDMDL
MODEL 6
REMARK VINA RESULT:    -7.376      3.924      8.161
REMARK INTER + INTRA:         -11.225
REMARK INTER:                  -8.955
REMARK INTRA:                  -2.269
REMARK UNBOUND:                -0.830
REMARK  Name = 
REMARK  8 active torsions:
REMARK  status: ('A' for Active; 'I' for Inactive)
REMARK    1  A    between atoms: C_1  and  N_2
REMARK    2  A    between atoms: N_2  and  C_3
REMARK    3  A    between atoms: N_2  and  C_10
REMARK    4  A    between atoms: C_3  and  C_4
REMARK    5  A    between atoms: C_10  and  C_11
REMARK    6  A    between atoms: C_14  and  C_15
REMARK    7  A    between atoms: C_15  and  N_16
REMARK    8  A    between atoms: C_17  and  C_19
REMARK                            x       y       z     vdW  Elec       q    Type
REMARK                         _______ _______ _______ _____ _____    ______ ____
ROOT
ATOM      1  C   UNL     1      51.147   7.146  17.201  0.00  0.00    +0.000 A 
ATOM      2  C   UNL     1      51.190   7.049  15.808  0.00  0.00    +0.000 A 
ATOM      3  C   UNL     1      50.269   7.755  15.038  0.00  0.00    +0.000 A 
ATOM      4  C   UNL     1      49.304   8.527  15.682  0.00  0.00    +0.000 A 
ATOM      5  N   UNL     1      49.265   8.665  17.031  0.00  0.00    +0.000 NA
ATOM      6  C   UNL     1      50.181   7.981  17.751  0.00  0.00    +0.000 A 
ENDROOT
BRANCH   1   7
ATOM      7  C   UNL     1      52.090   6.370  18.086  0.00  0.00    +0.000 C 
BRANCH   7   9
ATOM      8  C   UNL     1      53.207   4.243  18.370  0.00  0.00    +0.000 C 
ATOM      9  N   UNL     1      51.953   4.901  17.982  0.00  0.00    +0.000 NA
BRANCH   9  10
ATOM     10  C   UNL     1      50.833   4.466  18.845  0.00  0.00    +0.000 C 
BRANCH  10  11
ATOM     11  C   UNL     1      49.600   4.016  18.092  0.00  0.00    +0.000 A 
ATOM     12  C   UNL     1      49.617   2.841  17.332  0.00  0.00    +0.000 A 
ATOM     13  C   UNL     1      48.467   2.468  16.653  0.00  0.00    +0.000 A 
ATOM     14  N   UNL     1      47.315   3.170  16.685  0.00  0.00    +0.000 NA
ATOM     15  C   UNL     1      47.317   4.301  17.424  0.00  0.00    +0.000 A 
ATOM     16  C   UNL     1      48.416   4.758  18.137  0.00  0.00    +0.000 A 
ENDBRANCH  10  11
ENDBRANCH   9  10
ENDBRANCH   7   9
ENDBRANCH   1   7
BRANCH   4  17
ATOM     17  C   UNL     1      48.232   9.229  14.888  0.00  0.00    +0.000 C 
BRANCH  17  18
ATOM     18  N   UNL     1      47.248   8.323  14.348  0.00  0.00    +0.000 N 
ATOM     19  C   UNL     1      46.983   8.245  13.009  0.00  0.00    +0.000 C 
ATOM     20  O   UNL     1      47.535   8.973  12.188  0.00  0.00    +0.000 OA
ATOM     21  H   UNL     1      46.623   7.891  15.022  0.00  0.00    +0.000 HD
BRANCH  19  22
ATOM     22  C   UNL     1      46.067   7.180  12.590  0.00  0.00    +0.000 A 
ATOM     23  C   UNL     1      44.950   7.493  11.823  0.00  0.00    +0.000 A 
ATOM     24  S   UNL     1      44.024   6.127  11.378  0.00  0.00    +0.000 S 
ATOM     25  C   UNL     1      45.057   5.086  12.237  0.00  0.00    +0.000 A 
ATOM     26  N   UNL     1      44.830   3.750  12.308  0.00  0.00    +0.000 NA
ATOM     27  N   UNL     1      45.603   3.029  12.988  0.00  0.00    +0.000 NA
ATOM     28  N   UNL     1      46.670   3.605  13.619  0.00  0.00    +0.000 N 
ATOM     29  C   UNL     1      47.018   4.933  13.576  0.00  0.00    +0.000 A 
ATOM     30  O   UNL     1      48.028   5.357  14.120  0.00  0.00    +0.000 OA
ATOM     31  C   UNL     1      46.102   5.760  12.825  0.00  0.00    +0.000 A 
ATOM     32  H   UNL     1      47.267   2.974  14.140  0.00  0.00    +0.000 HD
ENDBRANCH  19  22
ENDBRANCH  17  18
ENDBRANCH   4  17
TORSDOF 7
ENDMDL
MODEL 7
REMARK VINA RESULT:    -7.194      1.494      2.224
REMARK INTER + INTRA:         -10.968
REMARK INTER:                 -10.488
REMARK INTRA:                  -0.480
REMARK UNBOUND:                -0.830
REMARK  Name = 
REMARK  8 active torsions:
REMARK  status: ('A' for Active; 'I' for Inactive)
REMARK    1  A    between atoms: C_1  and  N_2
REMARK    2  A    between atoms: N_2  and  C_3
REMARK    3  A    between atoms: N_2  and  C_10
REMARK    4  A    between atoms: C_3  and  C_4
REMARK    5  A    between atoms: C_10  and  C_11
REMARK    6  A    between atoms: C_14  and  C_15
REMARK    7  A    between atoms: C_15  and  N_16
REMARK    8  A    between atoms: C_17  and  C_19
REMARK                            x       y       z     vdW  Elec       q    Type
REMARK                         _______ _______ _______ _____ _____    ______ ____
ROOT
ATOM      1  C   UNL     1      45.398   4.974  11.480  0.00  0.00    +0.000 A 
ATOM      2  C   UNL     1      45.999   6.150  11.024  0.00  0.00    +0.000 A 
ATOM      3  C   UNL     1      46.926   6.809  11.827  0.00  0.00    +0.000 A 
ATOM      4  C   UNL     1      47.213   6.289  13.088  0.00  0.00    +0.000 A 
ATOM      5  N   UNL     1      46.670   5.130  13.538  0.00  0.00    +0.000 NA
ATOM      6  C   UNL     1      45.787   4.504  12.729  0.00  0.00    +0.000 A 
ENDROOT
BRANCH   1   7
ATOM      7  C   UNL     1      44.356   4.242  10.672  0.00  0.00    +0.000 C 
BRANCH   7   9
ATOM      8  C   UNL     1      43.996   1.992   9.861  0.00  0.00    +0.000 C 
ATOM      9  N   UNL     1      44.892   3.155   9.827  0.00  0.00    +0.000 NA
BRANCH   9  10
ATOM     10  C   UNL     1      45.056   3.662   8.447  0.00  0.00    +0.000 C 
BRANCH  10  11
ATOM     11  C   UNL     1      46.055   2.893   7.611  0.00  0.00    +0.000 A 
ATOM     12  C   UNL     1      46.549   3.429   6.417  0.00  0.00    +0.000 A 
ATOM     13  C   UNL     1      47.460   2.687   5.678  0.00  0.00    +0.000 A 
ATOM     14  N   UNL     1      47.912   1.471   6.047  0.00  0.00    +0.000 NA
ATOM     15  C   UNL     1      47.425   0.970   7.203  0.00  0.00    +0.000 A 
ATOM     16  C   UNL     1      46.512   1.633   8.010  0.00  0.00    +0.000 A 
ENDBRANCH  10  11
ENDBRANCH   9  10
ENDBRANCH   7   9
ENDBRANCH   1   7
BRANCH   4  17
ATOM     17  C   UNL     1      48.138   7.024  14.025  0.00  0.00    +0.000 C 
BRANCH  17  18
ATOM     18  N   UNL     1      48.044   6.557  15.388  0.00  0.00    +0.000 N 
ATOM     19  C   UNL     1      49.113   6.566  16.239  0.00  0.00    +0.000 C 
ATOM     20  O   UNL     1      50.231   6.930  15.883  0.00  0.00    +0.000 OA
ATOM     21  H   UNL     1      47.202   6.039  15.623  0.00  0.00    +0.000 HD
BRANCH  19  22
ATOM     22  C   UNL     1      48.837   6.200  17.631  0.00  0.00    +0.000 A 
ATOM     23  C   UNL     1      49.116   4.913  18.076  0.00  0.00    +0.000 A 
ATOM     24  S   UNL     1      48.784   4.677  19.735  0.00  0.00    +0.000 S 
ATOM     25  C   UNL     1      48.212   6.269  19.897  0.00  0.00    +0.000 A 
ATOM     26  N   UNL     1      47.730   6.741  21.074  0.00  0.00    +0.000 NA
ATOM     27  N   UNL     1      47.283   7.914  21.132  0.00  0.00    +0.000 NA
ATOM     28  N   UNL     1      47.317   8.696  20.012  0.00  0.00    +0.000 N 
ATOM     29  C   UNL     1      47.825   8.338  18.787  0.00  0.00    +0.000 A 
ATOM     30  O   UNL     1      47.875   9.123  17.850  0.00  0.00    +0.000 OA
ATOM     31  C   UNL     1      48.299   6.975  18.720  0.00  0.00    +0.000 A 
ATOM     32  H   UNL     1      46.958   9.637  20.119  0.00  0.00    +0.000 HD
ENDBRANCH  19  22
ENDBRANCH  17  18
ENDBRANCH   4  17
TORSDOF 7
ENDMDL
MODEL 8
REMARK VINA RESULT:    -7.092      3.724      9.047
REMARK INTER + INTRA:         -10.825
REMARK INTER:                  -9.522
REMARK INTRA:                  -1.304
REMARK UNBOUND:                -0.830
REMARK  Name = 
REMARK  8 active torsions:
REMARK  status: ('A' for Active; 'I' for Inactive)
REMARK    1  A    between atoms: C_1  and  N_2
REMARK    2  A    between atoms: N_2  and  C_3
REMARK    3  A    between atoms: N_2  and  C_10
REMARK    4  A    between atoms: C_3  and  C_4
REMARK    5  A    between atoms: C_10  and  C_11
REMARK    6  A    between atoms: C_14  and  C_15
REMARK    7  A    between atoms: C_15  and  N_16
REMARK    8  A    between atoms: C_17  and  C_19
REMARK                            x       y       z     vdW  Elec       q    Type
REMARK                         _______ _______ _______ _____ _____    ______ ____
ROOT
ATOM      1  C   UNL     1      49.569   8.138  15.764  0.00  0.00    +0.000 A 
ATOM      2  C   UNL     1      50.079   7.312  14.760  0.00  0.00    +0.000 A 
ATOM      3  C   UNL     1      49.434   7.243  13.527  0.00  0.00    +0.000 A 
ATOM      4  C   UNL     1      48.272   7.986  13.334  0.00  0.00    +0.000 A 
ATOM      5  N   UNL     1      47.777   8.823  14.280  0.00  0.00    +0.000 NA
ATOM      6  C   UNL     1      48.434   8.882  15.460  0.00  0.00    +0.000 A 
ENDROOT
BRANCH   1   7
ATOM      7  C   UNL     1      50.200   8.219  17.131  0.00  0.00    +0.000 C 
BRANCH   7   9
ATOM      8  C   UNL     1      51.512   7.087  18.818  0.00  0.00    +0.000 C 
ATOM      9  N   UNL     1      50.563   6.909  17.712  0.00  0.00    +0.000 NA
BRANCH   9  10
ATOM     10  C   UNL     1      49.328   6.235  18.171  0.00  0.00    +0.000 C 
BRANCH  10  11
ATOM     11  C   UNL     1      49.106   4.861  17.577  0.00  0.00    +0.000 A 
ATOM     12  C   UNL     1      50.054   3.847  17.748  0.00  0.00    +0.000 A 
ATOM     13  C   UNL     1      49.813   2.605  17.181  0.00  0.00    +0.000 A 
ATOM     14  N   UNL     1      48.705   2.305  16.472  0.00  0.00    +0.000 NA
ATOM     15  C   UNL     1      47.800   3.296  16.318  0.00  0.00    +0.000 A 
ATOM     16  C   UNL     1      47.951   4.571  16.844  0.00  0.00    +0.000 A 
ENDBRANCH  10  11
ENDBRANCH   9  10
ENDBRANCH   7   9
ENDBRANCH   1   7
BRANCH   4  17
ATOM     17  C   UNL     1      47.492   7.866  12.049  0.00  0.00    +0.000 C 
BRANCH  17  18
ATOM     18  N   UNL     1      46.744   6.635  11.958  0.00  0.00    +0.000 N 
ATOM     19  C   UNL     1      45.464   6.590  11.481  0.00  0.00    +0.000 C 
ATOM     20  O   UNL     1      44.856   7.602  11.141  0.00  0.00    +0.000 OA
ATOM     21  H   UNL     1      47.139   5.838  12.449  0.00  0.00    +0.000 HD
BRANCH  19  22
ATOM     22  C   UNL     1      44.882   5.256  11.310  0.00  0.00    +0.000 A 
ATOM     23  C   UNL     1      44.156   4.681  12.347  0.00  0.00    +0.000 A 
ATOM     24  S   UNL     1      43.504   3.150  11.957  0.00  0.00    +0.000 S 
ATOM     25  C   UNL     1      44.214   3.187  10.413  0.00  0.00    +0.000 A 
ATOM     26  N   UNL     1      44.085   2.156   9.541  0.00  0.00    +0.000 NA
ATOM     27  N   UNL     1      44.662   2.216   8.426  0.00  0.00    +0.000 NA
ATOM     28  N   UNL     1      45.385   3.332   8.108  0.00  0.00    +0.000 N 
ATOM     29  C   UNL     1      45.540   4.448   8.892  0.00  0.00    +0.000 A 
ATOM     30  O   UNL     1      46.153   5.433   8.505  0.00  0.00    +0.000 OA
ATOM     31  C   UNL     1      44.908   4.353  10.187  0.00  0.00    +0.000 A 
ATOM     32  H   UNL     1      45.815   3.332   7.191  0.00  0.00    +0.000 HD
ENDBRANCH  19  22
ENDBRANCH  17  18
ENDBRANCH   4  17
TORSDOF 7
ENDMDL
MODEL 9
REMARK VINA RESULT:    -6.786      3.275      4.736
REMARK INTER + INTRA:         -10.394
REMARK INTER:                  -9.845
REMARK INTRA:                  -0.549
REMARK UNBOUND:                -0.830
REMARK  Name = 
REMARK  8 active torsions:
REMARK  status: ('A' for Active; 'I' for Inactive)
REMARK    1  A    between atoms: C_1  and  N_2
REMARK    2  A    between atoms: N_2  and  C_3
REMARK    3  A    between atoms: N_2  and  C_10
REMARK    4  A    between atoms: C_3  and  C_4
REMARK    5  A    between atoms: C_10  and  C_11
REMARK    6  A    between atoms: C_14  and  C_15
REMARK    7  A    between atoms: C_15  and  N_16
REMARK    8  A    between atoms: C_17  and  C_19
REMARK                            x       y       z     vdW  Elec       q    Type
REMARK                         _______ _______ _______ _____ _____    ______ ____
ROOT
ATOM      1  C   UNL     1      47.243   5.819  13.661  0.00  0.00    +0.000 A 
ATOM      2  C   UNL     1      48.168   6.488  14.468  0.00  0.00    +0.000 A 
ATOM      3  C   UNL     1      48.451   6.004  15.743  0.00  0.00    +0.000 A 
ATOM      4  C   UNL     1      47.779   4.870  16.196  0.00  0.00    +0.000 A 
ATOM      5  N   UNL     1      46.904   4.183  15.419  0.00  0.00    +0.000 NA
ATOM      6  C   UNL     1      46.663   4.668  14.181  0.00  0.00    +0.000 A 
ENDROOT
BRANCH   1   7
ATOM      7  C   UNL     1      46.865   6.322  12.291  0.00  0.00    +0.000 C 
BRANCH   7   9
ATOM      8  C   UNL     1      45.834   8.510  12.343  0.00  0.00    +0.000 C 
ATOM      9  N   UNL     1      45.588   7.065  12.246  0.00  0.00    +0.000 NA
BRANCH   9  10
ATOM     10  C   UNL     1      44.886   6.726  10.989  0.00  0.00    +0.000 C 
BRANCH  10  11
ATOM     11  C   UNL     1      44.443   5.283  10.887  0.00  0.00    +0.000 A 
ATOM     12  C   UNL     1      43.619   4.719  11.867  0.00  0.00    +0.000 A 
ATOM     13  C   UNL     1      43.241   3.391  11.738  0.00  0.00    +0.000 A 
ATOM     14  N   UNL     1      43.617   2.599  10.711  0.00  0.00    +0.000 NA
ATOM     15  C   UNL     1      44.412   3.161   9.775  0.00  0.00    +0.000 A 
ATOM     16  C   UNL     1      44.844   4.479   9.815  0.00  0.00    +0.000 A 
ENDBRANCH  10  11
ENDBRANCH   9  10
ENDBRANCH   7   9
ENDBRANCH   1   7
BRANCH   4  17
ATOM     17  C   UNL     1      47.986   4.370  17.603  0.00  0.00    +0.000 C 
BRANCH  17  18
ATOM     18  N   UNL     1      49.311   3.841  17.823  0.00  0.00    +0.000 N 
ATOM     19  C   UNL     1      50.333   4.607  18.309  0.00  0.00    +0.000 C 
ATOM     20  O   UNL     1      50.199   5.804  18.546  0.00  0.00    +0.000 OA
ATOM     21  H   UNL     1      49.499   2.930  17.414  0.00  0.00    +0.000 HD
BRANCH  19  22
ATOM     22  C   UNL     1      51.581   3.902  18.618  0.00  0.00    +0.000 A 
ATOM     23  C   UNL     1      52.526   4.503  19.442  0.00  0.00    +0.000 A 
ATOM     24  S   UNL     1      53.893   3.521  19.741  0.00  0.00    +0.000 S 
ATOM     25  C   UNL     1      53.286   2.288  18.740  0.00  0.00    +0.000 A 
ATOM     26  N   UNL     1      53.978   1.143  18.516  0.00  0.00    +0.000 NA
ATOM     27  N   UNL     1      53.503   0.279  17.736  0.00  0.00    +0.000 NA
ATOM     28  N   UNL     1      52.287   0.502  17.154  0.00  0.00    +0.000 N 
ATOM     29  C   UNL     1      51.484   1.599  17.348  0.00  0.00    +0.000 A 
ATOM     30  O   UNL     1      50.377   1.692  16.836  0.00  0.00    +0.000 OA
ATOM     31  C   UNL     1      52.056   2.604  18.213  0.00  0.00    +0.000 A 
ATOM     32  H   UNL     1      51.946  -0.234  16.548  0.00  0.00    +0.000 HD
ENDBRANCH  19  22
ENDBRANCH  17  18
ENDBRANCH   4  17
TORSDOF 7
ENDMDL
