MODEL 1
REMARK VINA RESULT:    -6.758      0.000      0.000
REMARK INTER + INTRA:          -7.985
REMARK INTER:                  -7.548
REMARK INTRA:                  -0.437
REMARK UNBOUND:                -0.437
REMARK  Name = 
REMARK  3 active torsions:
REMARK  status: ('A' for Active; 'I' for Inactive)
REMARK    1  A    between atoms: C_1  and  C_2
REMARK    2  A    between atoms: C_9  and  C_10
REMARK    3  A    between atoms: C_14  and  C_15
REMARK                            x       y       z     vdW  Elec       q    Type
REMARK                         _______ _______ _______ _____ _____    ______ ____
ROOT
ATOM      1  C   UNL     1      50.930   8.604  16.847  0.00  0.00    +0.000 C 
ATOM      2  C   UNL     1      49.985   7.904  15.928  0.00  0.00    +0.000 A 
ATOM      3  C   UNL     1      49.403   6.692  16.257  0.00  0.00    +0.000 A 
ATOM      4  C   UNL     1      48.515   6.094  15.362  0.00  0.00    +0.000 A 
ATOM      5  C   UNL     1      48.226   6.719  14.147  0.00  0.00    +0.000 A 
ATOM      6  N   UNL     1      47.327   6.157  13.262  0.00  0.00    +0.000 N 
ATOM      7  C   UNL     1      47.552   6.359  11.833  0.00  0.00    +0.000 C 
ATOM      8  C   UNL     1      46.307   6.862  11.117  0.00  0.00    +0.000 C 
ATOM      9  C   UNL     1      45.016   6.145  11.529  0.00  0.00    +0.000 C 
ATOM     10  C   UNL     1      44.874   6.169  13.054  0.00  0.00    +0.000 C 
ATOM     11  C   UNL     1      46.086   5.594  13.777  0.00  0.00    +0.000 C 
ATOM     12  N   UNL     1      48.809   7.886  13.814  0.00  0.00    +0.000 NA
ATOM     13  C   UNL     1      49.655   8.457  14.699  0.00  0.00    +0.000 A 
ENDROOT
BRANCH   9  14
ATOM     14  C   UNL     1      44.817   4.744  10.957  0.00  0.00    +0.000 A 
ATOM     15  C   UNL     1      43.823   3.868  11.410  0.00  0.00    +0.000 A 
ATOM     16  C   UNL     1      43.605   2.641  10.797  0.00  0.00    +0.000 A 
ATOM     17  C   UNL     1      44.378   2.271   9.705  0.00  0.00    +0.000 A 
ATOM     18  C   UNL     1      45.369   3.121   9.190  0.00  0.00    +0.000 A 
ATOM     19  C   UNL     1      45.595   4.342   9.856  0.00  0.00    +0.000 A 
BRANCH  18  20
ATOM     20  C   UNL     1      46.080   2.769   7.955  0.00  0.00    +0.000 A 
ATOM     21  C   UNL     1      46.666   1.522   7.767  0.00  0.00    +0.000 A 
ATOM     22  N   UNL     1      47.319   1.131   6.653  0.00  0.00    +0.000 NA
ATOM     23  C   UNL     1      47.379   2.041   5.673  0.00  0.00    +0.000 A 
ATOM     24  N   UNL     1      46.851   3.274   5.713  0.00  0.00    +0.000 NA
ATOM     25  C   UNL     1      46.215   3.605   6.861  0.00  0.00    +0.000 A 
ENDBRANCH  18  20
ENDBRANCH   9  14
TORSDOF 2
ENDMDL
MODEL 2
REMARK VINA RESULT:    -5.957      3.014      4.710
REMARK INTER + INTRA:          -7.090
REMARK INTER:                  -6.811
REMARK INTRA:                  -0.279
REMARK UNBOUND:                -0.437
REMARK  Name = 
REMARK  3 active torsions:
REMARK  status: ('A' for Active; 'I' for Inactive)
REMARK    1  A    between atoms: C_1  and  C_2
REMARK    2  A    between atoms: C_9  and  C_10
REMARK    3  A    between atoms: C_14  and  C_15
REMARK                            x       y       z     vdW  Elec       q    Type
REMARK                         _______ _______ _______ _____ _____    ______ ____
ROOT
ATOM      1  C   UNL     1      52.253   6.249  19.408  0.00  0.00    +0.000 C 
ATOM      2  C   UNL     1      51.299   6.578  18.308  0.00  0.00    +0.000 A 
ATOM      3  C   UNL     1      50.071   7.169  18.553  0.00  0.00    +0.000 A 
ATOM      4  C   UNL     1      49.230   7.466  17.480  0.00  0.00    +0.000 A 
ATOM      5  C   UNL     1      49.630   7.166  16.177  0.00  0.00    +0.000 A 
ATOM      6  N   UNL     1      48.824   7.480  15.102  0.00  0.00    +0.000 N 
ATOM      7  C   UNL     1      48.857   6.600  13.937  0.00  0.00    +0.000 C 
ATOM      8  C   UNL     1      49.064   7.366  12.638  0.00  0.00    +0.000 C 
ATOM      9  C   UNL     1      48.227   8.645  12.527  0.00  0.00    +0.000 C 
ATOM     10  C   UNL     1      48.440   9.515  13.770  0.00  0.00    +0.000 C 
ATOM     11  C   UNL     1      48.158   8.776  15.072  0.00  0.00    +0.000 C 
ATOM     12  N   UNL     1      50.814   6.569  15.938  0.00  0.00    +0.000 NA
ATOM     13  C   UNL     1      51.622   6.301  16.988  0.00  0.00    +0.000 A 
ENDROOT
BRANCH   9  14
ATOM     14  C   UNL     1      46.747   8.450  12.212  0.00  0.00    +0.000 A 
ATOM     15  C   UNL     1      45.919   9.485  11.760  0.00  0.00    +0.000 A 
ATOM     16  C   UNL     1      44.602   9.249  11.384  0.00  0.00    +0.000 A 
ATOM     17  C   UNL     1      44.092   7.959  11.445  0.00  0.00    +0.000 A 
ATOM     18  C   UNL     1      44.884   6.879  11.863  0.00  0.00    +0.000 A 
ATOM     19  C   UNL     1      46.203   7.154  12.274  0.00  0.00    +0.000 A 
BRANCH  18  20
ATOM     20  C   UNL     1      44.366   5.507  11.790  0.00  0.00    +0.000 A 
ATOM     21  C   UNL     1      44.159   4.732  12.926  0.00  0.00    +0.000 A 
ATOM     22  N   UNL     1      43.673   3.474  12.930  0.00  0.00    +0.000 NA
ATOM     23  C   UNL     1      43.371   2.971  11.727  0.00  0.00    +0.000 A 
ATOM     24  N   UNL     1      43.508   3.607  10.554  0.00  0.00    +0.000 NA
ATOM     25  C   UNL     1      44.007   4.863  10.619  0.00  0.00    +0.000 A 
ENDBRANCH  18  20
ENDBRANCH   9  14
TORSDOF 2
ENDMDL
MODEL 3
REMARK VINA RESULT:    -5.591      3.165      9.352
REMARK INTER + INTRA:          -6.682
REMARK INTER:                  -6.340
REMARK INTRA:                  -0.342
REMARK UNBOUND:                -0.437
REMARK  Name = 
REMARK  3 active torsions:
REMARK  status: ('A' for Active; 'I' for Inactive)
REMARK    1  A    between atoms: C_1  and  C_2
REMARK    2  A    between atoms: C_9  and  C_10
REMARK    3  A    between atoms: C_14  and  C_15
REMARK                            x       y       z     vdW  Elec       q    Type
REMARK                         _______ _______ _______ _____ _____    ______ ____
ROOT
ATOM      1  C   UNL     1      44.357   3.703   9.523  0.00  0.00    +0.000 C 
ATOM      2  C   UNL     1      45.001   4.471  10.629  0.00  0.00    +0.000 A 
ATOM      3  C   UNL     1      45.147   3.945  11.901  0.00  0.00    +0.000 A 
ATOM      4  C   UNL     1      45.773   4.707  12.888  0.00  0.00    +0.000 A 
ATOM      5  C   UNL     1      46.241   5.987  12.588  0.00  0.00    +0.000 A 
ATOM      6  N   UNL     1      46.889   6.744  13.543  0.00  0.00    +0.000 N 
ATOM      7  C   UNL     1      46.728   8.195  13.497  0.00  0.00    +0.000 C 
ATOM      8  C   UNL     1      48.062   8.926  13.552  0.00  0.00    +0.000 C 
ATOM      9  C   UNL     1      49.042   8.362  14.587  0.00  0.00    +0.000 C 
ATOM     10  C   UNL     1      49.201   6.853  14.381  0.00  0.00    +0.000 C 
ATOM     11  C   UNL     1      47.875   6.103  14.403  0.00  0.00    +0.000 C 
ATOM     12  N   UNL     1      46.078   6.511  11.358  0.00  0.00    +0.000 NA
ATOM     13  C   UNL     1      45.483   5.753  10.410  0.00  0.00    +0.000 A 
ENDROOT
BRANCH   9  14
ATOM     14  C   UNL     1      48.753   8.714  16.043  0.00  0.00    +0.000 A 
ATOM     15  C   UNL     1      48.292   9.974  16.448  0.00  0.00    +0.000 A 
ATOM     16  C   UNL     1      47.941  10.227  17.768  0.00  0.00    +0.000 A 
ATOM     17  C   UNL     1      48.036   9.212  18.711  0.00  0.00    +0.000 A 
ATOM     18  C   UNL     1      48.464   7.924  18.357  0.00  0.00    +0.000 A 
ATOM     19  C   UNL     1      48.850   7.706  17.019  0.00  0.00    +0.000 A 
BRANCH  18  20
ATOM     20  C   UNL     1      48.428   6.833  19.339  0.00  0.00    +0.000 A 
ATOM     21  C   UNL     1      49.154   5.659  19.170  0.00  0.00    +0.000 A 
ATOM     22  N   UNL     1      49.176   4.628  20.039  0.00  0.00    +0.000 NA
ATOM     23  C   UNL     1      48.435   4.790  21.142  0.00  0.00    +0.000 A 
ATOM     24  N   UNL     1      47.696   5.870  21.439  0.00  0.00    +0.000 NA
ATOM     25  C   UNL     1      47.711   6.865  20.523  0.00  0.00    +0.000 A 
ENDBRANCH  18  20
ENDBRANCH   9  14
TORSDOF 2
ENDMDL
MODEL 4
REMARK VINA RESULT:    -5.500      4.062      7.984
REMARK INTER + INTRA:          -6.580
REMARK INTER:                  -6.102
REMARK INTRA:                  -0.478
REMARK UNBOUND:                -0.437
REMARK  Name = 
REMARK  3 active torsions:
REMARK  status: ('A' for Active; 'I' for Inactive)
REMARK    1  A    between atoms: C_1  and  C_2
REMARK    2  A    between atoms: C_9  and  C_10
REMARK    3  A    between atoms: C_14  and  C_15
REMARK                            x       y       z     vdW  Elec       q    Type
REMARK                         _______ _______ _______ _____ _____    ______ ____
ROOT
ATOM      1  C   UNL     1      43.283   2.020  11.776  0.00  0.00    +0.000 C 
ATOM      2  C   UNL     1      43.982   3.337  11.702  0.00  0.00    +0.000 A 
ATOM      3  C   UNL     1      43.528   4.365  10.894  0.00  0.00    +0.000 A 
ATOM      4  C   UNL     1      44.217   5.579  10.881  0.00  0.00    +0.000 A 
ATOM      5  C   UNL     1      45.352   5.744  11.676  0.00  0.00    +0.000 A 
ATOM      6  N   UNL     1      46.028   6.947  11.699  0.00  0.00    +0.000 N 
ATOM      7  C   UNL     1      47.475   6.919  11.899  0.00  0.00    +0.000 C 
ATOM      8  C   UNL     1      47.925   7.868  13.000  0.00  0.00    +0.000 C 
ATOM      9  C   UNL     1      47.250   9.243  12.956  0.00  0.00    +0.000 C 
ATOM     10  C   UNL     1      45.728   9.072  12.905  0.00  0.00    +0.000 C 
ATOM     11  C   UNL     1      45.264   8.187  11.755  0.00  0.00    +0.000 C 
ATOM     12  N   UNL     1      45.809   4.737  12.445  0.00  0.00    +0.000 NA
ATOM     13  C   UNL     1      45.122   3.574  12.456  0.00  0.00    +0.000 A 
ENDROOT
BRANCH   9  14
ATOM     14  C   UNL     1      47.755  10.202  11.882  0.00  0.00    +0.000 A 
ATOM     15  C   UNL     1      46.990  11.264  11.384  0.00  0.00    +0.000 A 
ATOM     16  C   UNL     1      47.519  12.178  10.482  0.00  0.00    +0.000 A 
ATOM     17  C   UNL     1      48.837  12.049  10.067  0.00  0.00    +0.000 A 
ATOM     18  C   UNL     1      49.659  11.022  10.554  0.00  0.00    +0.000 A 
ATOM     19  C   UNL     1      49.085  10.086  11.438  0.00  0.00    +0.000 A 
BRANCH  18  20
ATOM     20  C   UNL     1      51.086  10.984  10.207  0.00  0.00    +0.000 A 
ATOM     21  C   UNL     1      51.945  10.012  10.709  0.00  0.00    +0.000 A 
ATOM     22  N   UNL     1      53.258   9.913  10.419  0.00  0.00    +0.000 NA
ATOM     23  C   UNL     1      53.731  10.835   9.572  0.00  0.00    +0.000 A 
ATOM     24  N   UNL     1      53.017  11.819   9.005  0.00  0.00    +0.000 NA
ATOM     25  C   UNL     1      51.707  11.867   9.342  0.00  0.00    +0.000 A 
ENDBRANCH  18  20
ENDBRANCH   9  14
TORSDOF 2
ENDMDL
MODEL 5
REMARK VINA RESULT:    -5.350      3.939      9.541
REMARK INTER + INTRA:          -6.413
REMARK INTER:                  -6.042
REMARK INTRA:                  -0.371
REMARK UNBOUND:                -0.437
REMARK  Name = 
REMARK  3 active torsions:
REMARK  status: ('A' for Active; 'I' for Inactive)
REMARK    1  A    between atoms: C_1  and  C_2
REMARK    2  A    between atoms: C_9  and  C_10
REMARK    3  A    between atoms: C_14  and  C_15
REMARK                            x       y       z     vdW  Elec       q    Type
REMARK                         _______ _______ _______ _____ _____    ______ ____
ROOT
ATOM      1  C   UNL     1      43.222   4.759  10.918  0.00  0.00    +0.000 C 
ATOM      2  C   UNL     1      44.432   4.984  11.762  0.00  0.00    +0.000 A 
ATOM      3  C   UNL     1      45.530   5.688  11.298  0.00  0.00    +0.000 A 
ATOM      4  C   UNL     1      46.625   5.879  12.141  0.00  0.00    +0.000 A 
ATOM      5  C   UNL     1      46.605   5.360  13.437  0.00  0.00    +0.000 A 
ATOM      6  N   UNL     1      47.667   5.565  14.295  0.00  0.00    +0.000 N 
ATOM      7  C   UNL     1      47.976   4.521  15.268  0.00  0.00    +0.000 C 
ATOM      8  C   UNL     1      48.113   5.069  16.681  0.00  0.00    +0.000 C 
ATOM      9  C   UNL     1      48.916   6.371  16.772  0.00  0.00    +0.000 C 
ATOM     10  C   UNL     1      48.349   7.400  15.788  0.00  0.00    +0.000 C 
ATOM     11  C   UNL     1      48.282   6.885  14.356  0.00  0.00    +0.000 C 
ATOM     12  N   UNL     1      45.548   4.655  13.883  0.00  0.00    +0.000 NA
ATOM     13  C   UNL     1      44.490   4.492  13.057  0.00  0.00    +0.000 A 
ENDROOT
BRANCH   9  14
ATOM     14  C   UNL     1      50.430   6.233  16.645  0.00  0.00    +0.000 A 
ATOM     15  C   UNL     1      51.229   7.163  15.967  0.00  0.00    +0.000 A 
ATOM     16  C   UNL     1      52.614   7.059  15.960  0.00  0.00    +0.000 A 
ATOM     17  C   UNL     1      53.229   6.021  16.647  0.00  0.00    +0.000 A 
ATOM     18  C   UNL     1      52.482   5.078  17.367  0.00  0.00    +0.000 A 
ATOM     19  C   UNL     1      51.077   5.184  17.325  0.00  0.00    +0.000 A 
BRANCH  18  20
ATOM     20  C   UNL     1      53.157   4.071  18.195  0.00  0.00    +0.000 A 
ATOM     21  C   UNL     1      54.108   4.415  19.150  0.00  0.00    +0.000 A 
ATOM     22  N   UNL     1      54.753   3.542  19.953  0.00  0.00    +0.000 NA
ATOM     23  C   UNL     1      54.416   2.257  19.791  0.00  0.00    +0.000 A 
ATOM     24  N   UNL     1      53.512   1.786  18.920  0.00  0.00    +0.000 NA
ATOM     25  C   UNL     1      52.906   2.712  18.140  0.00  0.00    +0.000 A 
ENDBRANCH  18  20
ENDBRANCH   9  14
TORSDOF 2
ENDMDL
MODEL 6
REMARK VINA RESULT:    -5.189      3.802      7.556
REMARK INTER + INTRA:          -6.233
REMARK INTER:                  -5.946
REMARK INTRA:                  -0.287
REMARK UNBOUND:                -0.437
REMARK  Name = 
REMARK  3 active torsions:
REMARK  status: ('A' for Active; 'I' for Inactive)
REMARK    1  A    between atoms: C_1  and  C_2
REMARK    2  A    between atoms: C_9  and  C_10
REMARK    3  A    between atoms: C_14  and  C_15
REMARK                            x       y       z     vdW  Elec       q    Type
REMARK                         _______ _______ _______ _____ _____    ______ ____
ROOT
ATOM      1  C   UNL     1      43.231   2.778  11.780  0.00  0.00    +0.000 C 
ATOM      2  C   UNL     1      44.256   3.863  11.818  0.00  0.00    +0.000 A 
ATOM      3  C   UNL     1      44.251   4.910  10.912  0.00  0.00    +0.000 A 
ATOM      4  C   UNL     1      45.227   5.902  11.009  0.00  0.00    +0.000 A 
ATOM      5  C   UNL     1      46.197   5.830  12.010  0.00  0.00    +0.000 A 
ATOM      6  N   UNL     1      47.152   6.817  12.140  0.00  0.00    +0.000 N 
ATOM      7  C   UNL     1      48.476   6.435  12.624  0.00  0.00    +0.000 C 
ATOM      8  C   UNL     1      48.949   7.316  13.771  0.00  0.00    +0.000 C 
ATOM      9  C   UNL     1      48.684   8.811  13.562  0.00  0.00    +0.000 C 
ATOM     10  C   UNL     1      47.209   9.032  13.213  0.00  0.00    +0.000 C 
ATOM     11  C   UNL     1      46.748   8.212  12.015  0.00  0.00    +0.000 C 
ATOM     12  N   UNL     1      46.219   4.799  12.877  0.00  0.00    +0.000 NA
ATOM     13  C   UNL     1      45.257   3.855  12.778  0.00  0.00    +0.000 A 
ENDROOT
BRANCH   9  14
ATOM     14  C   UNL     1      49.616   9.525  12.589  0.00  0.00    +0.000 A 
ATOM     15  C   UNL     1      49.752  10.919  12.544  0.00  0.00    +0.000 A 
ATOM     16  C   UNL     1      50.686  11.529  11.716  0.00  0.00    +0.000 A 
ATOM     17  C   UNL     1      51.514  10.749  10.921  0.00  0.00    +0.000 A 
ATOM     18  C   UNL     1      51.442   9.348  10.947  0.00  0.00    +0.000 A 
ATOM     19  C   UNL     1      50.460   8.757  11.766  0.00  0.00    +0.000 A 
BRANCH  18  20
ATOM     20  C   UNL     1      52.417   8.541  10.202  0.00  0.00    +0.000 A 
ATOM     21  C   UNL     1      53.632   9.060   9.769  0.00  0.00    +0.000 A 
ATOM     22  N   UNL     1      54.576   8.370   9.096  0.00  0.00    +0.000 NA
ATOM     23  C   UNL     1      54.285   7.087   8.852  0.00  0.00    +0.000 A 
ATOM     24  N   UNL     1      53.160   6.454   9.219  0.00  0.00    +0.000 NA
ATOM     25  C   UNL     1      52.252   7.204   9.885  0.00  0.00    +0.000 A 
ENDBRANCH  18  20
ENDBRANCH   9  14
TORSDOF 2
ENDMDL
MODEL 7
REMARK VINA RESULT:    -4.990      3.253      8.978
REMARK INTER + INTRA:          -6.010
REMARK INTER:                  -5.984
REMARK INTRA:                  -0.026
REMARK UNBOUND:                -0.437
REMARK  Name = 
REMARK  3 active torsions:
REMARK  status: ('A' for Active; 'I' for Inactive)
REMARK    1  A    between atoms: C_1  and  C_2
REMARK    2  A    between atoms: C_9  and  C_10
REMARK    3  A    between atoms: C_14  and  C_15
REMARK                            x       y       z     vdW  Elec       q    Type
REMARK                         _______ _______ _______ _____ _____    ______ ____
ROOT
ATOM      1  C   UNL     1      43.532   2.755  11.188  0.00  0.00    +0.000 C 
ATOM      2  C   UNL     1      44.363   3.902  11.655  0.00  0.00    +0.000 A 
ATOM      3  C   UNL     1      45.400   3.738  12.559  0.00  0.00    +0.000 A 
ATOM      4  C   UNL     1      46.151   4.848  12.946  0.00  0.00    +0.000 A 
ATOM      5  C   UNL     1      45.852   6.108  12.423  0.00  0.00    +0.000 A 
ATOM      6  N   UNL     1      46.604   7.212  12.771  0.00  0.00    +0.000 N 
ATOM      7  C   UNL     1      45.933   8.507  12.839  0.00  0.00    +0.000 C 
ATOM      8  C   UNL     1      46.671   9.583  12.056  0.00  0.00    +0.000 C 
ATOM      9  C   UNL     1      48.191   9.570  12.255  0.00  0.00    +0.000 C 
ATOM     10  C   UNL     1      48.736   8.163  11.990  0.00  0.00    +0.000 C 
ATOM     11  C   UNL     1      48.055   7.090  12.829  0.00  0.00    +0.000 C 
ATOM     12  N   UNL     1      44.830   6.274  11.562  0.00  0.00    +0.000 NA
ATOM     13  C   UNL     1      44.122   5.186  11.188  0.00  0.00    +0.000 A 
ENDROOT
BRANCH   9  14
ATOM     14  C   UNL     1      48.697  10.141  13.576  0.00  0.00    +0.000 A 
ATOM     15  C   UNL     1      48.910  11.510  13.786  0.00  0.00    +0.000 A 
ATOM     16  C   UNL     1      49.272  12.004  15.033  0.00  0.00    +0.000 A 
ATOM     17  C   UNL     1      49.418  11.131  16.102  0.00  0.00    +0.000 A 
ATOM     18  C   UNL     1      49.190   9.754  15.957  0.00  0.00    +0.000 A 
ATOM     19  C   UNL     1      48.861   9.276  14.673  0.00  0.00    +0.000 A 
BRANCH  18  20
ATOM     20  C   UNL     1      49.217   8.870  17.129  0.00  0.00    +0.000 A 
ATOM     21  C   UNL     1      48.791   7.547  17.069  0.00  0.00    +0.000 A 
ATOM     22  N   UNL     1      48.805   6.680  18.102  0.00  0.00    +0.000 NA
ATOM     23  C   UNL     1      49.279   7.166  19.255  0.00  0.00    +0.000 A 
ATOM     24  N   UNL     1      49.732   8.414  19.453  0.00  0.00    +0.000 NA
ATOM     25  C   UNL     1      49.685   9.236  18.379  0.00  0.00    +0.000 A 
ENDBRANCH  18  20
ENDBRANCH   9  14
TORSDOF 2
ENDMDL
MODEL 8
REMARK VINA RESULT:    -4.693     10.790     13.097
REMARK INTER + INTRA:          -5.679
REMARK INTER:                  -5.395
REMARK INTRA:                  -0.285
REMARK UNBOUND:                -0.437
REMARK  Name = 
REMARK  3 active torsions:
REMARK  status: ('A' for Active; 'I' for Inactive)
REMARK    1  A    between atoms: C_1  and  C_2
REMARK    2  A    between atoms: C_9  and  C_10
REMARK    3  A    between atoms: C_14  and  C_15
REMARK                            x       y       z     vdW  Elec       q    Type
REMARK                         _______ _______ _______ _____ _____    ______ ____
ROOT
ATOM      1  C   UNL     1      35.992   0.918   6.773  0.00  0.00    +0.000 C 
ATOM      2  C   UNL     1      36.533   0.415   8.070  0.00  0.00    +0.000 A 
ATOM      3  C   UNL     1      36.769   1.257   9.143  0.00  0.00    +0.000 A 
ATOM      4  C   UNL     1      37.261   0.724  10.335  0.00  0.00    +0.000 A 
ATOM      5  C   UNL     1      37.511  -0.646  10.434  0.00  0.00    +0.000 A 
ATOM      6  N   UNL     1      37.969  -1.196  11.615  0.00  0.00    +0.000 N 
ATOM      7  C   UNL     1      38.860  -2.350  11.536  0.00  0.00    +0.000 C 
ATOM      8  C   UNL     1      38.402  -3.496  12.425  0.00  0.00    +0.000 C 
ATOM      9  C   UNL     1      37.942  -3.060  13.821  0.00  0.00    +0.000 C 
ATOM     10  C   UNL     1      36.894  -1.949  13.698  0.00  0.00    +0.000 C 
ATOM     11  C   UNL     1      37.376  -0.762  12.873  0.00  0.00    +0.000 C 
ATOM     12  N   UNL     1      37.305  -1.464   9.384  0.00  0.00    +0.000 NA
ATOM     13  C   UNL     1      36.815  -0.932   8.242  0.00  0.00    +0.000 A 
ENDROOT
BRANCH   9  14
ATOM     14  C   UNL     1      39.049  -2.697  14.806  0.00  0.00    +0.000 A 
ATOM     15  C   UNL     1      39.035  -1.525  15.573  0.00  0.00    +0.000 A 
ATOM     16  C   UNL     1      40.007  -1.277  16.534  0.00  0.00    +0.000 A 
ATOM     17  C   UNL     1      41.010  -2.211  16.754  0.00  0.00    +0.000 A 
ATOM     18  C   UNL     1      41.057  -3.415  16.037  0.00  0.00    +0.000 A 
ATOM     19  C   UNL     1      40.082  -3.623  15.041  0.00  0.00    +0.000 A 
BRANCH  18  20
ATOM     20  C   UNL     1      42.045  -4.446  16.379  0.00  0.00    +0.000 A 
ATOM     21  C   UNL     1      42.881  -4.332  17.485  0.00  0.00    +0.000 A 
ATOM     22  N   UNL     1      43.797  -5.248  17.863  0.00  0.00    +0.000 NA
ATOM     23  C   UNL     1      43.870  -6.340  17.092  0.00  0.00    +0.000 A 
ATOM     24  N   UNL     1      43.121  -6.585  16.007  0.00  0.00    +0.000 NA
ATOM     25  C   UNL     1      42.226  -5.625  15.678  0.00  0.00    +0.000 A 
ENDBRANCH  18  20
ENDBRANCH   9  14
TORSDOF 2
ENDMDL
MODEL 9
REMARK VINA RESULT:    -4.615     10.265     11.184
REMARK INTER + INTRA:          -5.591
REMARK INTER:                  -5.124
REMARK INTRA:                  -0.467
REMARK UNBOUND:                -0.437
REMARK  Name = 
REMARK  3 active torsions:
REMARK  status: ('A' for Active; 'I' for Inactive)
REMARK    1  A    between atoms: C_1  and  C_2
REMARK    2  A    between atoms: C_9  and  C_10
REMARK    3  A    between atoms: C_14  and  C_15
REMARK                            x       y       z     vdW  Elec       q    Type
REMARK                         _______ _______ _______ _____ _____    ______ ____
ROOT
ATOM      1  C   UNL     1      36.472   4.657  19.632  0.00  0.00    +0.000 C 
ATOM      2  C   UNL     1      36.965   3.568  18.739  0.00  0.00    +0.000 A 
ATOM      3  C   UNL     1      38.308   3.414  18.440  0.00  0.00    +0.000 A 
ATOM      4  C   UNL     1      38.708   2.365  17.611  0.00  0.00    +0.000 A 
ATOM      5  C   UNL     1      37.755   1.487  17.091  0.00  0.00    +0.000 A 
ATOM      6  N   UNL     1      38.136   0.426  16.294  0.00  0.00    +0.000 N 
ATOM      7  C   UNL     1      37.222  -0.004  15.239  0.00  0.00    +0.000 C 
ATOM      8  C   UNL     1      36.968  -1.504  15.269  0.00  0.00    +0.000 C 
ATOM      9  C   UNL     1      38.228  -2.347  15.491  0.00  0.00    +0.000 C 
ATOM     10  C   UNL     1      38.975  -1.847  16.731  0.00  0.00    +0.000 C 
ATOM     11  C   UNL     1      39.303  -0.360  16.672  0.00  0.00    +0.000 C 
ATOM     12  N   UNL     1      36.446   1.648  17.361  0.00  0.00    +0.000 NA
ATOM     13  C   UNL     1      36.078   2.661  18.177  0.00  0.00    +0.000 A 
ENDROOT
BRANCH   9  14
ATOM     14  C   UNL     1      39.153  -2.497  14.287  0.00  0.00    +0.000 A 
ATOM     15  C   UNL     1      40.501  -2.858  14.399  0.00  0.00    +0.000 A 
ATOM     16  C   UNL     1      41.286  -3.085  13.275  0.00  0.00    +0.000 A 
ATOM     17  C   UNL     1      40.727  -2.965  12.011  0.00  0.00    +0.000 A 
ATOM     18  C   UNL     1      39.375  -2.634  11.838  0.00  0.00    +0.000 A 
ATOM     19  C   UNL     1      38.612  -2.371  12.994  0.00  0.00    +0.000 A 
BRANCH  18  20
ATOM     20  C   UNL     1      38.773  -2.644  10.499  0.00  0.00    +0.000 A 
ATOM     21  C   UNL     1      39.133  -3.577   9.532  0.00  0.00    +0.000 A 
ATOM     22  N   UNL     1      38.608  -3.651   8.292  0.00  0.00    +0.000 NA
ATOM     23  C   UNL     1      37.665  -2.744   8.011  0.00  0.00    +0.000 A 
ATOM     24  N   UNL     1      37.214  -1.796   8.848  0.00  0.00    +0.000 NA
ATOM     25  C   UNL     1      37.786  -1.772  10.074  0.00  0.00    +0.000 A 
ENDBRANCH  18  20
ENDBRANCH   9  14
TORSDOF 2
ENDMDL
