MODEL 1
REMARK VINA RESULT:    -8.685      0.000      0.000
REMARK INTER + INTRA:         -13.298
REMARK INTER:                 -12.239
REMARK INTRA:                  -1.058
REMARK UNBOUND:                -1.058
REMARK  Name = 
REMARK  8 active torsions:
REMARK  status: ('A' for Active; 'I' for Inactive)
REMARK    1  A    between atoms: C_1  and  C_2
REMARK    2  A    between atoms: C_2  and  N_3
REMARK    3  A    between atoms: C_2  and  C_11
REMARK    4  A    between atoms: N_3  and  C_4
REMARK    5  A    between atoms: C_4  and  C_5
REMARK    6  A    between atoms: C_14  and  C_15
REMARK    7  A    between atoms: C_15  and  N_16
REMARK    8  A    between atoms: C_17  and  C_19
REMARK                            x       y       z     vdW  Elec       q    Type
REMARK                         _______ _______ _______ _____ _____    ______ ____
ROOT
ATOM      1  C   UNL     1      45.457   4.589  12.065  0.00  0.00    +0.000 A 
ATOM      2  C   UNL     1      45.917   5.779  11.470  0.00  0.00    +0.000 A 
ATOM      3  C   UNL     1      46.889   6.567  12.090  0.00  0.00    +0.000 A 
ATOM      4  C   UNL     1      47.466   6.153  13.294  0.00  0.00    +0.000 A 
ATOM      5  C   UNL     1      46.992   4.988  13.907  0.00  0.00    +0.000 A 
ATOM      6  C   UNL     1      45.990   4.222  13.308  0.00  0.00    +0.000 A 
ENDROOT
BRANCH   1   8
ATOM      7  C   UNL     1      43.596   4.605  10.333  0.00  0.00    +0.000 C 
ATOM      8  C   UNL     1      44.374   3.772  11.364  0.00  0.00    +0.000 C 
BRANCH   8   9
ATOM      9  N   UNL     1      44.896   2.559  10.702  0.00  0.00    +0.000 NA
ATOM     10  H   UNL     1      44.609   1.738  11.232  0.00  0.00    +0.000 HD
BRANCH   9  11
ATOM     11  C   UNL     1      44.410   2.434   9.329  0.00  0.00    +0.000 C 
BRANCH  11  12
ATOM     12  C   UNL     1      45.509   2.374   8.298  0.00  0.00    +0.000 A 
ATOM     13  C   UNL     1      45.868   3.534   7.592  0.00  0.00    +0.000 A 
ATOM     14  C   UNL     1      46.959   3.529   6.724  0.00  0.00    +0.000 A 
ATOM     15  C   UNL     1      47.700   2.364   6.547  0.00  0.00    +0.000 A 
ATOM     16  C   UNL     1      47.339   1.199   7.225  0.00  0.00    +0.000 A 
ATOM     17  C   UNL     1      46.245   1.201   8.093  0.00  0.00    +0.000 A 
ENDBRANCH  11  12
ENDBRANCH   9  11
ENDBRANCH   8   9
ENDBRANCH   1   8
BRANCH   4  18
ATOM     18  C   UNL     1      48.552   6.959  13.948  0.00  0.00    +0.000 C 
BRANCH  18  19
ATOM     19  N   UNL     1      48.310   7.088  15.359  0.00  0.00    +0.000 N 
ATOM     20  C   UNL     1      49.247   6.699  16.278  0.00  0.00    +0.000 C 
ATOM     21  O   UNL     1      50.350   6.271  15.947  0.00  0.00    +0.000 OA
ATOM     22  H   UNL     1      47.344   7.197  15.648  0.00  0.00    +0.000 HD
BRANCH  20  23
ATOM     23  C   UNL     1      48.886   6.893  17.687  0.00  0.00    +0.000 A 
ATOM     24  C   UNL     1      48.500   8.150  18.130  0.00  0.00    +0.000 A 
ATOM     25  S   UNL     1      48.033   8.180  19.769  0.00  0.00    +0.000 S 
ATOM     26  C   UNL     1      48.390   6.527  19.958  0.00  0.00    +0.000 A 
ATOM     27  N   UNL     1      48.216   5.906  21.155  0.00  0.00    +0.000 NA
ATOM     28  C   UNL     1      48.554   4.659  21.164  0.00  0.00    +0.000 A 
ATOM     29  N   UNL     1      49.051   3.977  20.085  0.00  0.00    +0.000 N 
ATOM     30  C   UNL     1      49.227   4.562  18.855  0.00  0.00    +0.000 A 
ATOM     31  O   UNL     1      49.651   3.911  17.903  0.00  0.00    +0.000 OA
ATOM     32  C   UNL     1      48.853   5.961  18.784  0.00  0.00    +0.000 A 
ATOM     33  H   UNL     1      49.302   3.002  20.158  0.00  0.00    +0.000 HD
ENDBRANCH  20  23
ENDBRANCH  18  19
ENDBRANCH   4  18
TORSDOF 7
ENDMDL
MODEL 2
REMARK VINA RESULT:    -8.566      1.319      2.166
REMARK INTER + INTRA:         -13.130
REMARK INTER:                 -11.884
REMARK INTRA:                  -1.246
REMARK UNBOUND:                -1.058
REMARK  Name = 
REMARK  8 active torsions:
REMARK  status: ('A' for Active; 'I' for Inactive)
REMARK    1  A    between atoms: C_1  and  C_2
REMARK    2  A    between atoms: C_2  and  N_3
REMARK    3  A    between atoms: C_2  and  C_11
REMARK    4  A    between atoms: N_3  and  C_4
REMARK    5  A    between atoms: C_4  and  C_5
REMARK    6  A    between atoms: C_14  and  C_15
REMARK    7  A    between atoms: C_15  and  N_16
REMARK    8  A    between atoms: C_17  and  C_19
REMARK                            x       y       z     vdW  Elec       q    Type
REMARK                         _______ _______ _______ _____ _____    ______ ____
ROOT
ATOM      1  C   UNL     1      45.434   4.565  12.123  0.00  0.00    +0.000 A 
ATOM      2  C   UNL     1      45.950   4.044  13.326  0.00  0.00    +0.000 A 
ATOM      3  C   UNL     1      46.932   4.727  14.045  0.00  0.00    +0.000 A 
ATOM      4  C   UNL     1      47.381   5.977  13.609  0.00  0.00    +0.000 A 
ATOM      5  C   UNL     1      46.898   6.486  12.399  0.00  0.00    +0.000 A 
ATOM      6  C   UNL     1      45.946   5.784  11.658  0.00  0.00    +0.000 A 
ENDROOT
BRANCH   1   8
ATOM      7  C   UNL     1      43.616   4.647  10.347  0.00  0.00    +0.000 C 
ATOM      8  C   UNL     1      44.380   3.772  11.355  0.00  0.00    +0.000 C 
BRANCH   8   9
ATOM      9  N   UNL     1      44.935   2.601  10.647  0.00  0.00    +0.000 NA
ATOM     10  H   UNL     1      44.673   1.752  11.145  0.00  0.00    +0.000 HD
BRANCH   9  11
ATOM     11  C   UNL     1      44.448   2.514   9.270  0.00  0.00    +0.000 C 
BRANCH  11  12
ATOM     12  C   UNL     1      45.547   2.419   8.242  0.00  0.00    +0.000 A 
ATOM     13  C   UNL     1      45.892   3.550   7.484  0.00  0.00    +0.000 A 
ATOM     14  C   UNL     1      46.983   3.518   6.615  0.00  0.00    +0.000 A 
ATOM     15  C   UNL     1      47.736   2.355   6.491  0.00  0.00    +0.000 A 
ATOM     16  C   UNL     1      47.389   1.217   7.221  0.00  0.00    +0.000 A 
ATOM     17  C   UNL     1      46.296   1.246   8.089  0.00  0.00    +0.000 A 
ENDBRANCH  11  12
ENDBRANCH   9  11
ENDBRANCH   8   9
ENDBRANCH   1   8
BRANCH   4  18
ATOM     18  C   UNL     1      48.397   6.752  14.399  0.00  0.00    +0.000 C 
BRANCH  18  19
ATOM     19  N   UNL     1      48.183   6.581  15.810  0.00  0.00    +0.000 N 
ATOM     20  C   UNL     1      49.193   6.163  16.635  0.00  0.00    +0.000 C 
ATOM     21  O   UNL     1      50.333   5.963  16.225  0.00  0.00    +0.000 OA
ATOM     22  H   UNL     1      47.221   6.497  16.119  0.00  0.00    +0.000 HD
BRANCH  20  23
ATOM     23  C   UNL     1      48.851   6.039  18.057  0.00  0.00    +0.000 A 
ATOM     24  C   UNL     1      49.058   4.832  18.711  0.00  0.00    +0.000 A 
ATOM     25  S   UNL     1      48.689   4.887  20.374  0.00  0.00    +0.000 S 
ATOM     26  C   UNL     1      48.182   6.507  20.264  0.00  0.00    +0.000 A 
ATOM     27  N   UNL     1      47.724   7.174  21.358  0.00  0.00    +0.000 NA
ATOM     28  C   UNL     1      47.345   8.386  21.125  0.00  0.00    +0.000 A 
ATOM     29  N   UNL     1      47.380   8.994  19.898  0.00  0.00    +0.000 N 
ATOM     30  C   UNL     1      47.849   8.362  18.771  0.00  0.00    +0.000 A 
ATOM     31  O   UNL     1      47.889   8.948  17.692  0.00  0.00    +0.000 OA
ATOM     32  C   UNL     1      48.299   7.000  18.976  0.00  0.00    +0.000 A 
ATOM     33  H   UNL     1      47.063   9.945  19.779  0.00  0.00    +0.000 HD
ENDBRANCH  20  23
ENDBRANCH  18  19
ENDBRANCH   4  18
TORSDOF 7
ENDMDL
MODEL 3
REMARK VINA RESULT:    -8.248      2.095      2.601
REMARK INTER + INTRA:         -12.681
REMARK INTER:                 -11.272
REMARK INTRA:                  -1.409
REMARK UNBOUND:                -1.058
REMARK  Name = 
REMARK  8 active torsions:
REMARK  status: ('A' for Active; 'I' for Inactive)
REMARK    1  A    between atoms: C_1  and  C_2
REMARK    2  A    between atoms: C_2  and  N_3
REMARK    3  A    between atoms: C_2  and  C_11
REMARK    4  A    between atoms: N_3  and  C_4
REMARK    5  A    between atoms: C_4  and  C_5
REMARK    6  A    between atoms: C_14  and  C_15
REMARK    7  A    between atoms: C_15  and  N_16
REMARK    8  A    between atoms: C_17  and  C_19
REMARK                            x       y       z     vdW  Elec       q    Type
REMARK                         _______ _______ _______ _____ _____    ______ ____
ROOT
ATOM      1  C   UNL     1      45.597   5.017  12.072  0.00  0.00    +0.000 A 
ATOM      2  C   UNL     1      46.428   4.894  13.201  0.00  0.00    +0.000 A 
ATOM      3  C   UNL     1      47.491   5.773  13.415  0.00  0.00    +0.000 A 
ATOM      4  C   UNL     1      47.713   6.835  12.533  0.00  0.00    +0.000 A 
ATOM      5  C   UNL     1      46.912   6.945  11.391  0.00  0.00    +0.000 A 
ATOM      6  C   UNL     1      45.875   6.040  11.155  0.00  0.00    +0.000 A 
ENDROOT
BRANCH   1   8
ATOM      7  C   UNL     1      43.290   4.625  11.077  0.00  0.00    +0.000 C 
ATOM      8  C   UNL     1      44.463   4.017  11.864  0.00  0.00    +0.000 C 
BRANCH   8   9
ATOM      9  N   UNL     1      44.897   2.776  11.190  0.00  0.00    +0.000 NA
ATOM     10  H   UNL     1      44.639   1.975  11.763  0.00  0.00    +0.000 HD
BRANCH   9  11
ATOM     11  C   UNL     1      44.289   2.631   9.868  0.00  0.00    +0.000 C 
BRANCH  11  12
ATOM     12  C   UNL     1      45.289   2.601   8.739  0.00  0.00    +0.000 A 
ATOM     13  C   UNL     1      45.650   3.797   8.096  0.00  0.00    +0.000 A 
ATOM     14  C   UNL     1      46.660   3.810   7.134  0.00  0.00    +0.000 A 
ATOM     15  C   UNL     1      47.315   2.628   6.800  0.00  0.00    +0.000 A 
ATOM     16  C   UNL     1      46.949   1.430   7.415  0.00  0.00    +0.000 A 
ATOM     17  C   UNL     1      45.936   1.414   8.377  0.00  0.00    +0.000 A 
ENDBRANCH  11  12
ENDBRANCH   9  11
ENDBRANCH   8   9
ENDBRANCH   1   8
BRANCH   4  18
ATOM     18  C   UNL     1      48.817   7.824  12.776  0.00  0.00    +0.000 C 
BRANCH  18  19
ATOM     19  N   UNL     1      49.818   7.267  13.643  0.00  0.00    +0.000 N 
ATOM     20  C   UNL     1      49.963   7.704  14.933  0.00  0.00    +0.000 C 
ATOM     21  O   UNL     1      49.219   8.550  15.424  0.00  0.00    +0.000 OA
ATOM     22  H   UNL     1      50.581   6.767  13.199  0.00  0.00    +0.000 HD
BRANCH  20  23
ATOM     23  C   UNL     1      51.012   7.048  15.721  0.00  0.00    +0.000 A 
ATOM     24  C   UNL     1      52.341   7.392  15.518  0.00  0.00    +0.000 A 
ATOM     25  S   UNL     1      53.419   6.599  16.572  0.00  0.00    +0.000 S 
ATOM     26  C   UNL     1      52.153   5.723  17.296  0.00  0.00    +0.000 A 
ATOM     27  N   UNL     1      52.399   4.833  18.295  0.00  0.00    +0.000 NA
ATOM     28  C   UNL     1      51.350   4.217  18.732  0.00  0.00    +0.000 A 
ATOM     29  N   UNL     1      50.079   4.408  18.260  0.00  0.00    +0.000 N 
ATOM     30  C   UNL     1      49.785   5.308  17.263  0.00  0.00    +0.000 A 
ATOM     31  O   UNL     1      48.628   5.471  16.884  0.00  0.00    +0.000 OA
ATOM     32  C   UNL     1      50.925   6.037  16.743  0.00  0.00    +0.000 A 
ATOM     33  H   UNL     1      49.300   3.891  18.640  0.00  0.00    +0.000 HD
ENDBRANCH  20  23
ENDBRANCH  18  19
ENDBRANCH   4  18
TORSDOF 7
ENDMDL
MODEL 4
REMARK VINA RESULT:    -8.227      1.631      2.386
REMARK INTER + INTRA:         -12.651
REMARK INTER:                 -11.514
REMARK INTRA:                  -1.138
REMARK UNBOUND:                -1.058
REMARK  Name = 
REMARK  8 active torsions:
REMARK  status: ('A' for Active; 'I' for Inactive)
REMARK    1  A    between atoms: C_1  and  C_2
REMARK    2  A    between atoms: C_2  and  N_3
REMARK    3  A    between atoms: C_2  and  C_11
REMARK    4  A    between atoms: N_3  and  C_4
REMARK    5  A    between atoms: C_4  and  C_5
REMARK    6  A    between atoms: C_14  and  C_15
REMARK    7  A    between atoms: C_15  and  N_16
REMARK    8  A    between atoms: C_17  and  C_19
REMARK                            x       y       z     vdW  Elec       q    Type
REMARK                         _______ _______ _______ _____ _____    ______ ____
ROOT
ATOM      1  C   UNL     1      45.071   4.872  11.739  0.00  0.00    +0.000 A 
ATOM      2  C   UNL     1      46.218   5.014  12.542  0.00  0.00    +0.000 A 
ATOM      3  C   UNL     1      46.684   6.274  12.920  0.00  0.00    +0.000 A 
ATOM      4  C   UNL     1      45.978   7.423  12.552  0.00  0.00    +0.000 A 
ATOM      5  C   UNL     1      44.855   7.293  11.727  0.00  0.00    +0.000 A 
ATOM      6  C   UNL     1      44.414   6.035  11.313  0.00  0.00    +0.000 A 
ENDROOT
BRANCH   1   8
ATOM      7  C   UNL     1      43.582   2.890  12.305  0.00  0.00    +0.000 C 
ATOM      8  C   UNL     1      44.614   3.475  11.326  0.00  0.00    +0.000 C 
BRANCH   8   9
ATOM      9  N   UNL     1      44.057   3.425   9.959  0.00  0.00    +0.000 NA
ATOM     10  H   UNL     1      44.405   4.219   9.425  0.00  0.00    +0.000 HD
BRANCH   9  11
ATOM     11  C   UNL     1      44.420   2.190   9.266  0.00  0.00    +0.000 C 
BRANCH  11  12
ATOM     12  C   UNL     1      45.617   2.332   8.358  0.00  0.00    +0.000 A 
ATOM     13  C   UNL     1      46.401   1.206   8.056  0.00  0.00    +0.000 A 
ATOM     14  C   UNL     1      47.436   1.289   7.126  0.00  0.00    +0.000 A 
ATOM     15  C   UNL     1      47.703   2.499   6.492  0.00  0.00    +0.000 A 
ATOM     16  C   UNL     1      46.946   3.630   6.800  0.00  0.00    +0.000 A 
ATOM     17  C   UNL     1      45.910   3.549   7.734  0.00  0.00    +0.000 A 
ENDBRANCH  11  12
ENDBRANCH   9  11
ENDBRANCH   8   9
ENDBRANCH   1   8
BRANCH   4  18
ATOM     18  C   UNL     1      46.431   8.785  12.996  0.00  0.00    +0.000 C 
BRANCH  18  19
ATOM     19  N   UNL     1      46.886   8.751  14.359  0.00  0.00    +0.000 N 
ATOM     20  C   UNL     1      48.209   8.918  14.670  0.00  0.00    +0.000 C 
ATOM     21  O   UNL     1      49.057   9.153  13.813  0.00  0.00    +0.000 OA
ATOM     22  H   UNL     1      46.266   8.319  15.036  0.00  0.00    +0.000 HD
BRANCH  20  23
ATOM     23  C   UNL     1      48.545   8.874  16.097  0.00  0.00    +0.000 A 
ATOM     24  C   UNL     1      48.626  10.055  16.821  0.00  0.00    +0.000 A 
ATOM     25  S   UNL     1      48.941   9.817  18.479  0.00  0.00    +0.000 S 
ATOM     26  C   UNL     1      49.041   8.131  18.275  0.00  0.00    +0.000 A 
ATOM     27  N   UNL     1      49.303   7.312  19.329  0.00  0.00    +0.000 NA
ATOM     28  C   UNL     1      49.380   6.059  19.025  0.00  0.00    +0.000 A 
ATOM     29  N   UNL     1      49.220   5.549  17.764  0.00  0.00    +0.000 N 
ATOM     30  C   UNL     1      48.939   6.339  16.675  0.00  0.00    +0.000 A 
ATOM     31  O   UNL     1      48.777   5.843  15.563  0.00  0.00    +0.000 OA
ATOM     32  C   UNL     1      48.831   7.756  16.960  0.00  0.00    +0.000 A 
ATOM     33  H   UNL     1      49.298   4.558  17.590  0.00  0.00    +0.000 HD
ENDBRANCH  20  23
ENDBRANCH  18  19
ENDBRANCH   4  18
TORSDOF 7
ENDMDL
MODEL 5
REMARK VINA RESULT:    -7.787      4.628      5.780
REMARK INTER + INTRA:         -12.031
REMARK INTER:                 -10.705
REMARK INTRA:                  -1.326
REMARK UNBOUND:                -1.058
REMARK  Name = 
REMARK  8 active torsions:
REMARK  status: ('A' for Active; 'I' for Inactive)
REMARK    1  A    between atoms: C_1  and  C_2
REMARK    2  A    between atoms: C_2  and  N_3
REMARK    3  A    between atoms: C_2  and  C_11
REMARK    4  A    between atoms: N_3  and  C_4
REMARK    5  A    between atoms: C_4  and  C_5
REMARK    6  A    between atoms: C_14  and  C_15
REMARK    7  A    between atoms: C_15  and  N_16
REMARK    8  A    between atoms: C_17  and  C_19
REMARK                            x       y       z     vdW  Elec       q    Type
REMARK                         _______ _______ _______ _____ _____    ______ ____
ROOT
ATOM      1  C   UNL     1      45.055   4.997  11.816  0.00  0.00    +0.000 A 
ATOM      2  C   UNL     1      46.127   5.189  12.709  0.00  0.00    +0.000 A 
ATOM      3  C   UNL     1      46.503   6.468  13.122  0.00  0.00    +0.000 A 
ATOM      4  C   UNL     1      45.777   7.585  12.697  0.00  0.00    +0.000 A 
ATOM      5  C   UNL     1      44.732   7.407  11.784  0.00  0.00    +0.000 A 
ATOM      6  C   UNL     1      44.383   6.130  11.338  0.00  0.00    +0.000 A 
ENDROOT
BRANCH   1   8
ATOM      7  C   UNL     1      43.671   2.922  12.305  0.00  0.00    +0.000 C 
ATOM      8  C   UNL     1      44.696   3.583  11.369  0.00  0.00    +0.000 C 
BRANCH   8   9
ATOM      9  N   UNL     1      44.188   3.521   9.984  0.00  0.00    +0.000 NA
ATOM     10  H   UNL     1      44.618   4.263   9.435  0.00  0.00    +0.000 HD
BRANCH   9  11
ATOM     11  C   UNL     1      44.477   2.233   9.353  0.00  0.00    +0.000 C 
BRANCH  11  12
ATOM     12  C   UNL     1      45.568   2.297   8.313  0.00  0.00    +0.000 A 
ATOM     13  C   UNL     1      45.849   3.515   7.672  0.00  0.00    +0.000 A 
ATOM     14  C   UNL     1      46.930   3.625   6.798  0.00  0.00    +0.000 A 
ATOM     15  C   UNL     1      47.738   2.519   6.551  0.00  0.00    +0.000 A 
ATOM     16  C   UNL     1      47.455   1.298   7.164  0.00  0.00    +0.000 A 
ATOM     17  C   UNL     1      46.371   1.185   8.038  0.00  0.00    +0.000 A 
ENDBRANCH  11  12
ENDBRANCH   9  11
ENDBRANCH   8   9
ENDBRANCH   1   8
BRANCH   4  18
ATOM     18  C   UNL     1      46.131   8.965  13.175  0.00  0.00    +0.000 C 
BRANCH  18  19
ATOM     19  N   UNL     1      47.498   9.277  12.859  0.00  0.00    +0.000 N 
ATOM     20  C   UNL     1      47.811  10.182  11.880  0.00  0.00    +0.000 C 
ATOM     21  O   UNL     1      46.949  10.802  11.263  0.00  0.00    +0.000 OA
ATOM     22  H   UNL     1      48.201   8.614  13.167  0.00  0.00    +0.000 HD
BRANCH  20  23
ATOM     23  C   UNL     1      49.242  10.423  11.661  0.00  0.00    +0.000 A 
ATOM     24  C   UNL     1      49.720  11.725  11.609  0.00  0.00    +0.000 A 
ATOM     25  S   UNL     1      51.412  11.823  11.434  0.00  0.00    +0.000 S 
ATOM     26  C   UNL     1      51.557  10.129  11.360  0.00  0.00    +0.000 A 
ATOM     27  N   UNL     1      52.772   9.537  11.204  0.00  0.00    +0.000 NA
ATOM     28  C   UNL     1      52.732   8.247  11.134  0.00  0.00    +0.000 A 
ATOM     29  N   UNL     1      51.589   7.496  11.205  0.00  0.00    +0.000 N 
ATOM     30  C   UNL     1      50.345   8.053  11.377  0.00  0.00    +0.000 A 
ATOM     31  O   UNL     1      49.345   7.345  11.462  0.00  0.00    +0.000 OA
ATOM     32  C   UNL     1      50.331   9.499  11.473  0.00  0.00    +0.000 A 
ATOM     33  H   UNL     1      51.624   6.489  11.138  0.00  0.00    +0.000 HD
ENDBRANCH  20  23
ENDBRANCH  18  19
ENDBRANCH   4  18
TORSDOF 7
ENDMDL
MODEL 6
REMARK VINA RESULT:    -7.477      1.490      2.221
REMARK INTER + INTRA:         -11.595
REMARK INTER:                 -10.630
REMARK INTRA:                  -0.964
REMARK UNBOUND:                -1.058
REMARK  Name = 
REMARK  8 active torsions:
REMARK  status: ('A' for Active; 'I' for Inactive)
REMARK    1  A    between atoms: C_1  and  C_2
REMARK    2  A    between atoms: C_2  and  N_3
REMARK    3  A    between atoms: C_2  and  C_11
REMARK    4  A    between atoms: N_3  and  C_4
REMARK    5  A    between atoms: C_4  and  C_5
REMARK    6  A    between atoms: C_14  and  C_15
REMARK    7  A    between atoms: C_15  and  N_16
REMARK    8  A    between atoms: C_17  and  C_19
REMARK                            x       y       z     vdW  Elec       q    Type
REMARK                         _______ _______ _______ _____ _____    ______ ____
ROOT
ATOM      1  C   UNL     1      45.677   4.766  11.988  0.00  0.00    +0.000 A 
ATOM      2  C   UNL     1      45.852   3.456  12.475  0.00  0.00    +0.000 A 
ATOM      3  C   UNL     1      46.514   3.218  13.681  0.00  0.00    +0.000 A 
ATOM      4  C   UNL     1      46.965   4.288  14.459  0.00  0.00    +0.000 A 
ATOM      5  C   UNL     1      46.824   5.590  13.966  0.00  0.00    +0.000 A 
ATOM      6  C   UNL     1      46.200   5.826  12.740  0.00  0.00    +0.000 A 
ENDROOT
BRANCH   1   8
ATOM      7  C   UNL     1      45.823   5.802   9.671  0.00  0.00    +0.000 C 
ATOM      8  C   UNL     1      44.971   4.979  10.651  0.00  0.00    +0.000 C 
BRANCH   8   9
ATOM      9  N   UNL     1      44.575   3.716   9.995  0.00  0.00    +0.000 NA
ATOM     10  H   UNL     1      43.629   3.471  10.282  0.00  0.00    +0.000 HD
BRANCH   9  11
ATOM     11  C   UNL     1      44.617   3.822   8.536  0.00  0.00    +0.000 C 
BRANCH  11  12
ATOM     12  C   UNL     1      45.689   2.976   7.896  0.00  0.00    +0.000 A 
ATOM     13  C   UNL     1      45.916   1.670   8.359  0.00  0.00    +0.000 A 
ATOM     14  C   UNL     1      46.816   0.830   7.705  0.00  0.00    +0.000 A 
ATOM     15  C   UNL     1      47.505   1.288   6.585  0.00  0.00    +0.000 A 
ATOM     16  C   UNL     1      47.305   2.591   6.129  0.00  0.00    +0.000 A 
ATOM     17  C   UNL     1      46.406   3.435   6.785  0.00  0.00    +0.000 A 
ENDBRANCH  11  12
ENDBRANCH   9  11
ENDBRANCH   8   9
ENDBRANCH   1   8
BRANCH   4  18
ATOM     18  C   UNL     1      47.629   4.053  15.786  0.00  0.00    +0.000 C 
BRANCH  18  19
ATOM     19  N   UNL     1      47.540   5.225  16.614  0.00  0.00    +0.000 N 
ATOM     20  C   UNL     1      48.657   5.784  17.174  0.00  0.00    +0.000 C 
ATOM     21  O   UNL     1      49.785   5.349  16.958  0.00  0.00    +0.000 OA
ATOM     22  H   UNL     1      46.627   5.442  16.999  0.00  0.00    +0.000 HD
BRANCH  20  23
ATOM     23  C   UNL     1      48.435   6.984  17.989  0.00  0.00    +0.000 A 
ATOM     24  C   UNL     1      48.504   8.239  17.399  0.00  0.00    +0.000 A 
ATOM     25  S   UNL     1      48.138   9.514  18.467  0.00  0.00    +0.000 S 
ATOM     26  C   UNL     1      47.935   8.439  19.770  0.00  0.00    +0.000 A 
ATOM     27  N   UNL     1      47.613   8.894  21.010  0.00  0.00    +0.000 NA
ATOM     28  C   UNL     1      47.520   7.972  21.910  0.00  0.00    +0.000 A 
ATOM     29  N   UNL     1      47.720   6.636  21.684  0.00  0.00    +0.000 N 
ATOM     30  C   UNL     1      48.031   6.134  20.443  0.00  0.00    +0.000 A 
ATOM     31  O   UNL     1      48.179   4.926  20.273  0.00  0.00    +0.000 OA
ATOM     32  C   UNL     1      48.139   7.124  19.391  0.00  0.00    +0.000 A 
ATOM     33  H   UNL     1      47.638   5.964  22.432  0.00  0.00    +0.000 HD
ENDBRANCH  20  23
ENDBRANCH  18  19
ENDBRANCH   4  18
TORSDOF 7
ENDMDL
MODEL 7
REMARK VINA RESULT:    -7.433      3.493      9.017
REMARK INTER + INTRA:         -11.533
REMARK INTER:                  -9.598
REMARK INTRA:                  -1.935
REMARK UNBOUND:                -1.058
REMARK  Name = 
REMARK  8 active torsions:
REMARK  status: ('A' for Active; 'I' for Inactive)
REMARK    1  A    between atoms: C_1  and  C_2
REMARK    2  A    between atoms: C_2  and  N_3
REMARK    3  A    between atoms: C_2  and  C_11
REMARK    4  A    between atoms: N_3  and  C_4
REMARK    5  A    between atoms: C_4  and  C_5
REMARK    6  A    between atoms: C_14  and  C_15
REMARK    7  A    between atoms: C_15  and  N_16
REMARK    8  A    between atoms: C_17  and  C_19
REMARK                            x       y       z     vdW  Elec       q    Type
REMARK                         _______ _______ _______ _____ _____    ______ ____
ROOT
ATOM      1  C   UNL     1      49.432   8.267  15.782  0.00  0.00    +0.000 A 
ATOM      2  C   UNL     1      49.971   7.385  14.827  0.00  0.00    +0.000 A 
ATOM      3  C   UNL     1      49.386   7.238  13.568  0.00  0.00    +0.000 A 
ATOM      4  C   UNL     1      48.278   8.013  13.213  0.00  0.00    +0.000 A 
ATOM      5  C   UNL     1      47.716   8.868  14.168  0.00  0.00    +0.000 A 
ATOM      6  C   UNL     1      48.277   8.984  15.442  0.00  0.00    +0.000 A 
ENDROOT
BRANCH   1   8
ATOM      7  C   UNL     1      49.090   8.805  18.244  0.00  0.00    +0.000 C 
ATOM      8  C   UNL     1      50.089   8.376  17.156  0.00  0.00    +0.000 C 
BRANCH   8   9
ATOM      9  N   UNL     1      50.755   7.129  17.583  0.00  0.00    +0.000 NA
ATOM     10  H   UNL     1      51.598   7.361  18.104  0.00  0.00    +0.000 HD
BRANCH   9  11
ATOM     11  C   UNL     1      49.886   6.307  18.425  0.00  0.00    +0.000 C 
BRANCH  11  12
ATOM     12  C   UNL     1      49.363   5.072  17.734  0.00  0.00    +0.000 A 
ATOM     13  C   UNL     1      50.101   3.879  17.786  0.00  0.00    +0.000 A 
ATOM     14  C   UNL     1      49.580   2.697  17.260  0.00  0.00    +0.000 A 
ATOM     15  C   UNL     1      48.318   2.697  16.671  0.00  0.00    +0.000 A 
ATOM     16  C   UNL     1      47.585   3.881  16.593  0.00  0.00    +0.000 A 
ATOM     17  C   UNL     1      48.106   5.066  17.118  0.00  0.00    +0.000 A 
ENDBRANCH  11  12
ENDBRANCH   9  11
ENDBRANCH   8   9
ENDBRANCH   1   8
BRANCH   4  18
ATOM     18  C   UNL     1      47.668   7.909  11.845  0.00  0.00    +0.000 C 
BRANCH  18  19
ATOM     19  N   UNL     1      46.975   6.660  11.690  0.00  0.00    +0.000 N 
ATOM     20  C   UNL     1      45.608   6.596  11.734  0.00  0.00    +0.000 C 
ATOM     21  O   UNL     1      44.911   7.599  11.856  0.00  0.00    +0.000 OA
ATOM     22  H   UNL     1      47.518   5.816  11.838  0.00  0.00    +0.000 HD
BRANCH  20  23
ATOM     23  C   UNL     1      45.020   5.264  11.551  0.00  0.00    +0.000 A 
ATOM     24  C   UNL     1      44.371   4.647  12.612  0.00  0.00    +0.000 A 
ATOM     25  S   UNL     1      43.675   3.147  12.204  0.00  0.00    +0.000 S 
ATOM     26  C   UNL     1      44.270   3.241  10.613  0.00  0.00    +0.000 A 
ATOM     27  N   UNL     1      44.031   2.246   9.716  0.00  0.00    +0.000 NA
ATOM     28  C   UNL     1      44.565   2.434   8.555  0.00  0.00    +0.000 A 
ATOM     29  N   UNL     1      45.318   3.525   8.209  0.00  0.00    +0.000 N 
ATOM     30  C   UNL     1      45.570   4.558   9.079  0.00  0.00    +0.000 A 
ATOM     31  O   UNL     1      46.229   5.533   8.724  0.00  0.00    +0.000 OA
ATOM     32  C   UNL     1      44.984   4.405  10.396  0.00  0.00    +0.000 A 
ATOM     33  H   UNL     1      45.715   3.611   7.284  0.00  0.00    +0.000 HD
ENDBRANCH  20  23
ENDBRANCH  18  19
ENDBRANCH   4  18
TORSDOF 7
ENDMDL
MODEL 8
REMARK VINA RESULT:    -7.318      1.594      1.854
REMARK INTER + INTRA:         -11.371
REMARK INTER:                 -10.504
REMARK INTRA:                  -0.867
REMARK UNBOUND:                -1.058
REMARK  Name = 
REMARK  8 active torsions:
REMARK  status: ('A' for Active; 'I' for Inactive)
REMARK    1  A    between atoms: C_1  and  C_2
REMARK    2  A    between atoms: C_2  and  N_3
REMARK    3  A    between atoms: C_2  and  C_11
REMARK    4  A    between atoms: N_3  and  C_4
REMARK    5  A    between atoms: C_4  and  C_5
REMARK    6  A    between atoms: C_14  and  C_15
REMARK    7  A    between atoms: C_15  and  N_16
REMARK    8  A    between atoms: C_17  and  C_19
REMARK                            x       y       z     vdW  Elec       q    Type
REMARK                         _______ _______ _______ _____ _____    ______ ____
ROOT
ATOM      1  C   UNL     1      45.099   5.734  12.094  0.00  0.00    +0.000 A 
ATOM      2  C   UNL     1      45.150   7.136  12.208  0.00  0.00    +0.000 A 
ATOM      3  C   UNL     1      46.169   7.767  12.924  0.00  0.00    +0.000 A 
ATOM      4  C   UNL     1      47.197   7.011  13.496  0.00  0.00    +0.000 A 
ATOM      5  C   UNL     1      47.137   5.616  13.416  0.00  0.00    +0.000 A 
ATOM      6  C   UNL     1      46.094   4.983  12.736  0.00  0.00    +0.000 A 
ENDROOT
BRANCH   1   8
ATOM      7  C   UNL     1      42.681   5.950  11.342  0.00  0.00    +0.000 C 
ATOM      8  C   UNL     1      43.952   5.086  11.325  0.00  0.00    +0.000 C 
BRANCH   8   9
ATOM      9  N   UNL     1      44.296   4.770   9.923  0.00  0.00    +0.000 NA
ATOM     10  H   UNL     1      45.201   5.180   9.700  0.00  0.00    +0.000 HD
BRANCH   9  11
ATOM     11  C   UNL     1      44.354   3.328   9.686  0.00  0.00    +0.000 C 
BRANCH  11  12
ATOM     12  C   UNL     1      45.335   2.928   8.612  0.00  0.00    +0.000 A 
ATOM     13  C   UNL     1      45.824   3.895   7.719  0.00  0.00    +0.000 A 
ATOM     14  C   UNL     1      46.820   3.574   6.798  0.00  0.00    +0.000 A 
ATOM     15  C   UNL     1      47.334   2.281   6.755  0.00  0.00    +0.000 A 
ATOM     16  C   UNL     1      46.840   1.305   7.621  0.00  0.00    +0.000 A 
ATOM     17  C   UNL     1      45.840   1.625   8.543  0.00  0.00    +0.000 A 
ENDBRANCH  11  12
ENDBRANCH   9  11
ENDBRANCH   8   9
ENDBRANCH   1   8
BRANCH   4  18
ATOM     18  C   UNL     1      48.332   7.675  14.223  0.00  0.00    +0.000 C 
BRANCH  18  19
ATOM     19  N   UNL     1      48.233   7.447  15.638  0.00  0.00    +0.000 N 
ATOM     20  C   UNL     1      49.165   6.695  16.302  0.00  0.00    +0.000 C 
ATOM     21  O   UNL     1      50.149   6.226  15.737  0.00  0.00    +0.000 OA
ATOM     22  H   UNL     1      47.326   7.604  16.063  0.00  0.00    +0.000 HD
BRANCH  20  23
ATOM     23  C   UNL     1      48.959   6.545  17.747  0.00  0.00    +0.000 A 
ATOM     24  C   UNL     1      47.742   6.078  18.223  0.00  0.00    +0.000 A 
ATOM     25  S   UNL     1      47.703   5.884  19.916  0.00  0.00    +0.000 S 
ATOM     26  C   UNL     1      49.290   6.475  20.076  0.00  0.00    +0.000 A 
ATOM     27  N   UNL     1      49.879   6.579  21.298  0.00  0.00    +0.000 NA
ATOM     28  C   UNL     1      51.073   7.071  21.275  0.00  0.00    +0.000 A 
ATOM     29  N   UNL     1      51.733   7.469  20.143  0.00  0.00    +0.000 N 
ATOM     30  C   UNL     1      51.181   7.366  18.889  0.00  0.00    +0.000 A 
ATOM     31  O   UNL     1      51.813   7.710  17.893  0.00  0.00    +0.000 OA
ATOM     32  C   UNL     1      49.843   6.810  18.853  0.00  0.00    +0.000 A 
ATOM     33  H   UNL     1      52.666   7.852  20.192  0.00  0.00    +0.000 HD
ENDBRANCH  20  23
ENDBRANCH  18  19
ENDBRANCH   4  18
TORSDOF 7
ENDMDL
MODEL 9
REMARK VINA RESULT:    -6.831      3.718      8.313
REMARK INTER + INTRA:         -10.684
REMARK INTER:                  -8.285
REMARK INTRA:                  -2.399
REMARK UNBOUND:                -1.058
REMARK  Name = 
REMARK  8 active torsions:
REMARK  status: ('A' for Active; 'I' for Inactive)
REMARK    1  A    between atoms: C_1  and  C_2
REMARK    2  A    between atoms: C_2  and  N_3
REMARK    3  A    between atoms: C_2  and  C_11
REMARK    4  A    between atoms: N_3  and  C_4
REMARK    5  A    between atoms: C_4  and  C_5
REMARK    6  A    between atoms: C_14  and  C_15
REMARK    7  A    between atoms: C_15  and  N_16
REMARK    8  A    between atoms: C_17  and  C_19
REMARK                            x       y       z     vdW  Elec       q    Type
REMARK                         _______ _______ _______ _____ _____    ______ ____
ROOT
ATOM      1  C   UNL     1      50.942   7.350  17.290  0.00  0.00    +0.000 A 
ATOM      2  C   UNL     1      50.923   7.035  15.918  0.00  0.00    +0.000 A 
ATOM      3  C   UNL     1      49.989   7.613  15.057  0.00  0.00    +0.000 A 
ATOM      4  C   UNL     1      49.086   8.566  15.538  0.00  0.00    +0.000 A 
ATOM      5  C   UNL     1      49.076   8.860  16.906  0.00  0.00    +0.000 A 
ATOM      6  C   UNL     1      49.984   8.250  17.775  0.00  0.00    +0.000 A 
ENDROOT
BRANCH   1   8
ATOM      7  C   UNL     1      51.714   6.983  19.685  0.00  0.00    +0.000 C 
ATOM      8  C   UNL     1      51.965   6.673  18.200  0.00  0.00    +0.000 C 
BRANCH   8   9
ATOM      9  N   UNL     1      52.023   5.208  18.020  0.00  0.00    +0.000 NA
ATOM     10  H   UNL     1      52.967   4.883  18.221  0.00  0.00    +0.000 HD
BRANCH   9  11
ATOM     11  C   UNL     1      51.084   4.512  18.900  0.00  0.00    +0.000 C 
BRANCH  11  12
ATOM     12  C   UNL     1      49.857   3.996  18.191  0.00  0.00    +0.000 A 
ATOM     13  C   UNL     1      48.675   4.754  18.200  0.00  0.00    +0.000 A 
ATOM     14  C   UNL     1      47.568   4.355  17.453  0.00  0.00    +0.000 A 
ATOM     15  C   UNL     1      47.628   3.190  16.692  0.00  0.00    +0.000 A 
ATOM     16  C   UNL     1      48.788   2.416  16.693  0.00  0.00    +0.000 A 
ATOM     17  C   UNL     1      49.898   2.813  17.444  0.00  0.00    +0.000 A 
ENDBRANCH  11  12
ENDBRANCH   9  11
ENDBRANCH   8   9
ENDBRANCH   1   8
BRANCH   4  18
ATOM     18  C   UNL     1      48.109   9.240  14.617  0.00  0.00    +0.000 C 
BRANCH  18  19
ATOM     19  N   UNL     1      47.136   8.301  14.132  0.00  0.00    +0.000 N 
ATOM     20  C   UNL     1      46.921   8.132  12.790  0.00  0.00    +0.000 C 
ATOM     21  O   UNL     1      47.578   8.730  11.942  0.00  0.00    +0.000 OA
ATOM     22  H   UNL     1      46.430   7.994  14.792  0.00  0.00    +0.000 HD
BRANCH  20  23
ATOM     23  C   UNL     1      45.910   7.135  12.422  0.00  0.00    +0.000 A 
ATOM     24  C   UNL     1      44.751   7.538  11.773  0.00  0.00    +0.000 A 
ATOM     25  S   UNL     1      43.726   6.247  11.344  0.00  0.00    +0.000 S 
ATOM     26  C   UNL     1      44.766   5.109  12.064  0.00  0.00    +0.000 A 
ATOM     27  N   UNL     1      44.466   3.782  12.056  0.00  0.00    +0.000 NA
ATOM     28  C   UNL     1      45.328   3.036  12.664  0.00  0.00    +0.000 A 
ATOM     29  N   UNL     1      46.462   3.495  13.279  0.00  0.00    +0.000 N 
ATOM     30  C   UNL     1      46.810   4.825  13.296  0.00  0.00    +0.000 A 
ATOM     31  O   UNL     1      47.850   5.196  13.836  0.00  0.00    +0.000 OA
ATOM     32  C   UNL     1      45.883   5.708  12.619  0.00  0.00    +0.000 A 
ATOM     33  H   UNL     1      47.096   2.861  13.743  0.00  0.00    +0.000 HD
ENDBRANCH  20  23
ENDBRANCH  18  19
ENDBRANCH   4  18
TORSDOF 7
ENDMDL
