MODEL 1
REMARK VINA RESULT:    -8.062      0.000      0.000
REMARK INTER + INTRA:         -12.323
REMARK INTER:                 -11.361
REMARK INTRA:                  -0.962
REMARK UNBOUND:                -0.962
REMARK  Name = 
REMARK  9 active torsions:
REMARK  status: ('A' for Active; 'I' for Inactive)
REMARK    1  A    between atoms: C_1  and  O_2
REMARK    2  A    between atoms: O_2  and  C_3
REMARK    3  A    between atoms: C_5  and  C_6
REMARK    4  A    between atoms: C_6  and  C_7
REMARK    5  A    between atoms: C_7  and  N_8
REMARK    6  A    between atoms: C_12  and  C_13
REMARK    7  A    between atoms: C_21  and  N_22
REMARK    8  A    between atoms: N_22  and  C_23
REMARK    9  A    between atoms: N_25  and  C_26
REMARK                            x       y       z     vdW  Elec       q    Type
REMARK                         _______ _______ _______ _____ _____    ______ ____
ROOT
ATOM      1  C   UNL     1      46.734   5.377  13.893  0.00  0.00    +0.000 A 
ATOM      2  C   UNL     1      45.527   4.791  13.459  0.00  0.00    +0.000 A 
ATOM      3  C   UNL     1      44.564   5.551  12.782  0.00  0.00    +0.000 A 
ATOM      4  C   UNL     1      44.857   6.907  12.559  0.00  0.00    +0.000 A 
ATOM      5  C   UNL     1      46.039   7.510  13.004  0.00  0.00    +0.000 A 
ATOM      6 CL   UNL     1      46.098   9.224  12.772  0.00  0.00    +0.000 Cl
ATOM      7  C   UNL     1      47.022   6.754  13.654  0.00  0.00    +0.000 A 
ENDROOT
BRANCH   1   9
ATOM      8  C   UNL     1      47.378   4.057  15.789  0.00  0.00    +0.000 C 
ATOM      9  O   UNL     1      47.728   4.698  14.570  0.00  0.00    +0.000 OA
ENDBRANCH   1   9
BRANCH   7  10
ATOM     10  N   UNL     1      48.244   7.276  14.181  0.00  0.00    +0.000 N 
ATOM     11  H   UNL     1      48.417   6.823  15.083  0.00  0.00    +0.000 HD
BRANCH  10  12
ATOM     12  C   UNL     1      49.473   7.556  13.474  0.00  0.00    +0.000 C 
ATOM     13  C   UNL     1      49.674   9.036  13.097  0.00  0.00    +0.000 C 
ATOM     14  N   UNL     1      49.707   8.683  11.663  0.00  0.00    +0.000 NA
ATOM     15  C   UNL     1      51.073   8.769  11.146  0.00  0.00    +0.000 C 
ATOM     16  C   UNL     1      49.363   7.281  11.963  0.00  0.00    +0.000 C 
ENDBRANCH  10  12
ENDBRANCH   7  10
BRANCH   3  17
ATOM     17  C   UNL     1      43.232   4.933  12.351  0.00  0.00    +0.000 C 
BRANCH  17  18
ATOM     18  C   UNL     1      43.304   4.312  10.950  0.00  0.00    +0.000 C 
BRANCH  18  19
ATOM     19  N   UNL     1      44.084   5.055   9.957  0.00  0.00    +0.000 N 
ATOM     20  C   UNL     1      44.884   4.141   9.214  0.00  0.00    +0.000 A 
ATOM     21  C   UNL     1      45.732   4.624   8.225  0.00  0.00    +0.000 A 
ATOM     22  C   UNL     1      46.524   3.722   7.501  0.00  0.00    +0.000 A 
ATOM     23  C   UNL     1      46.459   2.353   7.776  0.00  0.00    +0.000 A 
ATOM     24  C   UNL     1      45.578   1.959   8.764  0.00  0.00    +0.000 A 
ATOM     25  N   UNL     1      44.801   2.815   9.468  0.00  0.00    +0.000 NA
ATOM     26  H   UNL     1      44.710   5.733  10.384  0.00  0.00    +0.000 HD
BRANCH  23  27
ATOM     27  C   UNL     1      47.314   1.402   7.026  0.00  0.00    +0.000 C 
ATOM     28  N   UNL     1      48.473   1.852   6.455  0.00  0.00    +0.000 N 
ATOM     29  O   UNL     1      46.991   0.223   6.910  0.00  0.00    +0.000 OA
ATOM     30  H   UNL     1      48.825   2.794   6.481  0.00  0.00    +0.000 HD
ATOM     31  H   UNL     1      49.018   1.167   5.946  0.00  0.00    +0.000 HD
ENDBRANCH  23  27
ENDBRANCH  18  19
ENDBRANCH  17  18
ENDBRANCH   3  17
TORSDOF 7
ENDMDL
MODEL 2
REMARK VINA RESULT:    -7.893      1.403      1.731
REMARK INTER + INTRA:         -12.085
REMARK INTER:                 -11.423
REMARK INTRA:                  -0.663
REMARK UNBOUND:                -0.962
REMARK  Name = 
REMARK  9 active torsions:
REMARK  status: ('A' for Active; 'I' for Inactive)
REMARK    1  A    between atoms: C_1  and  O_2
REMARK    2  A    between atoms: O_2  and  C_3
REMARK    3  A    between atoms: C_5  and  C_6
REMARK    4  A    between atoms: C_6  and  C_7
REMARK    5  A    between atoms: C_7  and  N_8
REMARK    6  A    between atoms: C_12  and  C_13
REMARK    7  A    between atoms: C_21  and  N_22
REMARK    8  A    between atoms: N_22  and  C_23
REMARK    9  A    between atoms: N_25  and  C_26
REMARK                            x       y       z     vdW  Elec       q    Type
REMARK                         _______ _______ _______ _____ _____    ______ ____
ROOT
ATOM      1  C   UNL     1      46.826   4.972  13.889  0.00  0.00    +0.000 A 
ATOM      2  C   UNL     1      45.568   4.463  13.501  0.00  0.00    +0.000 A 
ATOM      3  C   UNL     1      44.658   5.264  12.799  0.00  0.00    +0.000 A 
ATOM      4  C   UNL     1      45.054   6.579  12.503  0.00  0.00    +0.000 A 
ATOM      5  C   UNL     1      46.287   7.107  12.901  0.00  0.00    +0.000 A 
ATOM      6 CL   UNL     1      46.479   8.797  12.581  0.00  0.00    +0.000 Cl
ATOM      7  C   UNL     1      47.218   6.307  13.576  0.00  0.00    +0.000 A 
ENDROOT
BRANCH   1   9
ATOM      8  C   UNL     1      47.456   3.852  15.914  0.00  0.00    +0.000 C 
ATOM      9  O   UNL     1      47.774   4.250  14.587  0.00  0.00    +0.000 OA
ENDBRANCH   1   9
BRANCH   7  10
ATOM     10  N   UNL     1      48.487   6.755  14.060  0.00  0.00    +0.000 N 
ATOM     11  H   UNL     1      48.956   7.254  13.298  0.00  0.00    +0.000 HD
BRANCH  10  12
ATOM     12  C   UNL     1      48.799   7.323  15.351  0.00  0.00    +0.000 C 
ATOM     13  C   UNL     1      48.642   8.853  15.435  0.00  0.00    +0.000 C 
ATOM     14  N   UNL     1      50.075   8.998  15.764  0.00  0.00    +0.000 NA
ATOM     15  C   UNL     1      50.245   9.328  17.179  0.00  0.00    +0.000 C 
ATOM     16  C   UNL     1      50.309   7.559  15.544  0.00  0.00    +0.000 C 
ENDBRANCH  10  12
ENDBRANCH   7  10
BRANCH   3  17
ATOM     17  C   UNL     1      43.273   4.735  12.416  0.00  0.00    +0.000 C 
BRANCH  17  18
ATOM     18  C   UNL     1      43.231   4.200  10.978  0.00  0.00    +0.000 C 
BRANCH  18  19
ATOM     19  N   UNL     1      43.984   4.969   9.984  0.00  0.00    +0.000 N 
ATOM     20  C   UNL     1      44.810   4.082   9.238  0.00  0.00    +0.000 A 
ATOM     21  C   UNL     1      45.640   4.593   8.248  0.00  0.00    +0.000 A 
ATOM     22  C   UNL     1      46.458   3.718   7.521  0.00  0.00    +0.000 A 
ATOM     23  C   UNL     1      46.438   2.347   7.794  0.00  0.00    +0.000 A 
ATOM     24  C   UNL     1      45.573   1.924   8.784  0.00  0.00    +0.000 A 
ATOM     25  N   UNL     1      44.771   2.754   9.491  0.00  0.00    +0.000 NA
ATOM     26  H   UNL     1      44.589   5.666  10.411  0.00  0.00    +0.000 HD
BRANCH  23  27
ATOM     27  C   UNL     1      47.322   1.425   7.041  0.00  0.00    +0.000 C 
ATOM     28  N   UNL     1      48.445   1.920   6.436  0.00  0.00    +0.000 N 
ATOM     29  O   UNL     1      47.053   0.230   6.952  0.00  0.00    +0.000 OA
ATOM     30  H   UNL     1      48.752   2.878   6.438  0.00  0.00    +0.000 HD
ATOM     31  H   UNL     1      49.011   1.253   5.926  0.00  0.00    +0.000 HD
ENDBRANCH  23  27
ENDBRANCH  18  19
ENDBRANCH  17  18
ENDBRANCH   3  17
TORSDOF 7
ENDMDL
MODEL 3
REMARK VINA RESULT:    -7.803      2.156      2.985
REMARK INTER + INTRA:         -11.959
REMARK INTER:                 -11.133
REMARK INTRA:                  -0.826
REMARK UNBOUND:                -0.962
REMARK  Name = 
REMARK  9 active torsions:
REMARK  status: ('A' for Active; 'I' for Inactive)
REMARK    1  A    between atoms: C_1  and  O_2
REMARK    2  A    between atoms: O_2  and  C_3
REMARK    3  A    between atoms: C_5  and  C_6
REMARK    4  A    between atoms: C_6  and  C_7
REMARK    5  A    between atoms: C_7  and  N_8
REMARK    6  A    between atoms: C_12  and  C_13
REMARK    7  A    between atoms: C_21  and  N_22
REMARK    8  A    between atoms: N_22  and  C_23
REMARK    9  A    between atoms: N_25  and  C_26
REMARK                            x       y       z     vdW  Elec       q    Type
REMARK                         _______ _______ _______ _____ _____    ______ ____
ROOT
ATOM      1  C   UNL     1      46.316   7.189  12.910  0.00  0.00    +0.000 A 
ATOM      2  C   UNL     1      45.003   6.900  12.484  0.00  0.00    +0.000 A 
ATOM      3  C   UNL     1      44.431   5.645  12.731  0.00  0.00    +0.000 A 
ATOM      4  C   UNL     1      45.218   4.703  13.414  0.00  0.00    +0.000 A 
ATOM      5  C   UNL     1      46.530   4.965  13.822  0.00  0.00    +0.000 A 
ATOM      6 CL   UNL     1      47.360   3.599  14.484  0.00  0.00    +0.000 Cl
ATOM      7  C   UNL     1      47.103   6.226  13.609  0.00  0.00    +0.000 A 
ENDROOT
BRANCH   1   9
ATOM      8  C   UNL     1      46.152   9.508  12.319  0.00  0.00    +0.000 C 
ATOM      9  O   UNL     1      46.953   8.397  12.700  0.00  0.00    +0.000 OA
ENDBRANCH   1   9
BRANCH   7  10
ATOM     10  N   UNL     1      48.443   6.587  13.950  0.00  0.00    +0.000 N 
ATOM     11  H   UNL     1      48.870   7.025  13.129  0.00  0.00    +0.000 HD
BRANCH  10  12
ATOM     12  C   UNL     1      48.925   7.167  15.183  0.00  0.00    +0.000 C 
ATOM     13  C   UNL     1      50.456   7.306  15.273  0.00  0.00    +0.000 C 
ATOM     14  N   UNL     1      50.483   6.420  16.454  0.00  0.00    +0.000 NA
ATOM     15  C   UNL     1      50.731   7.194  17.670  0.00  0.00    +0.000 C 
ATOM     16  C   UNL     1      49.043   6.133  16.318  0.00  0.00    +0.000 C 
ENDBRANCH  10  12
ENDBRANCH   7  10
BRANCH   3  17
ATOM     17  C   UNL     1      43.025   5.307  12.230  0.00  0.00    +0.000 C 
BRANCH  17  18
ATOM     18  C   UNL     1      43.049   4.480  10.937  0.00  0.00    +0.000 C 
BRANCH  18  19
ATOM     19  N   UNL     1      43.794   5.061   9.816  0.00  0.00    +0.000 N 
ATOM     20  C   UNL     1      44.587   4.046   9.209  0.00  0.00    +0.000 A 
ATOM     21  C   UNL     1      45.404   4.372   8.133  0.00  0.00    +0.000 A 
ATOM     22  C   UNL     1      46.189   3.373   7.543  0.00  0.00    +0.000 A 
ATOM     23  C   UNL     1      46.151   2.065   8.037  0.00  0.00    +0.000 A 
ATOM     24  C   UNL     1      45.301   1.828   9.099  0.00  0.00    +0.000 A 
ATOM     25  N   UNL     1      44.530   2.779   9.676  0.00  0.00    +0.000 NA
ATOM     26  H   UNL     1      44.420   5.805  10.111  0.00  0.00    +0.000 HD
BRANCH  23  27
ATOM     27  C   UNL     1      47.001   1.015   7.426  0.00  0.00    +0.000 C 
ATOM     28  N   UNL     1      46.659  -0.299   7.588  0.00  0.00    +0.000 N 
ATOM     29  O   UNL     1      48.005   1.314   6.785  0.00  0.00    +0.000 OA
ATOM     30  H   UNL     1      45.868  -0.653   8.099  0.00  0.00    +0.000 HD
ATOM     31  H   UNL     1      47.276  -0.979   7.160  0.00  0.00    +0.000 HD
ENDBRANCH  23  27
ENDBRANCH  18  19
ENDBRANCH  17  18
ENDBRANCH   3  17
TORSDOF 7
ENDMDL
MODEL 4
REMARK VINA RESULT:    -7.431      1.509      2.169
REMARK INTER + INTRA:         -11.434
REMARK INTER:                 -10.514
REMARK INTRA:                  -0.920
REMARK UNBOUND:                -0.962
REMARK  Name = 
REMARK  9 active torsions:
REMARK  status: ('A' for Active; 'I' for Inactive)
REMARK    1  A    between atoms: C_1  and  O_2
REMARK    2  A    between atoms: O_2  and  C_3
REMARK    3  A    between atoms: C_5  and  C_6
REMARK    4  A    between atoms: C_6  and  C_7
REMARK    5  A    between atoms: C_7  and  N_8
REMARK    6  A    between atoms: C_12  and  C_13
REMARK    7  A    between atoms: C_21  and  N_22
REMARK    8  A    between atoms: N_22  and  C_23
REMARK    9  A    between atoms: N_25  and  C_26
REMARK                            x       y       z     vdW  Elec       q    Type
REMARK                         _______ _______ _______ _____ _____    ______ ____
ROOT
ATOM      1  C   UNL     1      45.910   7.461  12.930  0.00  0.00    +0.000 A 
ATOM      2  C   UNL     1      44.691   6.943  12.445  0.00  0.00    +0.000 A 
ATOM      3  C   UNL     1      44.352   5.598  12.648  0.00  0.00    +0.000 A 
ATOM      4  C   UNL     1      45.273   4.804  13.351  0.00  0.00    +0.000 A 
ATOM      5  C   UNL     1      46.497   5.295  13.819  0.00  0.00    +0.000 A 
ATOM      6 CL   UNL     1      47.539   4.091  14.495  0.00  0.00    +0.000 Cl
ATOM      7  C   UNL     1      46.833   6.644  13.649  0.00  0.00    +0.000 A 
ENDROOT
BRANCH   1   9
ATOM      8  C   UNL     1      45.407   9.674  12.157  0.00  0.00    +0.000 C 
ATOM      9  O   UNL     1      46.318   8.770  12.766  0.00  0.00    +0.000 OA
ENDBRANCH   1   9
BRANCH   7  10
ATOM     10  N   UNL     1      48.068   7.239  14.052  0.00  0.00    +0.000 N 
ATOM     11  H   UNL     1      48.168   7.104  15.063  0.00  0.00    +0.000 HD
BRANCH  10  12
ATOM     12  C   UNL     1      49.343   7.196  13.374  0.00  0.00    +0.000 C 
ATOM     13  C   UNL     1      49.972   8.574  13.098  0.00  0.00    +0.000 C 
ATOM     14  N   UNL     1      49.939   8.316  11.644  0.00  0.00    +0.000 NA
ATOM     15  C   UNL     1      51.284   8.036  11.143  0.00  0.00    +0.000 C 
ATOM     16  C   UNL     1      49.197   7.058  11.847  0.00  0.00    +0.000 C 
ENDBRANCH  10  12
ENDBRANCH   7  10
BRANCH   3  17
ATOM     17  C   UNL     1      43.054   5.018  12.082  0.00  0.00    +0.000 C 
BRANCH  17  18
ATOM     18  C   UNL     1      43.266   4.328  10.728  0.00  0.00    +0.000 C 
BRANCH  18  19
ATOM     19  N   UNL     1      44.074   5.063   9.751  0.00  0.00    +0.000 N 
ATOM     20  C   UNL     1      44.895   4.142   9.040  0.00  0.00    +0.000 A 
ATOM     21  C   UNL     1      45.771   4.618   8.072  0.00  0.00    +0.000 A 
ATOM     22  C   UNL     1      46.584   3.710   7.379  0.00  0.00    +0.000 A 
ATOM     23  C   UNL     1      46.512   2.343   7.665  0.00  0.00    +0.000 A 
ATOM     24  C   UNL     1      45.603   1.957   8.630  0.00  0.00    +0.000 A 
ATOM     25  N   UNL     1      44.806   2.819   9.304  0.00  0.00    +0.000 NA
ATOM     26  H   UNL     1      44.687   5.745  10.190  0.00  0.00    +0.000 HD
BRANCH  23  27
ATOM     27  C   UNL     1      47.390   1.387   6.948  0.00  0.00    +0.000 C 
ATOM     28  N   UNL     1      48.503   1.853   6.306  0.00  0.00    +0.000 N 
ATOM     29  O   UNL     1      47.124   0.188   6.924  0.00  0.00    +0.000 OA
ATOM     30  H   UNL     1      48.807   2.811   6.255  0.00  0.00    +0.000 HD
ATOM     31  H   UNL     1      49.065   1.163   5.823  0.00  0.00    +0.000 HD
ENDBRANCH  23  27
ENDBRANCH  18  19
ENDBRANCH  17  18
ENDBRANCH   3  17
TORSDOF 7
ENDMDL
MODEL 5
REMARK VINA RESULT:    -6.505      2.374      3.390
REMARK INTER + INTRA:         -10.130
REMARK INTER:                  -9.231
REMARK INTRA:                  -0.899
REMARK UNBOUND:                -0.962
REMARK  Name = 
REMARK  9 active torsions:
REMARK  status: ('A' for Active; 'I' for Inactive)
REMARK    1  A    between atoms: C_1  and  O_2
REMARK    2  A    between atoms: O_2  and  C_3
REMARK    3  A    between atoms: C_5  and  C_6
REMARK    4  A    between atoms: C_6  and  C_7
REMARK    5  A    between atoms: C_7  and  N_8
REMARK    6  A    between atoms: C_12  and  C_13
REMARK    7  A    between atoms: C_21  and  N_22
REMARK    8  A    between atoms: N_22  and  C_23
REMARK    9  A    between atoms: N_25  and  C_26
REMARK                            x       y       z     vdW  Elec       q    Type
REMARK                         _______ _______ _______ _____ _____    ______ ____
ROOT
ATOM      1  C   UNL     1      45.958   9.466  12.153  0.00  0.00    +0.000 A 
ATOM      2  C   UNL     1      44.976   8.458  12.250  0.00  0.00    +0.000 A 
ATOM      3  C   UNL     1      45.340   7.106  12.293  0.00  0.00    +0.000 A 
ATOM      4  C   UNL     1      46.712   6.808  12.237  0.00  0.00    +0.000 A 
ATOM      5  C   UNL     1      47.697   7.793  12.116  0.00  0.00    +0.000 A 
ATOM      6 CL   UNL     1      49.299   7.179  11.886  0.00  0.00    +0.000 Cl
ATOM      7  C   UNL     1      47.348   9.150  12.104  0.00  0.00    +0.000 A 
ENDROOT
BRANCH   1   9
ATOM      8  C   UNL     1      44.998  11.307  10.953  0.00  0.00    +0.000 C 
ATOM      9  O   UNL     1      45.681  10.818  12.100  0.00  0.00    +0.000 OA
ENDBRANCH   1   9
BRANCH   7  10
ATOM     10  N   UNL     1      48.268  10.233  11.947  0.00  0.00    +0.000 N 
ATOM     11  H   UNL     1      47.847  10.914  11.309  0.00  0.00    +0.000 HD
BRANCH  10  12
ATOM     12  C   UNL     1      49.077  10.870  12.961  0.00  0.00    +0.000 C 
ATOM     13  C   UNL     1      50.522  10.348  13.053  0.00  0.00    +0.000 C 
ATOM     14  N   UNL     1      50.295   9.918  14.448  0.00  0.00    +0.000 NA
ATOM     15  C   UNL     1      50.974  10.819  15.379  0.00  0.00    +0.000 C 
ATOM     16  C   UNL     1      48.864  10.261  14.359  0.00  0.00    +0.000 C 
ENDBRANCH  10  12
ENDBRANCH   7  10
BRANCH   3  17
ATOM     17  C   UNL     1      44.278   6.004  12.349  0.00  0.00    +0.000 C 
BRANCH  17  18
ATOM     18  C   UNL     1      43.927   5.462  10.957  0.00  0.00    +0.000 C 
BRANCH  18  19
ATOM     19  N   UNL     1      43.885   4.003  10.828  0.00  0.00    +0.000 N 
ATOM     20  C   UNL     1      44.746   3.604   9.766  0.00  0.00    +0.000 A 
ATOM     21  C   UNL     1      44.849   2.258   9.441  0.00  0.00    +0.000 A 
ATOM     22  C   UNL     1      45.691   1.870   8.390  0.00  0.00    +0.000 A 
ATOM     23  C   UNL     1      46.415   2.831   7.678  0.00  0.00    +0.000 A 
ATOM     24  C   UNL     1      46.264   4.144   8.079  0.00  0.00    +0.000 A 
ATOM     25  N   UNL     1      45.461   4.536   9.096  0.00  0.00    +0.000 NA
ATOM     26  H   UNL     1      42.952   3.660  10.612  0.00  0.00    +0.000 HD
BRANCH  23  27
ATOM     27  C   UNL     1      47.287   2.421   6.551  0.00  0.00    +0.000 C 
ATOM     28  N   UNL     1      47.186   3.077   5.356  0.00  0.00    +0.000 N 
ATOM     29  O   UNL     1      48.090   1.502   6.682  0.00  0.00    +0.000 OA
ATOM     30  H   UNL     1      46.559   3.833   5.139  0.00  0.00    +0.000 HD
ATOM     31  H   UNL     1      47.796   2.754   4.614  0.00  0.00    +0.000 HD
ENDBRANCH  23  27
ENDBRANCH  18  19
ENDBRANCH  17  18
ENDBRANCH   3  17
TORSDOF 7
ENDMDL
MODEL 6
REMARK VINA RESULT:    -6.082      2.895      8.137
REMARK INTER + INTRA:          -9.533
REMARK INTER:                  -8.499
REMARK INTRA:                  -1.034
REMARK UNBOUND:                -0.962
REMARK  Name = 
REMARK  9 active torsions:
REMARK  status: ('A' for Active; 'I' for Inactive)
REMARK    1  A    between atoms: C_1  and  O_2
REMARK    2  A    between atoms: O_2  and  C_3
REMARK    3  A    between atoms: C_5  and  C_6
REMARK    4  A    between atoms: C_6  and  C_7
REMARK    5  A    between atoms: C_7  and  N_8
REMARK    6  A    between atoms: C_12  and  C_13
REMARK    7  A    between atoms: C_21  and  N_22
REMARK    8  A    between atoms: N_22  and  C_23
REMARK    9  A    between atoms: N_25  and  C_26
REMARK                            x       y       z     vdW  Elec       q    Type
REMARK                         _______ _______ _______ _____ _____    ______ ____
ROOT
ATOM      1  C   UNL     1      46.072   5.743  13.305  0.00  0.00    +0.000 A 
ATOM      2  C   UNL     1      47.253   6.451  13.607  0.00  0.00    +0.000 A 
ATOM      3  C   UNL     1      47.431   7.768  13.165  0.00  0.00    +0.000 A 
ATOM      4  C   UNL     1      46.388   8.342  12.419  0.00  0.00    +0.000 A 
ATOM      5  C   UNL     1      45.220   7.646  12.090  0.00  0.00    +0.000 A 
ATOM      6 CL   UNL     1      44.161   8.494  11.016  0.00  0.00    +0.000 Cl
ATOM      7  C   UNL     1      45.017   6.339  12.551  0.00  0.00    +0.000 A 
ENDROOT
BRANCH   1   9
ATOM      8  C   UNL     1      46.917   3.534  13.706  0.00  0.00    +0.000 C 
ATOM      9  O   UNL     1      45.823   4.441  13.697  0.00  0.00    +0.000 OA
ENDBRANCH   1   9
BRANCH   7  10
ATOM     10  N   UNL     1      43.882   5.527  12.243  0.00  0.00    +0.000 N 
ATOM     11  H   UNL     1      43.041   6.047  12.511  0.00  0.00    +0.000 HD
BRANCH  10  12
ATOM     12  C   UNL     1      43.661   4.709  11.073  0.00  0.00    +0.000 C 
ATOM     13  C   UNL     1      43.722   3.192  11.328  0.00  0.00    +0.000 C 
ATOM     14  N   UNL     1      44.854   3.063  10.388  0.00  0.00    +0.000 NA
ATOM     15  C   UNL     1      44.414   2.442   9.139  0.00  0.00    +0.000 C 
ATOM     16  C   UNL     1      44.936   4.527  10.229  0.00  0.00    +0.000 C 
ENDBRANCH  10  12
ENDBRANCH   7  10
BRANCH   3  17
ATOM     17  C   UNL     1      48.731   8.526  13.448  0.00  0.00    +0.000 C 
BRANCH  17  18
ATOM     18  C   UNL     1      49.438   8.017  14.712  0.00  0.00    +0.000 C 
BRANCH  18  19
ATOM     19  N   UNL     1      48.954   8.561  15.983  0.00  0.00    +0.000 N 
ATOM     20  C   UNL     1      48.888   7.512  16.943  0.00  0.00    +0.000 A 
ATOM     21  C   UNL     1      48.428   7.788  18.225  0.00  0.00    +0.000 A 
ATOM     22  C   UNL     1      48.358   6.751  19.166  0.00  0.00    +0.000 A 
ATOM     23  C   UNL     1      48.744   5.455  18.812  0.00  0.00    +0.000 A 
ATOM     24  C   UNL     1      49.202   5.273  17.522  0.00  0.00    +0.000 A 
ATOM     25  N   UNL     1      49.284   6.264  16.604  0.00  0.00    +0.000 NA
ATOM     26  H   UNL     1      48.023   8.962  15.903  0.00  0.00    +0.000 HD
BRANCH  23  27
ATOM     27  C   UNL     1      48.646   4.355  19.801  0.00  0.00    +0.000 C 
ATOM     28  N   UNL     1      48.387   3.085  19.365  0.00  0.00    +0.000 N 
ATOM     29  O   UNL     1      48.790   4.574  21.001  0.00  0.00    +0.000 OA
ATOM     30  H   UNL     1      48.244   2.798  18.411  0.00  0.00    +0.000 HD
ATOM     31  H   UNL     1      48.321   2.369  20.079  0.00  0.00    +0.000 HD
ENDBRANCH  23  27
ENDBRANCH  18  19
ENDBRANCH  17  18
ENDBRANCH   3  17
TORSDOF 7
ENDMDL
MODEL 7
REMARK VINA RESULT:    -6.080      3.048      8.148
REMARK INTER + INTRA:          -9.531
REMARK INTER:                  -8.489
REMARK INTRA:                  -1.042
REMARK UNBOUND:                -0.962
REMARK  Name = 
REMARK  9 active torsions:
REMARK  status: ('A' for Active; 'I' for Inactive)
REMARK    1  A    between atoms: C_1  and  O_2
REMARK    2  A    between atoms: O_2  and  C_3
REMARK    3  A    between atoms: C_5  and  C_6
REMARK    4  A    between atoms: C_6  and  C_7
REMARK    5  A    between atoms: C_7  and  N_8
REMARK    6  A    between atoms: C_12  and  C_13
REMARK    7  A    between atoms: C_21  and  N_22
REMARK    8  A    between atoms: N_22  and  C_23
REMARK    9  A    between atoms: N_25  and  C_26
REMARK                            x       y       z     vdW  Elec       q    Type
REMARK                         _______ _______ _______ _____ _____    ______ ____
ROOT
ATOM      1  C   UNL     1      45.632   7.545  11.894  0.00  0.00    +0.000 A 
ATOM      2  C   UNL     1      46.821   8.260  12.147  0.00  0.00    +0.000 A 
ATOM      3  C   UNL     1      47.921   7.632  12.747  0.00  0.00    +0.000 A 
ATOM      4  C   UNL     1      47.783   6.273  13.078  0.00  0.00    +0.000 A 
ATOM      5  C   UNL     1      46.603   5.556  12.856  0.00  0.00    +0.000 A 
ATOM      6 CL   UNL     1      46.608   3.952  13.506  0.00  0.00    +0.000 Cl
ATOM      7  C   UNL     1      45.508   6.164  12.229  0.00  0.00    +0.000 A 
ENDROOT
BRANCH   1   9
ATOM      8  C   UNL     1      44.395   9.509  11.291  0.00  0.00    +0.000 C 
ATOM      9  O   UNL     1      44.505   8.092  11.313  0.00  0.00    +0.000 OA
ENDBRANCH   1   9
BRANCH   7  10
ATOM     10  N   UNL     1      44.246   5.535  11.989  0.00  0.00    +0.000 N 
ATOM     11  H   UNL     1      43.511   6.225  12.170  0.00  0.00    +0.000 HD
BRANCH  10  12
ATOM     12  C   UNL     1      43.888   4.633  10.919  0.00  0.00    +0.000 C 
ATOM     13  C   UNL     1      44.004   3.139  11.272  0.00  0.00    +0.000 C 
ATOM     14  N   UNL     1      45.007   2.949  10.203  0.00  0.00    +0.000 NA
ATOM     15  C   UNL     1      44.418   2.235   9.070  0.00  0.00    +0.000 C 
ATOM     16  C   UNL     1      45.045   4.397   9.931  0.00  0.00    +0.000 C 
ENDBRANCH  10  12
ENDBRANCH   7  10
BRANCH   3  17
ATOM     17  C   UNL     1      49.197   8.414  13.069  0.00  0.00    +0.000 C 
BRANCH  17  18
ATOM     18  C   UNL     1      49.884   7.908  14.345  0.00  0.00    +0.000 C 
BRANCH  18  19
ATOM     19  N   UNL     1      49.316   8.379  15.611  0.00  0.00    +0.000 N 
ATOM     20  C   UNL     1      49.139   7.268  16.483  0.00  0.00    +0.000 A 
ATOM     21  C   UNL     1      48.586   7.471  17.742  0.00  0.00    +0.000 A 
ATOM     22  C   UNL     1      48.406   6.374  18.596  0.00  0.00    +0.000 A 
ATOM     23  C   UNL     1      48.777   5.092  18.180  0.00  0.00    +0.000 A 
ATOM     24  C   UNL     1      49.332   4.984  16.920  0.00  0.00    +0.000 A 
ATOM     25  N   UNL     1      49.520   6.033  16.085  0.00  0.00    +0.000 NA
ATOM     26  H   UNL     1      48.409   8.820  15.488  0.00  0.00    +0.000 HD
BRANCH  23  27
ATOM     27  C   UNL     1      48.563   3.929  19.075  0.00  0.00    +0.000 C 
ATOM     28  N   UNL     1      48.626   4.107  20.429  0.00  0.00    +0.000 N 
ATOM     29  O   UNL     1      48.336   2.815  18.612  0.00  0.00    +0.000 OA
ATOM     30  H   UNL     1      48.814   4.971  20.910  0.00  0.00    +0.000 HD
ATOM     31  H   UNL     1      48.482   3.282  20.998  0.00  0.00    +0.000 HD
ENDBRANCH  23  27
ENDBRANCH  18  19
ENDBRANCH  17  18
ENDBRANCH   3  17
TORSDOF 7
ENDMDL
MODEL 8
REMARK VINA RESULT:    -5.842      4.728      6.963
REMARK INTER + INTRA:          -9.195
REMARK INTER:                  -8.632
REMARK INTRA:                  -0.562
REMARK UNBOUND:                -0.962
REMARK  Name = 
REMARK  9 active torsions:
REMARK  status: ('A' for Active; 'I' for Inactive)
REMARK    1  A    between atoms: C_1  and  O_2
REMARK    2  A    between atoms: O_2  and  C_3
REMARK    3  A    between atoms: C_5  and  C_6
REMARK    4  A    between atoms: C_6  and  C_7
REMARK    5  A    between atoms: C_7  and  N_8
REMARK    6  A    between atoms: C_12  and  C_13
REMARK    7  A    between atoms: C_21  and  N_22
REMARK    8  A    between atoms: N_22  and  C_23
REMARK    9  A    between atoms: N_25  and  C_26
REMARK                            x       y       z     vdW  Elec       q    Type
REMARK                         _______ _______ _______ _____ _____    ______ ____
ROOT
ATOM      1  C   UNL     1      51.567   5.499  17.318  0.00  0.00    +0.000 A 
ATOM      2  C   UNL     1      50.848   6.519  16.662  0.00  0.00    +0.000 A 
ATOM      3  C   UNL     1      49.476   6.380  16.412  0.00  0.00    +0.000 A 
ATOM      4  C   UNL     1      48.862   5.193  16.842  0.00  0.00    +0.000 A 
ATOM      5  C   UNL     1      49.565   4.161  17.473  0.00  0.00    +0.000 A 
ATOM      6 CL   UNL     1      48.637   2.727  17.749  0.00  0.00    +0.000 Cl
ATOM      7  C   UNL     1      50.930   4.300  17.756  0.00  0.00    +0.000 A 
ENDROOT
BRANCH   1   9
ATOM      8  C   UNL     1      53.788   5.992  16.558  0.00  0.00    +0.000 C 
ATOM      9  O   UNL     1      52.919   5.557  17.595  0.00  0.00    +0.000 OA
ENDBRANCH   1   9
BRANCH   7  10
ATOM     10  N   UNL     1      51.749   3.297  18.360  0.00  0.00    +0.000 N 
ATOM     11  H   UNL     1      51.215   2.870  19.122  0.00  0.00    +0.000 HD
BRANCH  10  12
ATOM     12  C   UNL     1      52.616   2.342  17.709  0.00  0.00    +0.000 C 
ATOM     13  C   UNL     1      52.098   0.892  17.718  0.00  0.00    +0.000 C 
ATOM     14  N   UNL     1      53.288   0.455  18.476  0.00  0.00    +0.000 NA
ATOM     15  C   UNL     1      54.202  -0.290  17.610  0.00  0.00    +0.000 C 
ATOM     16  C   UNL     1      53.748   1.847  18.628  0.00  0.00    +0.000 C 
ENDBRANCH  10  12
ENDBRANCH   7  10
BRANCH   3  17
ATOM     17  C   UNL     1      48.698   7.462  15.658  0.00  0.00    +0.000 C 
BRANCH  17  18
ATOM     18  C   UNL     1      48.172   6.965  14.304  0.00  0.00    +0.000 C 
BRANCH  18  19
ATOM     19  N   UNL     1      47.109   7.767  13.694  0.00  0.00    +0.000 N 
ATOM     20  C   UNL     1      46.283   6.920  12.901  0.00  0.00    +0.000 A 
ATOM     21  C   UNL     1      45.216   7.469  12.202  0.00  0.00    +0.000 A 
ATOM     22  C   UNL     1      44.410   6.634  11.416  0.00  0.00    +0.000 A 
ATOM     23  C   UNL     1      44.683   5.265  11.338  0.00  0.00    +0.000 A 
ATOM     24  C   UNL     1      45.754   4.802  12.078  0.00  0.00    +0.000 A 
ATOM     25  N   UNL     1      46.538   5.593  12.847  0.00  0.00    +0.000 NA
ATOM     26  H   UNL     1      47.473   8.496  13.086  0.00  0.00    +0.000 HD
BRANCH  23  27
ATOM     27  C   UNL     1      43.844   4.387  10.488  0.00  0.00    +0.000 C 
ATOM     28  N   UNL     1      43.930   4.493   9.127  0.00  0.00    +0.000 N 
ATOM     29  O   UNL     1      43.074   3.573  10.993  0.00  0.00    +0.000 OA
ATOM     30  H   UNL     1      44.517   5.128   8.613  0.00  0.00    +0.000 HD
ATOM     31  H   UNL     1      43.331   3.878   8.590  0.00  0.00    +0.000 HD
ENDBRANCH  23  27
ENDBRANCH  18  19
ENDBRANCH  17  18
ENDBRANCH   3  17
TORSDOF 7
ENDMDL
MODEL 9
REMARK VINA RESULT:    -5.751      4.237      8.449
REMARK INTER + INTRA:          -9.067
REMARK INTER:                  -8.229
REMARK INTRA:                  -0.838
REMARK UNBOUND:                -0.962
REMARK  Name = 
REMARK  9 active torsions:
REMARK  status: ('A' for Active; 'I' for Inactive)
REMARK    1  A    between atoms: C_1  and  O_2
REMARK    2  A    between atoms: O_2  and  C_3
REMARK    3  A    between atoms: C_5  and  C_6
REMARK    4  A    between atoms: C_6  and  C_7
REMARK    5  A    between atoms: C_7  and  N_8
REMARK    6  A    between atoms: C_12  and  C_13
REMARK    7  A    between atoms: C_21  and  N_22
REMARK    8  A    between atoms: N_22  and  C_23
REMARK    9  A    between atoms: N_25  and  C_26
REMARK                            x       y       z     vdW  Elec       q    Type
REMARK                         _______ _______ _______ _____ _____    ______ ____
ROOT
ATOM      1  C   UNL     1      47.645   5.188  15.378  0.00  0.00    +0.000 A 
ATOM      2  C   UNL     1      48.549   5.991  16.103  0.00  0.00    +0.000 A 
ATOM      3  C   UNL     1      49.175   7.090  15.499  0.00  0.00    +0.000 A 
ATOM      4  C   UNL     1      48.861   7.348  14.154  0.00  0.00    +0.000 A 
ATOM      5  C   UNL     1      47.985   6.547  13.413  0.00  0.00    +0.000 A 
ATOM      6 CL   UNL     1      47.893   6.953  11.734  0.00  0.00    +0.000 Cl
ATOM      7  C   UNL     1      47.330   5.465  14.014  0.00  0.00    +0.000 A 
ENDROOT
BRANCH   1   9
ATOM      8  C   UNL     1      47.763   3.159  16.652  0.00  0.00    +0.000 C 
ATOM      9  O   UNL     1      46.994   4.086  15.899  0.00  0.00    +0.000 OA
ENDBRANCH   1   9
BRANCH   7  10
ATOM     10  N   UNL     1      46.448   4.563  13.342  0.00  0.00    +0.000 N 
ATOM     11  H   UNL     1      46.213   3.808  13.993  0.00  0.00    +0.000 HD
BRANCH  10  12
ATOM     12  C   UNL     1      45.346   4.880  12.464  0.00  0.00    +0.000 C 
ATOM     13  C   UNL     1      44.472   6.060  12.930  0.00  0.00    +0.000 C 
ATOM     14  N   UNL     1      43.291   5.176  13.005  0.00  0.00    +0.000 NA
ATOM     15  C   UNL     1      42.378   5.445  11.894  0.00  0.00    +0.000 C 
ATOM     16  C   UNL     1      44.115   3.989  12.712  0.00  0.00    +0.000 C 
ENDBRANCH  10  12
ENDBRANCH   7  10
BRANCH   3  17
ATOM     17  C   UNL     1      50.193   7.937  16.266  0.00  0.00    +0.000 C 
BRANCH  17  18
ATOM     18  C   UNL     1      50.806   7.180  17.452  0.00  0.00    +0.000 C 
BRANCH  18  19
ATOM     19  N   UNL     1      52.213   6.796  17.312  0.00  0.00    +0.000 N 
ATOM     20  C   UNL     1      52.333   5.391  17.512  0.00  0.00    +0.000 A 
ATOM     21  C   UNL     1      53.589   4.800  17.452  0.00  0.00    +0.000 A 
ATOM     22  C   UNL     1      53.705   3.418  17.657  0.00  0.00    +0.000 A 
ATOM     23  C   UNL     1      52.569   2.649  17.924  0.00  0.00    +0.000 A 
ATOM     24  C   UNL     1      51.360   3.317  17.951  0.00  0.00    +0.000 A 
ATOM     25  N   UNL     1      51.228   4.649  17.747  0.00  0.00    +0.000 NA
ATOM     26  H   UNL     1      52.810   7.256  17.994  0.00  0.00    +0.000 HD
BRANCH  23  27
ATOM     27  C   UNL     1      52.696   1.192  18.165  0.00  0.00    +0.000 C 
ATOM     28  N   UNL     1      51.635   0.373  17.893  0.00  0.00    +0.000 N 
ATOM     29  O   UNL     1      53.740   0.718  18.607  0.00  0.00    +0.000 OA
ATOM     30  H   UNL     1      50.737   0.657  17.539  0.00  0.00    +0.000 HD
ATOM     31  H   UNL     1      51.768  -0.612  18.083  0.00  0.00    +0.000 HD
ENDBRANCH  23  27
ENDBRANCH  18  19
ENDBRANCH  17  18
ENDBRANCH   3  17
TORSDOF 7
ENDMDL
