MODEL 1
REMARK VINA RESULT:    -8.774      0.000      0.000
REMARK INTER + INTRA:         -12.375
REMARK INTER:                 -11.852
REMARK INTRA:                  -0.523
REMARK UNBOUND:                -0.523
REMARK  Name = 
REMARK  7 active torsions:
REMARK  status: ('A' for Active; 'I' for Inactive)
REMARK    1  A    between atoms: C_1  and  C_2
REMARK    2  A    between atoms: C_6  and  C_7
REMARK    3  A    between atoms: N_9  and  C_10
REMARK    4  A    between atoms: C_10  and  C_11
REMARK    5  A    between atoms: C_14  and  C_15
REMARK    6  A    between atoms: C_15  and  N_16
REMARK    7  A    between atoms: C_17  and  C_19
REMARK                            x       y       z     vdW  Elec       q    Type
REMARK                         _______ _______ _______ _____ _____    ______ ____
ROOT
ATOM      1  C   UNL     1      44.572   5.802  11.477  0.00  0.00    +0.000 A 
ATOM      2  C   UNL     1      45.590   5.220  12.244  0.00  0.00    +0.000 A 
ATOM      3  C   UNL     1      46.523   6.018  12.918  0.00  0.00    +0.000 A 
ATOM      4  C   UNL     1      46.445   7.415  12.854  0.00  0.00    +0.000 A 
ATOM      5  C   UNL     1      45.436   7.996  12.074  0.00  0.00    +0.000 A 
ATOM      6  C   UNL     1      44.502   7.199  11.402  0.00  0.00    +0.000 A 
ENDROOT
BRANCH   1   7
ATOM      7  C   UNL     1      43.569   4.939  10.756  0.00  0.00    +0.000 C 
BRANCH   7  10
ATOM      8  C   UNL     1      45.104   4.230   8.983  0.00  0.00    +0.000 C 
ATOM      9  O   UNL     1      45.391   5.388   8.697  0.00  0.00    +0.000 OA
ATOM     10  N   UNL     1      44.210   3.898   9.980  0.00  0.00    +0.000 N 
ATOM     11  H   UNL     1      44.145   2.946  10.314  0.00  0.00    +0.000 HD
BRANCH   8  17
ATOM     12  C   UNL     1      47.930   2.331   5.248  0.00  0.00    +0.000 C 
ATOM     13  C   UNL     1      47.107   2.173   6.487  0.00  0.00    +0.000 A 
ATOM     14  C   UNL     1      46.926   0.928   7.084  0.00  0.00    +0.000 A 
ATOM     15  N   UNL     1      46.213   0.731   8.215  0.00  0.00    +0.000 NA
ATOM     16  C   UNL     1      45.653   1.828   8.784  0.00  0.00    +0.000 A 
ATOM     17  C   UNL     1      45.753   3.112   8.260  0.00  0.00    +0.000 A 
ATOM     18  C   UNL     1      46.503   3.283   7.095  0.00  0.00    +0.000 A 
ENDBRANCH   8  17
ENDBRANCH   7  10
ENDBRANCH   1   7
BRANCH   4  19
ATOM     19  C   UNL     1      47.438   8.282  13.585  0.00  0.00    +0.000 C 
BRANCH  19  20
ATOM     20  N   UNL     1      47.716   7.775  14.906  0.00  0.00    +0.000 N 
ATOM     21  C   UNL     1      48.867   7.073  15.167  0.00  0.00    +0.000 C 
ATOM     22  O   UNL     1      49.722   6.885  14.304  0.00  0.00    +0.000 OA
ATOM     23  H   UNL     1      46.939   7.722  15.556  0.00  0.00    +0.000 HD
BRANCH  21  24
ATOM     24  C   UNL     1      49.056   6.605  16.546  0.00  0.00    +0.000 A 
ATOM     25  C   UNL     1      49.649   7.443  17.482  0.00  0.00    +0.000 A 
ATOM     26  S   UNL     1      49.745   6.766  19.045  0.00  0.00    +0.000 S 
ATOM     27  C   UNL     1      49.046   5.309  18.515  0.00  0.00    +0.000 A 
ATOM     28  N   UNL     1      48.861   4.270  19.374  0.00  0.00    +0.000 NA
ATOM     29  C   UNL     1      48.353   3.213  18.832  0.00  0.00    +0.000 A 
ATOM     30  N   UNL     1      48.007   3.104  17.510  0.00  0.00    +0.000 N 
ATOM     31  C   UNL     1      48.147   4.137  16.613  0.00  0.00    +0.000 A 
ATOM     32  O   UNL     1      47.789   4.021  15.446  0.00  0.00    +0.000 OA
ATOM     33  C   UNL     1      48.727   5.344  17.169  0.00  0.00    +0.000 A 
ATOM     34  H   UNL     1      47.606   2.252  17.149  0.00  0.00    +0.000 HD
ENDBRANCH  21  24
ENDBRANCH  19  20
ENDBRANCH   4  19
TORSDOF 6
ENDMDL
MODEL 2
REMARK VINA RESULT:    -8.352      1.833      2.374
REMARK INTER + INTRA:         -11.804
REMARK INTER:                 -10.848
REMARK INTRA:                  -0.957
REMARK UNBOUND:                -0.523
REMARK  Name = 
REMARK  7 active torsions:
REMARK  status: ('A' for Active; 'I' for Inactive)
REMARK    1  A    between atoms: C_1  and  C_2
REMARK    2  A    between atoms: C_6  and  C_7
REMARK    3  A    between atoms: N_9  and  C_10
REMARK    4  A    between atoms: C_10  and  C_11
REMARK    5  A    between atoms: C_14  and  C_15
REMARK    6  A    between atoms: C_15  and  N_16
REMARK    7  A    between atoms: C_17  and  C_19
REMARK                            x       y       z     vdW  Elec       q    Type
REMARK                         _______ _______ _______ _____ _____    ______ ____
ROOT
ATOM      1  C   UNL     1      45.186   5.588  11.849  0.00  0.00    +0.000 A 
ATOM      2  C   UNL     1      46.078   4.788  12.577  0.00  0.00    +0.000 A 
ATOM      3  C   UNL     1      47.073   5.367  13.373  0.00  0.00    +0.000 A 
ATOM      4  C   UNL     1      47.186   6.760  13.473  0.00  0.00    +0.000 A 
ATOM      5  C   UNL     1      46.304   7.560  12.733  0.00  0.00    +0.000 A 
ATOM      6  C   UNL     1      45.308   6.982  11.939  0.00  0.00    +0.000 A 
ENDROOT
BRANCH   1   7
ATOM      7  C   UNL     1      44.116   4.960  10.996  0.00  0.00    +0.000 C 
BRANCH   7  10
ATOM      8  C   UNL     1      45.388   4.247   9.028  0.00  0.00    +0.000 C 
ATOM      9  O   UNL     1      45.626   5.404   8.697  0.00  0.00    +0.000 OA
ATOM     10  N   UNL     1      44.646   3.917  10.143  0.00  0.00    +0.000 N 
ATOM     11  H   UNL     1      44.634   2.967  10.489  0.00  0.00    +0.000 HD
BRANCH   8  17
ATOM     12  C   UNL     1      47.883   2.358   5.060  0.00  0.00    +0.000 C 
ATOM     13  C   UNL     1      47.129   2.193   6.341  0.00  0.00    +0.000 A 
ATOM     14  C   UNL     1      46.922   0.936   6.904  0.00  0.00    +0.000 A 
ATOM     15  N   UNL     1      46.270   0.730   8.070  0.00  0.00    +0.000 NA
ATOM     16  C   UNL     1      45.802   1.830   8.711  0.00  0.00    +0.000 A 
ATOM     17  C   UNL     1      45.935   3.127   8.227  0.00  0.00    +0.000 A 
ATOM     18  C   UNL     1      46.620   3.306   7.024  0.00  0.00    +0.000 A 
ENDBRANCH   8  17
ENDBRANCH   7  10
ENDBRANCH   1   7
BRANCH   4  19
ATOM     19  C   UNL     1      48.247   7.393  14.337  0.00  0.00    +0.000 C 
BRANCH  19  20
ATOM     20  N   UNL     1      48.093   7.028  15.723  0.00  0.00    +0.000 N 
ATOM     21  C   UNL     1      49.131   6.471  16.428  0.00  0.00    +0.000 C 
ATOM     22  O   UNL     1      50.239   6.300  15.925  0.00  0.00    +0.000 OA
ATOM     23  H   UNL     1      47.146   6.950  16.080  0.00  0.00    +0.000 HD
BRANCH  21  24
ATOM     24  C   UNL     1      48.871   6.140  17.835  0.00  0.00    +0.000 A 
ATOM     25  C   UNL     1      49.139   4.859  18.302  0.00  0.00    +0.000 A 
ATOM     26  S   UNL     1      48.832   4.658  19.967  0.00  0.00    +0.000 S 
ATOM     27  C   UNL     1      48.280   6.260  20.114  0.00  0.00    +0.000 A 
ATOM     28  N   UNL     1      47.833   6.738  21.307  0.00  0.00    +0.000 NA
ATOM     29  C   UNL     1      47.412   7.959  21.268  0.00  0.00    +0.000 A 
ATOM     30  N   UNL     1      47.403   8.746  20.146  0.00  0.00    +0.000 N 
ATOM     31  C   UNL     1      47.873   8.316  18.928  0.00  0.00    +0.000 A 
ATOM     32  O   UNL     1      47.890   9.059  17.952  0.00  0.00    +0.000 OA
ATOM     33  C   UNL     1      48.346   6.945  18.913  0.00  0.00    +0.000 A 
ATOM     34  H   UNL     1      47.068   9.696  20.184  0.00  0.00    +0.000 HD
ENDBRANCH  21  24
ENDBRANCH  19  20
ENDBRANCH   4  19
TORSDOF 6
ENDMDL
MODEL 3
REMARK VINA RESULT:    -8.132      1.795      2.019
REMARK INTER + INTRA:         -11.508
REMARK INTER:                 -10.690
REMARK INTRA:                  -0.818
REMARK UNBOUND:                -0.523
REMARK  Name = 
REMARK  7 active torsions:
REMARK  status: ('A' for Active; 'I' for Inactive)
REMARK    1  A    between atoms: C_1  and  C_2
REMARK    2  A    between atoms: C_6  and  C_7
REMARK    3  A    between atoms: N_9  and  C_10
REMARK    4  A    between atoms: C_10  and  C_11
REMARK    5  A    between atoms: C_14  and  C_15
REMARK    6  A    between atoms: C_15  and  N_16
REMARK    7  A    between atoms: C_17  and  C_19
REMARK                            x       y       z     vdW  Elec       q    Type
REMARK                         _______ _______ _______ _____ _____    ______ ____
ROOT
ATOM      1  C   UNL     1      45.380   6.675  11.782  0.00  0.00    +0.000 A 
ATOM      2  C   UNL     1      46.608   6.168  12.230  0.00  0.00    +0.000 A 
ATOM      3  C   UNL     1      47.490   6.972  12.961  0.00  0.00    +0.000 A 
ATOM      4  C   UNL     1      47.155   8.294  13.277  0.00  0.00    +0.000 A 
ATOM      5  C   UNL     1      45.934   8.806  12.816  0.00  0.00    +0.000 A 
ATOM      6  C   UNL     1      45.051   8.002  12.087  0.00  0.00    +0.000 A 
ENDROOT
BRANCH   1   7
ATOM      7  C   UNL     1      44.433   5.805  10.998  0.00  0.00    +0.000 C 
BRANCH   7  10
ATOM      8  C   UNL     1      44.613   3.740   9.692  0.00  0.00    +0.000 C 
ATOM      9  O   UNL     1      43.571   3.292  10.160  0.00  0.00    +0.000 OA
ATOM     10  N   UNL     1      45.131   4.969  10.043  0.00  0.00    +0.000 N 
ATOM     11  H   UNL     1      45.877   5.385   9.502  0.00  0.00    +0.000 HD
BRANCH   8  17
ATOM     12  C   UNL     1      47.138   3.283   5.338  0.00  0.00    +0.000 C 
ATOM     13  C   UNL     1      46.577   2.710   6.602  0.00  0.00    +0.000 A 
ATOM     14  C   UNL     1      46.761   1.371   6.935  0.00  0.00    +0.000 A 
ATOM     15  N   UNL     1      46.298   0.807   8.073  0.00  0.00    +0.000 NA
ATOM     16  C   UNL     1      45.618   1.616   8.923  0.00  0.00    +0.000 A 
ATOM     17  C   UNL     1      45.358   2.959   8.677  0.00  0.00    +0.000 A 
ATOM     18  C   UNL     1      45.858   3.514   7.497  0.00  0.00    +0.000 A 
ENDBRANCH   8  17
ENDBRANCH   7  10
ENDBRANCH   1   7
BRANCH   4  19
ATOM     19  C   UNL     1      48.094   9.164  14.074  0.00  0.00    +0.000 C 
BRANCH  19  20
ATOM     20  N   UNL     1      47.808   9.103  15.486  0.00  0.00    +0.000 N 
ATOM     21  C   UNL     1      48.638   8.432  16.348  0.00  0.00    +0.000 C 
ATOM     22  O   UNL     1      49.675   7.895  15.965  0.00  0.00    +0.000 OA
ATOM     23  H   UNL     1      46.864   9.337  15.778  0.00  0.00    +0.000 HD
BRANCH  21  24
ATOM     24  C   UNL     1      48.258   8.434  17.767  0.00  0.00    +0.000 A 
ATOM     25  C   UNL     1      48.096   9.642  18.434  0.00  0.00    +0.000 A 
ATOM     26  S   UNL     1      47.602   9.468  20.058  0.00  0.00    +0.000 S 
ATOM     27  C   UNL     1      47.640   7.772  19.943  0.00  0.00    +0.000 A 
ATOM     28  N   UNL     1      47.339   6.992  21.017  0.00  0.00    +0.000 NA
ATOM     29  C   UNL     1      47.440   5.723  20.800  0.00  0.00    +0.000 A 
ATOM     30  N   UNL     1      47.808   5.162  19.604  0.00  0.00    +0.000 N 
ATOM     31  C   UNL     1      48.091   5.909  18.485  0.00  0.00    +0.000 A 
ATOM     32  O   UNL     1      48.376   5.375  17.418  0.00  0.00    +0.000 OA
ATOM     33  C   UNL     1      48.005   7.343  18.679  0.00  0.00    +0.000 A 
ATOM     34  H   UNL     1      47.860   4.161  19.497  0.00  0.00    +0.000 HD
ENDBRANCH  21  24
ENDBRANCH  19  20
ENDBRANCH   4  19
TORSDOF 6
ENDMDL
MODEL 4
REMARK VINA RESULT:    -8.015      1.771      2.110
REMARK INTER + INTRA:         -11.349
REMARK INTER:                 -10.404
REMARK INTRA:                  -0.945
REMARK UNBOUND:                -0.523
REMARK  Name = 
REMARK  7 active torsions:
REMARK  status: ('A' for Active; 'I' for Inactive)
REMARK    1  A    between atoms: C_1  and  C_2
REMARK    2  A    between atoms: C_6  and  C_7
REMARK    3  A    between atoms: N_9  and  C_10
REMARK    4  A    between atoms: C_10  and  C_11
REMARK    5  A    between atoms: C_14  and  C_15
REMARK    6  A    between atoms: C_15  and  N_16
REMARK    7  A    between atoms: C_17  and  C_19
REMARK                            x       y       z     vdW  Elec       q    Type
REMARK                         _______ _______ _______ _____ _____    ______ ____
ROOT
ATOM      1  C   UNL     1      45.792   6.878  11.973  0.00  0.00    +0.000 A 
ATOM      2  C   UNL     1      45.767   8.231  12.338  0.00  0.00    +0.000 A 
ATOM      3  C   UNL     1      46.660   8.730  13.294  0.00  0.00    +0.000 A 
ATOM      4  C   UNL     1      47.608   7.891  13.892  0.00  0.00    +0.000 A 
ATOM      5  C   UNL     1      47.622   6.534  13.539  0.00  0.00    +0.000 A 
ATOM      6  C   UNL     1      46.732   6.035  12.581  0.00  0.00    +0.000 A 
ENDROOT
BRANCH   1   7
ATOM      7  C   UNL     1      44.831   6.346  10.942  0.00  0.00    +0.000 C 
BRANCH   7  10
ATOM      8  C   UNL     1      44.669   4.323   9.568  0.00  0.00    +0.000 C 
ATOM      9  O   UNL     1      43.464   4.220   9.771  0.00  0.00    +0.000 OA
ATOM     10  N   UNL     1      45.441   5.334  10.105  0.00  0.00    +0.000 N 
ATOM     11  H   UNL     1      46.379   5.498   9.765  0.00  0.00    +0.000 HD
BRANCH   8  17
ATOM     12  C   UNL     1      47.237   3.063   5.403  0.00  0.00    +0.000 C 
ATOM     13  C   UNL     1      46.589   2.716   6.705  0.00  0.00    +0.000 A 
ATOM     14  C   UNL     1      46.625   1.418   7.210  0.00  0.00    +0.000 A 
ATOM     15  N   UNL     1      46.078   1.053   8.391  0.00  0.00    +0.000 NA
ATOM     16  C   UNL     1      45.466   2.028   9.108  0.00  0.00    +0.000 A 
ATOM     17  C   UNL     1      45.354   3.349   8.687  0.00  0.00    +0.000 A 
ATOM     18  C   UNL     1      45.937   3.695   7.467  0.00  0.00    +0.000 A 
ENDBRANCH   8  17
ENDBRANCH   7  10
ENDBRANCH   1   7
BRANCH   4  19
ATOM     19  C   UNL     1      48.580   8.423  14.914  0.00  0.00    +0.000 C 
BRANCH  19  20
ATOM     20  N   UNL     1      49.476   7.394  15.383  0.00  0.00    +0.000 N 
ATOM     21  C   UNL     1      49.500   7.026  16.705  0.00  0.00    +0.000 C 
ATOM     22  O   UNL     1      48.737   7.522  17.531  0.00  0.00    +0.000 OA
ATOM     23  H   UNL     1      50.251   7.143  14.778  0.00  0.00    +0.000 HD
BRANCH  21  24
ATOM     24  C   UNL     1      50.445   5.965  17.077  0.00  0.00    +0.000 A 
ATOM     25  C   UNL     1      51.735   6.300  17.470  0.00  0.00    +0.000 A 
ATOM     26  S   UNL     1      52.686   4.957  17.920  0.00  0.00    +0.000 S 
ATOM     27  C   UNL     1      51.425   3.875  17.555  0.00  0.00    +0.000 A 
ATOM     28  N   UNL     1      51.593   2.532  17.699  0.00  0.00    +0.000 NA
ATOM     29  C   UNL     1      50.568   1.826  17.354  0.00  0.00    +0.000 A 
ATOM     30  N   UNL     1      49.388   2.342  16.885  0.00  0.00    +0.000 N 
ATOM     31  C   UNL     1      49.162   3.692  16.752  0.00  0.00    +0.000 A 
ATOM     32  O   UNL     1      48.080   4.123  16.368  0.00  0.00    +0.000 OA
ATOM     33  C   UNL     1      50.289   4.530  17.114  0.00  0.00    +0.000 A 
ATOM     34  H   UNL     1      48.620   1.736  16.639  0.00  0.00    +0.000 HD
ENDBRANCH  21  24
ENDBRANCH  19  20
ENDBRANCH   4  19
TORSDOF 6
ENDMDL
MODEL 5
REMARK VINA RESULT:    -7.659      4.118      7.033
REMARK INTER + INTRA:         -10.868
REMARK INTER:                  -9.870
REMARK INTRA:                  -0.999
REMARK UNBOUND:                -0.523
REMARK  Name = 
REMARK  7 active torsions:
REMARK  status: ('A' for Active; 'I' for Inactive)
REMARK    1  A    between atoms: C_1  and  C_2
REMARK    2  A    between atoms: C_6  and  C_7
REMARK    3  A    between atoms: N_9  and  C_10
REMARK    4  A    between atoms: C_10  and  C_11
REMARK    5  A    between atoms: C_14  and  C_15
REMARK    6  A    between atoms: C_15  and  N_16
REMARK    7  A    between atoms: C_17  and  C_19
REMARK                            x       y       z     vdW  Elec       q    Type
REMARK                         _______ _______ _______ _____ _____    ______ ____
ROOT
ATOM      1  C   UNL     1      44.912   9.198  11.870  0.00  0.00    +0.000 A 
ATOM      2  C   UNL     1      45.986   9.093  12.765  0.00  0.00    +0.000 A 
ATOM      3  C   UNL     1      46.462   7.839  13.167  0.00  0.00    +0.000 A 
ATOM      4  C   UNL     1      45.887   6.664  12.667  0.00  0.00    +0.000 A 
ATOM      5  C   UNL     1      44.804   6.769  11.785  0.00  0.00    +0.000 A 
ATOM      6  C   UNL     1      44.328   8.022  11.381  0.00  0.00    +0.000 A 
ENDROOT
BRANCH   1   7
ATOM      7  C   UNL     1      44.405  10.549  11.439  0.00  0.00    +0.000 C 
BRANCH   7  10
ATOM      8  C   UNL     1      41.996  10.767  11.051  0.00  0.00    +0.000 C 
ATOM      9  O   UNL     1      42.115  10.536   9.852  0.00  0.00    +0.000 OA
ATOM     10  N   UNL     1      43.064  10.803  11.923  0.00  0.00    +0.000 N 
ATOM     11  H   UNL     1      42.911  10.804  12.923  0.00  0.00    +0.000 HD
BRANCH   8  17
ATOM     12  C   UNL     1      37.142   9.543  11.745  0.00  0.00    +0.000 C 
ATOM     13  C   UNL     1      38.323  10.431  11.981  0.00  0.00    +0.000 A 
ATOM     14  C   UNL     1      38.240  11.541  12.817  0.00  0.00    +0.000 A 
ATOM     15  N   UNL     1      39.279  12.363  13.085  0.00  0.00    +0.000 NA
ATOM     16  C   UNL     1      40.463  12.064  12.493  0.00  0.00    +0.000 A 
ATOM     17  C   UNL     1      40.649  10.994  11.625  0.00  0.00    +0.000 A 
ATOM     18  C   UNL     1      39.558  10.159  11.376  0.00  0.00    +0.000 A 
ENDBRANCH   8  17
ENDBRANCH   7  10
ENDBRANCH   1   7
BRANCH   4  19
ATOM     19  C   UNL     1      46.402   5.309  13.086  0.00  0.00    +0.000 C 
BRANCH  19  20
ATOM     20  N   UNL     1      46.948   5.336  14.420  0.00  0.00    +0.000 N 
ATOM     21  C   UNL     1      47.386   4.187  15.028  0.00  0.00    +0.000 C 
ATOM     22  O   UNL     1      47.371   3.101  14.452  0.00  0.00    +0.000 OA
ATOM     23  H   UNL     1      46.760   6.160  14.982  0.00  0.00    +0.000 HD
BRANCH  21  24
ATOM     24  C   UNL     1      47.929   4.324  16.386  0.00  0.00    +0.000 A 
ATOM     25  C   UNL     1      47.477   3.483  17.396  0.00  0.00    +0.000 A 
ATOM     26  S   UNL     1      48.247   3.738  18.897  0.00  0.00    +0.000 S 
ATOM     27  C   UNL     1      49.173   5.018  18.264  0.00  0.00    +0.000 A 
ATOM     28  N   UNL     1      50.044   5.706  19.052  0.00  0.00    +0.000 NA
ATOM     29  C   UNL     1      50.656   6.672  18.452  0.00  0.00    +0.000 A 
ATOM     30  N   UNL     1      50.481   7.009  17.135  0.00  0.00    +0.000 N 
ATOM     31  C   UNL     1      49.636   6.324  16.295  0.00  0.00    +0.000 A 
ATOM     32  O   UNL     1      49.533   6.624  15.110  0.00  0.00    +0.000 OA
ATOM     33  C   UNL     1      48.913   5.235  16.923  0.00  0.00    +0.000 A 
ATOM     34  H   UNL     1      50.997   7.772  16.724  0.00  0.00    +0.000 HD
ENDBRANCH  21  24
ENDBRANCH  19  20
ENDBRANCH   4  19
TORSDOF 6
ENDMDL
MODEL 6
REMARK VINA RESULT:    -7.376      4.126      6.561
REMARK INTER + INTRA:         -10.486
REMARK INTER:                  -9.719
REMARK INTRA:                  -0.767
REMARK UNBOUND:                -0.523
REMARK  Name = 
REMARK  7 active torsions:
REMARK  status: ('A' for Active; 'I' for Inactive)
REMARK    1  A    between atoms: C_1  and  C_2
REMARK    2  A    between atoms: C_6  and  C_7
REMARK    3  A    between atoms: N_9  and  C_10
REMARK    4  A    between atoms: C_10  and  C_11
REMARK    5  A    between atoms: C_14  and  C_15
REMARK    6  A    between atoms: C_15  and  N_16
REMARK    7  A    between atoms: C_17  and  C_19
REMARK                            x       y       z     vdW  Elec       q    Type
REMARK                         _______ _______ _______ _____ _____    ______ ____
ROOT
ATOM      1  C   UNL     1      45.273   7.335  11.916  0.00  0.00    +0.000 A 
ATOM      2  C   UNL     1      44.339   6.320  12.164  0.00  0.00    +0.000 A 
ATOM      3  C   UNL     1      44.674   5.218  12.960  0.00  0.00    +0.000 A 
ATOM      4  C   UNL     1      45.944   5.117  13.540  0.00  0.00    +0.000 A 
ATOM      5  C   UNL     1      46.884   6.124  13.279  0.00  0.00    +0.000 A 
ATOM      6  C   UNL     1      46.549   7.227  12.485  0.00  0.00    +0.000 A 
ENDROOT
BRANCH   1   7
ATOM      7  C   UNL     1      44.907   8.519  11.061  0.00  0.00    +0.000 C 
BRANCH   7  10
ATOM      8  C   UNL     1      43.016  10.025  10.661  0.00  0.00    +0.000 C 
ATOM      9  O   UNL     1      43.441  10.351   9.558  0.00  0.00    +0.000 OA
ATOM     10  N   UNL     1      43.666   9.132  11.487  0.00  0.00    +0.000 N 
ATOM     11  H   UNL     1      43.196   8.743  12.294  0.00  0.00    +0.000 HD
BRANCH   8  17
ATOM     12  C   UNL     1      38.066   9.704  11.630  0.00  0.00    +0.000 C 
ATOM     13  C   UNL     1      39.362  10.453  11.626  0.00  0.00    +0.000 A 
ATOM     14  C   UNL     1      39.453  11.746  12.134  0.00  0.00    +0.000 A 
ATOM     15  N   UNL     1      40.600  12.460  12.178  0.00  0.00    +0.000 NA
ATOM     16  C   UNL     1      41.714  11.856  11.694  0.00  0.00    +0.000 A 
ATOM     17  C   UNL     1      41.730  10.578  11.146  0.00  0.00    +0.000 A 
ATOM     18  C   UNL     1      40.530   9.864  11.123  0.00  0.00    +0.000 A 
ENDBRANCH   8  17
ENDBRANCH   7  10
ENDBRANCH   1   7
BRANCH   4  19
ATOM     19  C   UNL     1      46.310   3.939  14.408  0.00  0.00    +0.000 C 
BRANCH  19  20
ATOM     20  N   UNL     1      47.441   4.231  15.253  0.00  0.00    +0.000 N 
ATOM     21  C   UNL     1      47.429   3.909  16.587  0.00  0.00    +0.000 C 
ATOM     22  O   UNL     1      46.480   3.323  17.105  0.00  0.00    +0.000 OA
ATOM     23  H   UNL     1      48.119   4.902  14.906  0.00  0.00    +0.000 HD
BRANCH  21  24
ATOM     24  C   UNL     1      48.633   4.245  17.358  0.00  0.00    +0.000 A 
ATOM     25  C   UNL     1      48.682   5.436  18.072  0.00  0.00    +0.000 A 
ATOM     26  S   UNL     1      50.126   5.648  18.955  0.00  0.00    +0.000 S 
ATOM     27  C   UNL     1      50.760   4.182  18.372  0.00  0.00    +0.000 A 
ATOM     28  N   UNL     1      52.006   3.767  18.732  0.00  0.00    +0.000 NA
ATOM     29  C   UNL     1      52.374   2.653  18.191  0.00  0.00    +0.000 A 
ATOM     30  N   UNL     1      51.607   1.914  17.328  0.00  0.00    +0.000 N 
ATOM     31  C   UNL     1      50.333   2.277  16.961  0.00  0.00    +0.000 A 
ATOM     32  O   UNL     1      49.657   1.572  16.219  0.00  0.00    +0.000 OA
ATOM     33  C   UNL     1      49.875   3.530  17.531  0.00  0.00    +0.000 A 
ATOM     34  H   UNL     1      51.951   1.046  16.945  0.00  0.00    +0.000 HD
ENDBRANCH  21  24
ENDBRANCH  19  20
ENDBRANCH   4  19
TORSDOF 6
ENDMDL
MODEL 7
REMARK VINA RESULT:    -7.269      2.563      3.807
REMARK INTER + INTRA:         -10.342
REMARK INTER:                  -9.386
REMARK INTRA:                  -0.956
REMARK UNBOUND:                -0.523
REMARK  Name = 
REMARK  7 active torsions:
REMARK  status: ('A' for Active; 'I' for Inactive)
REMARK    1  A    between atoms: C_1  and  C_2
REMARK    2  A    between atoms: C_6  and  C_7
REMARK    3  A    between atoms: N_9  and  C_10
REMARK    4  A    between atoms: C_10  and  C_11
REMARK    5  A    between atoms: C_14  and  C_15
REMARK    6  A    between atoms: C_15  and  N_16
REMARK    7  A    between atoms: C_17  and  C_19
REMARK                            x       y       z     vdW  Elec       q    Type
REMARK                         _______ _______ _______ _____ _____    ______ ____
ROOT
ATOM      1  C   UNL     1      46.082   5.584  12.445  0.00  0.00    +0.000 A 
ATOM      2  C   UNL     1      47.060   6.474  12.909  0.00  0.00    +0.000 A 
ATOM      3  C   UNL     1      47.687   6.267  14.144  0.00  0.00    +0.000 A 
ATOM      4  C   UNL     1      47.362   5.156  14.932  0.00  0.00    +0.000 A 
ATOM      5  C   UNL     1      46.373   4.274  14.475  0.00  0.00    +0.000 A 
ATOM      6  C   UNL     1      45.747   4.479  13.240  0.00  0.00    +0.000 A 
ENDROOT
BRANCH   1   7
ATOM      7  C   UNL     1      45.412   5.810  11.115  0.00  0.00    +0.000 C 
BRANCH   7  10
ATOM      8  C   UNL     1      45.107   3.880   9.636  0.00  0.00    +0.000 C 
ATOM      9  O   UNL     1      43.972   3.675  10.052  0.00  0.00    +0.000 OA
ATOM     10  N   UNL     1      45.907   4.905  10.099  0.00  0.00    +0.000 N 
ATOM     11  H   UNL     1      46.751   5.160   9.604  0.00  0.00    +0.000 HD
BRANCH   8  17
ATOM     12  C   UNL     1      47.113   3.139   5.057  0.00  0.00    +0.000 C 
ATOM     13  C   UNL     1      46.632   2.636   6.381  0.00  0.00    +0.000 A 
ATOM     14  C   UNL     1      46.720   1.288   6.719  0.00  0.00    +0.000 A 
ATOM     15  N   UNL     1      46.324   0.782   7.909  0.00  0.00    +0.000 NA
ATOM     16  C   UNL     1      45.817   1.661   8.809  0.00  0.00    +0.000 A 
ATOM     17  C   UNL     1      45.665   3.021   8.566  0.00  0.00    +0.000 A 
ATOM     18  C   UNL     1      46.092   3.514   7.330  0.00  0.00    +0.000 A 
ENDBRANCH   8  17
ENDBRANCH   7  10
ENDBRANCH   1   7
BRANCH   4  19
ATOM     19  C   UNL     1      48.041   4.919  16.258  0.00  0.00    +0.000 C 
BRANCH  19  20
ATOM     20  N   UNL     1      47.693   5.932  17.222  0.00  0.00    +0.000 N 
ATOM     21  C   UNL     1      48.629   6.824  17.681  0.00  0.00    +0.000 C 
ATOM     22  O   UNL     1      49.785   6.826  17.261  0.00  0.00    +0.000 OA
ATOM     23  H   UNL     1      46.827   5.805  17.738  0.00  0.00    +0.000 HD
BRANCH  21  24
ATOM     24  C   UNL     1      48.170   7.819  18.659  0.00  0.00    +0.000 A 
ATOM     25  C   UNL     1      47.925   7.433  19.970  0.00  0.00    +0.000 A 
ATOM     26  S   UNL     1      47.451   8.718  20.987  0.00  0.00    +0.000 S 
ATOM     27  C   UNL     1      47.505   9.827  19.699  0.00  0.00    +0.000 A 
ATOM     28  N   UNL     1      47.179  11.135  19.889  0.00  0.00    +0.000 NA
ATOM     29  C   UNL     1      47.230  11.858  18.820  0.00  0.00    +0.000 A 
ATOM     30  N   UNL     1      47.584  11.394  17.580  0.00  0.00    +0.000 N 
ATOM     31  C   UNL     1      47.950  10.089  17.347  0.00  0.00    +0.000 A 
ATOM     32  O   UNL     1      48.302   9.715  16.233  0.00  0.00    +0.000 OA
ATOM     33  C   UNL     1      47.897   9.230  18.514  0.00  0.00    +0.000 A 
ATOM     34  H   UNL     1      47.611  12.014  16.784  0.00  0.00    +0.000 HD
ENDBRANCH  21  24
ENDBRANCH  19  20
ENDBRANCH   4  19
TORSDOF 6
ENDMDL
MODEL 8
REMARK VINA RESULT:    -7.134      1.780      2.185
REMARK INTER + INTRA:         -10.159
REMARK INTER:                  -9.214
REMARK INTRA:                  -0.946
REMARK UNBOUND:                -0.523
REMARK  Name = 
REMARK  7 active torsions:
REMARK  status: ('A' for Active; 'I' for Inactive)
REMARK    1  A    between atoms: C_1  and  C_2
REMARK    2  A    between atoms: C_6  and  C_7
REMARK    3  A    between atoms: N_9  and  C_10
REMARK    4  A    between atoms: C_10  and  C_11
REMARK    5  A    between atoms: C_14  and  C_15
REMARK    6  A    between atoms: C_15  and  N_16
REMARK    7  A    between atoms: C_17  and  C_19
REMARK                            x       y       z     vdW  Elec       q    Type
REMARK                         _______ _______ _______ _____ _____    ______ ____
ROOT
ATOM      1  C   UNL     1      45.465   5.324  12.333  0.00  0.00    +0.000 A 
ATOM      2  C   UNL     1      46.265   4.891  13.399  0.00  0.00    +0.000 A 
ATOM      3  C   UNL     1      47.144   5.773  14.039  0.00  0.00    +0.000 A 
ATOM      4  C   UNL     1      47.227   7.113  13.638  0.00  0.00    +0.000 A 
ATOM      5  C   UNL     1      46.439   7.542  12.562  0.00  0.00    +0.000 A 
ATOM      6  C   UNL     1      45.559   6.661  11.923  0.00  0.00    +0.000 A 
ENDROOT
BRANCH   1   7
ATOM      7  C   UNL     1      44.520   4.371  11.649  0.00  0.00    +0.000 C 
BRANCH   7  10
ATOM      8  C   UNL     1      44.933   3.768   9.311  0.00  0.00    +0.000 C 
ATOM      9  O   UNL     1      44.138   4.607   8.900  0.00  0.00    +0.000 OA
ATOM     10  N   UNL     1      45.191   3.566  10.651  0.00  0.00    +0.000 N 
ATOM     11  H   UNL     1      45.984   3.009  10.943  0.00  0.00    +0.000 HD
BRANCH   8  17
ATOM     12  C   UNL     1      46.800  -0.630   7.667  0.00  0.00    +0.000 C 
ATOM     13  C   UNL     1      46.591   0.845   7.530  0.00  0.00    +0.000 A 
ATOM     14  C   UNL     1      47.075   1.547   6.429  0.00  0.00    +0.000 A 
ATOM     15  N   UNL     1      46.895   2.873   6.242  0.00  0.00    +0.000 NA
ATOM     16  C   UNL     1      46.196   3.536   7.198  0.00  0.00    +0.000 A 
ATOM     17  C   UNL     1      45.689   2.937   8.346  0.00  0.00    +0.000 A 
ATOM     18  C   UNL     1      45.885   1.563   8.505  0.00  0.00    +0.000 A 
ENDBRANCH   8  17
ENDBRANCH   7  10
ENDBRANCH   1   7
BRANCH   4  19
ATOM     19  C   UNL     1      48.163   8.073  14.329  0.00  0.00    +0.000 C 
BRANCH  19  20
ATOM     20  N   UNL     1      48.387   7.701  15.704  0.00  0.00    +0.000 N 
ATOM     21  C   UNL     1      48.802   8.627  16.628  0.00  0.00    +0.000 C 
ATOM     22  O   UNL     1      48.958   9.811  16.337  0.00  0.00    +0.000 OA
ATOM     23  H   UNL     1      48.484   6.712  15.907  0.00  0.00    +0.000 HD
BRANCH  21  24
ATOM     24  C   UNL     1      48.997   8.146  18.002  0.00  0.00    +0.000 A 
ATOM     25  C   UNL     1      48.552   8.915  19.070  0.00  0.00    +0.000 A 
ATOM     26  S   UNL     1      48.808   8.189  20.592  0.00  0.00    +0.000 S 
ATOM     27  C   UNL     1      49.572   6.846  19.883  0.00  0.00    +0.000 A 
ATOM     28  N   UNL     1      50.065   5.836  20.651  0.00  0.00    +0.000 NA
ATOM     29  C   UNL     1      50.650   4.896  19.985  0.00  0.00    +0.000 A 
ATOM     30  N   UNL     1      50.779   4.871  18.620  0.00  0.00    +0.000 N 
ATOM     31  C   UNL     1      50.270   5.852  17.803  0.00  0.00    +0.000 A 
ATOM     32  O   UNL     1      50.366   5.779  16.582  0.00  0.00    +0.000 OA
ATOM     33  C   UNL     1      49.614   6.940  18.503  0.00  0.00    +0.000 A 
ATOM     34  H   UNL     1      51.241   4.102  18.159  0.00  0.00    +0.000 HD
ENDBRANCH  21  24
ENDBRANCH  19  20
ENDBRANCH   4  19
TORSDOF 6
ENDMDL
MODEL 9
REMARK VINA RESULT:    -7.021      1.985      3.030
REMARK INTER + INTRA:         -10.007
REMARK INTER:                  -9.075
REMARK INTRA:                  -0.932
REMARK UNBOUND:                -0.523
REMARK  Name = 
REMARK  7 active torsions:
REMARK  status: ('A' for Active; 'I' for Inactive)
REMARK    1  A    between atoms: C_1  and  C_2
REMARK    2  A    between atoms: C_6  and  C_7
REMARK    3  A    between atoms: N_9  and  C_10
REMARK    4  A    between atoms: C_10  and  C_11
REMARK    5  A    between atoms: C_14  and  C_15
REMARK    6  A    between atoms: C_15  and  N_16
REMARK    7  A    between atoms: C_17  and  C_19
REMARK                            x       y       z     vdW  Elec       q    Type
REMARK                         _______ _______ _______ _____ _____    ______ ____
ROOT
ATOM      1  C   UNL     1      46.968   7.892  12.549  0.00  0.00    +0.000 A 
ATOM      2  C   UNL     1      46.996   8.604  13.756  0.00  0.00    +0.000 A 
ATOM      3  C   UNL     1      48.188   8.745  14.476  0.00  0.00    +0.000 A 
ATOM      4  C   UNL     1      49.382   8.194  13.993  0.00  0.00    +0.000 A 
ATOM      5  C   UNL     1      49.351   7.469  12.794  0.00  0.00    +0.000 A 
ATOM      6  C   UNL     1      48.159   7.329  12.073  0.00  0.00    +0.000 A 
ENDROOT
BRANCH   1   7
ATOM      7  C   UNL     1      45.682   7.745  11.777  0.00  0.00    +0.000 C 
BRANCH   7  10
ATOM      8  C   UNL     1      44.650   5.647  11.046  0.00  0.00    +0.000 C 
ATOM      9  O   UNL     1      43.709   5.779  11.822  0.00  0.00    +0.000 OA
ATOM     10  N   UNL     1      45.682   6.558  10.949  0.00  0.00    +0.000 N 
ATOM     11  H   UNL     1      46.330   6.518  10.173  0.00  0.00    +0.000 HD
BRANCH   8  17
ATOM     12  C   UNL     1      46.151   3.282   6.840  0.00  0.00    +0.000 C 
ATOM     13  C   UNL     1      45.401   3.319   8.134  0.00  0.00    +0.000 A 
ATOM     14  C   UNL     1      44.708   2.205   8.601  0.00  0.00    +0.000 A 
ATOM     15  N   UNL     1      44.034   2.174   9.773  0.00  0.00    +0.000 NA
ATOM     16  C   UNL     1      44.052   3.307  10.519  0.00  0.00    +0.000 A 
ATOM     17  C   UNL     1      44.694   4.479  10.136  0.00  0.00    +0.000 A 
ATOM     18  C   UNL     1      45.388   4.476   8.924  0.00  0.00    +0.000 A 
ENDBRANCH   8  17
ENDBRANCH   7  10
ENDBRANCH   1   7
BRANCH   4  19
ATOM     19  C   UNL     1      50.673   8.351  14.756  0.00  0.00    +0.000 C 
BRANCH  19  20
ATOM     20  N   UNL     1      50.458   8.311  16.181  0.00  0.00    +0.000 N 
ATOM     21  C   UNL     1      50.477   7.122  16.866  0.00  0.00    +0.000 C 
ATOM     22  O   UNL     1      50.717   6.054  16.307  0.00  0.00    +0.000 OA
ATOM     23  H   UNL     1      50.041   9.130  16.611  0.00  0.00    +0.000 HD
BRANCH  21  24
ATOM     24  C   UNL     1      50.251   7.191  18.316  0.00  0.00    +0.000 A 
ATOM     25  C   UNL     1      51.164   7.857  19.124  0.00  0.00    +0.000 A 
ATOM     26  S   UNL     1      50.726   7.891  20.772  0.00  0.00    +0.000 S 
ATOM     27  C   UNL     1      49.328   6.970  20.474  0.00  0.00    +0.000 A 
ATOM     28  N   UNL     1      48.495   6.615  21.490  0.00  0.00    +0.000 NA
ATOM     29  C   UNL     1      47.490   5.888  21.127  0.00  0.00    +0.000 A 
ATOM     30  N   UNL     1      47.239   5.491  19.840  0.00  0.00    +0.000 N 
ATOM     31  C   UNL     1      48.034   5.851  18.778  0.00  0.00    +0.000 A 
ATOM     32  O   UNL     1      47.759   5.513  17.631  0.00  0.00    +0.000 OA
ATOM     33  C   UNL     1      49.186   6.657  19.133  0.00  0.00    +0.000 A 
ATOM     34  H   UNL     1      46.430   4.929  19.621  0.00  0.00    +0.000 HD
ENDBRANCH  21  24
ENDBRANCH  19  20
ENDBRANCH   4  19
TORSDOF 6
ENDMDL
