MODEL 1
REMARK VINA RESULT:    -8.116      0.000      0.000
REMARK INTER + INTRA:         -13.704
REMARK INTER:                 -12.148
REMARK INTRA:                  -1.556
REMARK UNBOUND:                -1.556
REMARK  Name = 
REMARK  11 active torsions:
REMARK  status: ('A' for Active; 'I' for Inactive)
REMARK    1  A    between atoms: C_1  and  C_2
REMARK    2  A    between atoms: C_2  and  C_3
REMARK    3  A    between atoms: C_2  and  N_10
REMARK    4  A    between atoms: C_3  and  C_4
REMARK    5  A    between atoms: N_10  and  C_11
REMARK    6  A    between atoms: N_10  and  C_12
REMARK    7  A    between atoms: C_12  and  C_13
REMARK    8  A    between atoms: C_16  and  C_17
REMARK    9  A    between atoms: C_17  and  N_18
REMARK   10  A    between atoms: C_19  and  C_21
REMARK   11  A    between atoms: C_28  and  O_29
REMARK                            x       y       z     vdW  Elec       q    Type
REMARK                         _______ _______ _______ _____ _____    ______ ____
ROOT
ATOM      1  C   UNL     1      45.135   6.894  11.567  0.00  0.00    +0.000 A 
ATOM      2  C   UNL     1      45.092   7.878  12.558  0.00  0.00    +0.000 A 
ATOM      3  C   UNL     1      46.232   8.423  13.130  0.00  0.00    +0.000 A 
ATOM      4  C   UNL     1      47.484   7.962  12.740  0.00  0.00    +0.000 A 
ATOM      5  C   UNL     1      47.563   6.958  11.766  0.00  0.00    +0.000 A 
ATOM      6  C   UNL     1      46.399   6.433  11.178  0.00  0.00    +0.000 A 
ENDROOT
BRANCH   1   7
ATOM      7  C   UNL     1      43.864   6.282  10.998  0.00  0.00    +0.000 C 
BRANCH   7   8
ATOM      8  N   UNL     1      43.581   4.858  11.292  0.00  0.00    +0.000 NA
ATOM      9  C   UNL     1      42.946   4.750  12.610  0.00  0.00    +0.000 C 
BRANCH   8  11
ATOM     10  C   UNL     1      45.063   3.162  12.383  0.00  0.00    +0.000 C 
ATOM     11  C   UNL     1      44.697   3.889  11.073  0.00  0.00    +0.000 C 
BRANCH  11  12
ATOM     12  C   UNL     1      44.376   2.825   9.965  0.00  0.00    +0.000 C 
BRANCH  12  13
ATOM     13  C   UNL     1      45.371   2.723   8.817  0.00  0.00    +0.000 A 
ATOM     14  C   UNL     1      45.914   1.480   8.471  0.00  0.00    +0.000 A 
ATOM     15  C   UNL     1      46.811   1.367   7.405  0.00  0.00    +0.000 A 
ATOM     16  C   UNL     1      47.174   2.492   6.669  0.00  0.00    +0.000 A 
ATOM     17  C   UNL     1      46.639   3.733   6.992  0.00  0.00    +0.000 A 
ATOM     18  C   UNL     1      45.738   3.844   8.055  0.00  0.00    +0.000 A 
ENDBRANCH  12  13
ENDBRANCH  11  12
ENDBRANCH   8  11
ENDBRANCH   7   8
ENDBRANCH   1   7
BRANCH   4  19
ATOM     19  C   UNL     1      48.703   8.469  13.451  0.00  0.00    +0.000 C 
BRANCH  19  20
ATOM     20  N   UNL     1      49.015   7.602  14.556  0.00  0.00    +0.000 N 
ATOM     21  C   UNL     1      48.777   7.968  15.849  0.00  0.00    +0.000 C 
ATOM     22  O   UNL     1      48.259   9.045  16.133  0.00  0.00    +0.000 OA
ATOM     23  H   UNL     1      49.576   6.775  14.377  0.00  0.00    +0.000 HD
BRANCH  21  24
ATOM     24  C   UNL     1      49.101   6.970  16.873  0.00  0.00    +0.000 A 
ATOM     25  C   UNL     1      49.999   7.311  17.875  0.00  0.00    +0.000 A 
ATOM     26  S   UNL     1      50.218   6.088  19.036  0.00  0.00    +0.000 S 
ATOM     27  C   UNL     1      49.165   5.045  18.206  0.00  0.00    +0.000 A 
ATOM     28  N   UNL     1      48.933   3.809  18.698  0.00  0.00    +0.000 NA
ATOM     29  C   UNL     1      48.102   3.057  17.956  0.00  0.00    +0.000 A 
ATOM     30  C   UNL     1      47.507   3.456  16.777  0.00  0.00    +0.000 A 
ATOM     31  C   UNL     1      47.770   4.743  16.317  0.00  0.00    +0.000 A 
ATOM     32  C   UNL     1      48.625   5.606  17.049  0.00  0.00    +0.000 A 
BRANCH  31  33
ATOM     33  O   UNL     1      47.189   5.162  15.144  0.00  0.00    +0.000 OA
ATOM     34  H   UNL     1      46.265   5.418  15.315  0.00  0.00    +0.000 HD
ENDBRANCH  31  33
ENDBRANCH  21  24
ENDBRANCH  19  20
ENDBRANCH   4  19
TORSDOF 9
ENDMDL
MODEL 2
REMARK VINA RESULT:    -7.616      3.253      9.814
REMARK INTER + INTRA:         -12.957
REMARK INTER:                  -9.827
REMARK INTRA:                  -3.130
REMARK UNBOUND:                -1.556
REMARK  Name = 
REMARK  11 active torsions:
REMARK  status: ('A' for Active; 'I' for Inactive)
REMARK    1  A    between atoms: C_1  and  C_2
REMARK    2  A    between atoms: C_2  and  C_3
REMARK    3  A    between atoms: C_2  and  N_10
REMARK    4  A    between atoms: C_3  and  C_4
REMARK    5  A    between atoms: N_10  and  C_11
REMARK    6  A    between atoms: N_10  and  C_12
REMARK    7  A    between atoms: C_12  and  C_13
REMARK    8  A    between atoms: C_16  and  C_17
REMARK    9  A    between atoms: C_17  and  N_18
REMARK   10  A    between atoms: C_19  and  C_21
REMARK   11  A    between atoms: C_28  and  O_29
REMARK                            x       y       z     vdW  Elec       q    Type
REMARK                         _______ _______ _______ _____ _____    ______ ____
ROOT
ATOM      1  C   UNL     1      51.611   4.549  17.666  0.00  0.00    +0.000 A 
ATOM      2  C   UNL     1      50.904   3.352  17.803  0.00  0.00    +0.000 A 
ATOM      3  C   UNL     1      49.551   3.238  17.516  0.00  0.00    +0.000 A 
ATOM      4  C   UNL     1      48.839   4.359  17.105  0.00  0.00    +0.000 A 
ATOM      5  C   UNL     1      49.514   5.582  16.981  0.00  0.00    +0.000 A 
ATOM      6  C   UNL     1      50.890   5.675  17.252  0.00  0.00    +0.000 A 
ENDROOT
BRANCH   1   7
ATOM      7  C   UNL     1      53.083   4.650  18.039  0.00  0.00    +0.000 C 
BRANCH   7   8
ATOM      8  N   UNL     1      53.428   5.082  19.413  0.00  0.00    +0.000 NA
ATOM      9  C   UNL     1      54.883   5.229  19.525  0.00  0.00    +0.000 C 
BRANCH   8  11
ATOM     10  C   UNL     1      53.870   3.544  21.337  0.00  0.00    +0.000 C 
ATOM     11  C   UNL     1      52.805   4.320  20.537  0.00  0.00    +0.000 C 
BRANCH  11  12
ATOM     12  C   UNL     1      51.988   5.233  21.517  0.00  0.00    +0.000 C 
BRANCH  12  13
ATOM     13  C   UNL     1      50.610   5.674  21.042  0.00  0.00    +0.000 A 
ATOM     14  C   UNL     1      49.542   4.769  21.057  0.00  0.00    +0.000 A 
ATOM     15  C   UNL     1      48.267   5.166  20.645  0.00  0.00    +0.000 A 
ATOM     16  C   UNL     1      48.040   6.471  20.217  0.00  0.00    +0.000 A 
ATOM     17  C   UNL     1      49.086   7.387  20.203  0.00  0.00    +0.000 A 
ATOM     18  C   UNL     1      50.360   6.991  20.620  0.00  0.00    +0.000 A 
ENDBRANCH  12  13
ENDBRANCH  11  12
ENDBRANCH   8  11
ENDBRANCH   7   8
ENDBRANCH   1   7
BRANCH   4  19
ATOM     19  C   UNL     1      47.356   4.253  16.916  0.00  0.00    +0.000 C 
BRANCH  19  20
ATOM     20  N   UNL     1      46.974   4.910  15.695  0.00  0.00    +0.000 N 
ATOM     21  C   UNL     1      47.003   4.267  14.491  0.00  0.00    +0.000 C 
ATOM     22  O   UNL     1      47.332   3.088  14.394  0.00  0.00    +0.000 OA
ATOM     23  H   UNL     1      46.840   5.916  15.709  0.00  0.00    +0.000 HD
BRANCH  21  24
ATOM     24  C   UNL     1      46.544   5.042  13.334  0.00  0.00    +0.000 A 
ATOM     25  C   UNL     1      46.961   6.360  13.206  0.00  0.00    +0.000 A 
ATOM     26  S   UNL     1      46.419   7.109  11.779  0.00  0.00    +0.000 S 
ATOM     27  C   UNL     1      45.566   5.715  11.314  0.00  0.00    +0.000 A 
ATOM     28  N   UNL     1      44.868   5.719  10.158  0.00  0.00    +0.000 NA
ATOM     29  C   UNL     1      44.213   4.577   9.894  0.00  0.00    +0.000 A 
ATOM     30  C   UNL     1      44.210   3.457  10.700  0.00  0.00    +0.000 A 
ATOM     31  C   UNL     1      44.952   3.498  11.876  0.00  0.00    +0.000 A 
ATOM     32  C   UNL     1      45.685   4.662  12.223  0.00  0.00    +0.000 A 
BRANCH  31  33
ATOM     33  O   UNL     1      44.963   2.394  12.696  0.00  0.00    +0.000 OA
ATOM     34  H   UNL     1      44.048   2.129  12.892  0.00  0.00    +0.000 HD
ENDBRANCH  31  33
ENDBRANCH  21  24
ENDBRANCH  19  20
ENDBRANCH   4  19
TORSDOF 9
ENDMDL
MODEL 3
REMARK VINA RESULT:    -7.541      3.121      4.008
REMARK INTER + INTRA:         -12.844
REMARK INTER:                 -12.151
REMARK INTRA:                  -0.693
REMARK UNBOUND:                -1.556
REMARK  Name = 
REMARK  11 active torsions:
REMARK  status: ('A' for Active; 'I' for Inactive)
REMARK    1  A    between atoms: C_1  and  C_2
REMARK    2  A    between atoms: C_2  and  C_3
REMARK    3  A    between atoms: C_2  and  N_10
REMARK    4  A    between atoms: C_3  and  C_4
REMARK    5  A    between atoms: N_10  and  C_11
REMARK    6  A    between atoms: N_10  and  C_12
REMARK    7  A    between atoms: C_12  and  C_13
REMARK    8  A    between atoms: C_16  and  C_17
REMARK    9  A    between atoms: C_17  and  N_18
REMARK   10  A    between atoms: C_19  and  C_21
REMARK   11  A    between atoms: C_28  and  O_29
REMARK                            x       y       z     vdW  Elec       q    Type
REMARK                         _______ _______ _______ _____ _____    ______ ____
ROOT
ATOM      1  C   UNL     1      46.913   5.825  12.738  0.00  0.00    +0.000 A 
ATOM      2  C   UNL     1      47.710   6.672  13.512  0.00  0.00    +0.000 A 
ATOM      3  C   UNL     1      48.106   6.361  14.804  0.00  0.00    +0.000 A 
ATOM      4  C   UNL     1      47.676   5.176  15.390  0.00  0.00    +0.000 A 
ATOM      5  C   UNL     1      46.854   4.315  14.649  0.00  0.00    +0.000 A 
ATOM      6  C   UNL     1      46.481   4.633  13.332  0.00  0.00    +0.000 A 
ENDROOT
BRANCH   1   7
ATOM      7  C   UNL     1      46.454   6.221  11.342  0.00  0.00    +0.000 C 
BRANCH   7   8
ATOM      8  N   UNL     1      45.082   5.848  10.925  0.00  0.00    +0.000 NA
ATOM      9  C   UNL     1      44.125   6.298  11.941  0.00  0.00    +0.000 C 
BRANCH   8  11
ATOM     10  C   UNL     1      43.632   3.820  11.147  0.00  0.00    +0.000 C 
ATOM     11  C   UNL     1      44.874   4.439  10.474  0.00  0.00    +0.000 C 
BRANCH  11  12
ATOM     12  C   UNL     1      44.734   4.309   8.916  0.00  0.00    +0.000 C 
BRANCH  12  13
ATOM     13  C   UNL     1      45.637   3.287   8.238  0.00  0.00    +0.000 A 
ATOM     14  C   UNL     1      46.555   3.701   7.265  0.00  0.00    +0.000 A 
ATOM     15  C   UNL     1      47.406   2.779   6.651  0.00  0.00    +0.000 A 
ATOM     16  C   UNL     1      47.355   1.432   7.002  0.00  0.00    +0.000 A 
ATOM     17  C   UNL     1      46.456   1.003   7.971  0.00  0.00    +0.000 A 
ATOM     18  C   UNL     1      45.609   1.927   8.590  0.00  0.00    +0.000 A 
ENDBRANCH  12  13
ENDBRANCH  11  12
ENDBRANCH   8  11
ENDBRANCH   7   8
ENDBRANCH   1   7
BRANCH   4  19
ATOM     19  C   UNL     1      48.008   4.909  16.827  0.00  0.00    +0.000 C 
BRANCH  19  20
ATOM     20  N   UNL     1      49.435   4.820  16.987  0.00  0.00    +0.000 N 
ATOM     21  C   UNL     1      50.024   3.770  17.630  0.00  0.00    +0.000 C 
ATOM     22  O   UNL     1      49.367   2.836  18.082  0.00  0.00    +0.000 OA
ATOM     23  H   UNL     1      49.998   5.634  16.763  0.00  0.00    +0.000 HD
BRANCH  21  24
ATOM     24  C   UNL     1      51.489   3.784  17.682  0.00  0.00    +0.000 A 
ATOM     25  C   UNL     1      52.146   5.006  17.641  0.00  0.00    +0.000 A 
ATOM     26  S   UNL     1      53.835   4.874  17.790  0.00  0.00    +0.000 S 
ATOM     27  C   UNL     1      53.746   3.179  17.858  0.00  0.00    +0.000 A 
ATOM     28  N   UNL     1      54.882   2.460  17.978  0.00  0.00    +0.000 NA
ATOM     29  C   UNL     1      54.703   1.129  18.002  0.00  0.00    +0.000 A 
ATOM     30  C   UNL     1      53.484   0.488  17.910  0.00  0.00    +0.000 A 
ATOM     31  C   UNL     1      52.342   1.274  17.798  0.00  0.00    +0.000 A 
ATOM     32  C   UNL     1      52.442   2.689  17.779  0.00  0.00    +0.000 A 
BRANCH  31  33
ATOM     33  O   UNL     1      51.117   0.657  17.704  0.00  0.00    +0.000 OA
ATOM     34  H   UNL     1      51.243  -0.307  17.665  0.00  0.00    +0.000 HD
ENDBRANCH  31  33
ENDBRANCH  21  24
ENDBRANCH  19  20
ENDBRANCH   4  19
TORSDOF 9
ENDMDL
MODEL 4
REMARK VINA RESULT:    -7.490      2.017      2.434
REMARK INTER + INTRA:         -12.768
REMARK INTER:                 -11.706
REMARK INTRA:                  -1.063
REMARK UNBOUND:                -1.556
REMARK  Name = 
REMARK  11 active torsions:
REMARK  status: ('A' for Active; 'I' for Inactive)
REMARK    1  A    between atoms: C_1  and  C_2
REMARK    2  A    between atoms: C_2  and  C_3
REMARK    3  A    between atoms: C_2  and  N_10
REMARK    4  A    between atoms: C_3  and  C_4
REMARK    5  A    between atoms: N_10  and  C_11
REMARK    6  A    between atoms: N_10  and  C_12
REMARK    7  A    between atoms: C_12  and  C_13
REMARK    8  A    between atoms: C_16  and  C_17
REMARK    9  A    between atoms: C_17  and  N_18
REMARK   10  A    between atoms: C_19  and  C_21
REMARK   11  A    between atoms: C_28  and  O_29
REMARK                            x       y       z     vdW  Elec       q    Type
REMARK                         _______ _______ _______ _____ _____    ______ ____
ROOT
ATOM      1  C   UNL     1      46.659   6.342  11.939  0.00  0.00    +0.000 A 
ATOM      2  C   UNL     1      47.062   7.657  12.186  0.00  0.00    +0.000 A 
ATOM      3  C   UNL     1      47.757   8.032  13.326  0.00  0.00    +0.000 A 
ATOM      4  C   UNL     1      48.048   7.081  14.297  0.00  0.00    +0.000 A 
ATOM      5  C   UNL     1      47.635   5.756  14.092  0.00  0.00    +0.000 A 
ATOM      6  C   UNL     1      46.953   5.388  12.920  0.00  0.00    +0.000 A 
ENDROOT
BRANCH   1   7
ATOM      7  C   UNL     1      45.853   5.977  10.701  0.00  0.00    +0.000 C 
BRANCH   7   8
ATOM      8  N   UNL     1      44.601   5.206  10.884  0.00  0.00    +0.000 NA
ATOM      9  C   UNL     1      43.843   5.769  12.007  0.00  0.00    +0.000 C 
BRANCH   8  11
ATOM     10  C   UNL     1      43.929   3.123  12.099  0.00  0.00    +0.000 C 
ATOM     11  C   UNL     1      44.724   3.718  10.918  0.00  0.00    +0.000 C 
BRANCH  11  12
ATOM     12  C   UNL     1      44.254   3.034   9.586  0.00  0.00    +0.000 C 
BRANCH  12  13
ATOM     13  C   UNL     1      45.337   2.744   8.556  0.00  0.00    +0.000 A 
ATOM     14  C   UNL     1      45.817   3.773   7.736  0.00  0.00    +0.000 A 
ATOM     15  C   UNL     1      46.826   3.526   6.802  0.00  0.00    +0.000 A 
ATOM     16  C   UNL     1      47.373   2.252   6.675  0.00  0.00    +0.000 A 
ATOM     17  C   UNL     1      46.916   1.220   7.486  0.00  0.00    +0.000 A 
ATOM     18  C   UNL     1      45.910   1.468   8.424  0.00  0.00    +0.000 A 
ENDBRANCH  12  13
ENDBRANCH  11  12
ENDBRANCH   8  11
ENDBRANCH   7   8
ENDBRANCH   1   7
BRANCH   4  19
ATOM     19  C   UNL     1      48.689   7.518  15.579  0.00  0.00    +0.000 C 
BRANCH  19  20
ATOM     20  N   UNL     1      49.697   6.568  15.967  0.00  0.00    +0.000 N 
ATOM     21  C   UNL     1      50.345   6.653  17.165  0.00  0.00    +0.000 C 
ATOM     22  O   UNL     1      50.082   7.529  17.984  0.00  0.00    +0.000 OA
ATOM     23  H   UNL     1      50.047   5.923  15.266  0.00  0.00    +0.000 HD
BRANCH  21  24
ATOM     24  C   UNL     1      51.316   5.592  17.450  0.00  0.00    +0.000 A 
ATOM     25  C   UNL     1      52.607   5.950  17.813  0.00  0.00    +0.000 A 
ATOM     26  S   UNL     1      53.600   4.622  18.192  0.00  0.00    +0.000 S 
ATOM     27  C   UNL     1      52.354   3.526  17.830  0.00  0.00    +0.000 A 
ATOM     28  N   UNL     1      52.582   2.201  17.950  0.00  0.00    +0.000 NA
ATOM     29  C   UNL     1      51.539   1.420  17.620  0.00  0.00    +0.000 A 
ATOM     30  C   UNL     1      50.312   1.875  17.182  0.00  0.00    +0.000 A 
ATOM     31  C   UNL     1      50.123   3.250  17.084  0.00  0.00    +0.000 A 
ATOM     32  C   UNL     1      51.169   4.145  17.428  0.00  0.00    +0.000 A 
BRANCH  31  33
ATOM     33  O   UNL     1      48.909   3.726  16.650  0.00  0.00    +0.000 OA
ATOM     34  H   UNL     1      49.017   4.638  16.328  0.00  0.00    +0.000 HD
ENDBRANCH  31  33
ENDBRANCH  21  24
ENDBRANCH  19  20
ENDBRANCH   4  19
TORSDOF 9
ENDMDL
MODEL 5
REMARK VINA RESULT:    -7.384      2.857      8.078
REMARK INTER + INTRA:         -12.609
REMARK INTER:                 -10.536
REMARK INTRA:                  -2.073
REMARK UNBOUND:                -1.556
REMARK  Name = 
REMARK  11 active torsions:
REMARK  status: ('A' for Active; 'I' for Inactive)
REMARK    1  A    between atoms: C_1  and  C_2
REMARK    2  A    between atoms: C_2  and  C_3
REMARK    3  A    between atoms: C_2  and  N_10
REMARK    4  A    between atoms: C_3  and  C_4
REMARK    5  A    between atoms: N_10  and  C_11
REMARK    6  A    between atoms: N_10  and  C_12
REMARK    7  A    between atoms: C_12  and  C_13
REMARK    8  A    between atoms: C_16  and  C_17
REMARK    9  A    between atoms: C_17  and  N_18
REMARK   10  A    between atoms: C_19  and  C_21
REMARK   11  A    between atoms: C_28  and  O_29
REMARK                            x       y       z     vdW  Elec       q    Type
REMARK                         _______ _______ _______ _____ _____    ______ ____
ROOT
ATOM      1  C   UNL     1      48.980   8.039  16.106  0.00  0.00    +0.000 A 
ATOM      2  C   UNL     1      48.951   6.864  15.351  0.00  0.00    +0.000 A 
ATOM      3  C   UNL     1      48.525   6.825  14.032  0.00  0.00    +0.000 A 
ATOM      4  C   UNL     1      48.070   7.989  13.422  0.00  0.00    +0.000 A 
ATOM      5  C   UNL     1      48.063   9.181  14.159  0.00  0.00    +0.000 A 
ATOM      6  C   UNL     1      48.521   9.208  15.487  0.00  0.00    +0.000 A 
ENDROOT
BRANCH   1   7
ATOM      7  C   UNL     1      49.405   8.036  17.567  0.00  0.00    +0.000 C 
BRANCH   7   8
ATOM      8  N   UNL     1      48.348   7.966  18.603  0.00  0.00    +0.000 NA
ATOM      9  C   UNL     1      48.422   9.158  19.455  0.00  0.00    +0.000 C 
BRANCH   8  11
ATOM     10  C   UNL     1      47.537   6.905  20.720  0.00  0.00    +0.000 C 
ATOM     11  C   UNL     1      48.229   6.683  19.359  0.00  0.00    +0.000 C 
BRANCH  11  12
ATOM     12  C   UNL     1      47.457   5.573  18.563  0.00  0.00    +0.000 C 
BRANCH  12  13
ATOM     13  C   UNL     1      48.296   4.430  18.009  0.00  0.00    +0.000 A 
ATOM     14  C   UNL     1      47.704   3.457  17.195  0.00  0.00    +0.000 A 
ATOM     15  C   UNL     1      48.467   2.415  16.661  0.00  0.00    +0.000 A 
ATOM     16  C   UNL     1      49.830   2.331  16.930  0.00  0.00    +0.000 A 
ATOM     17  C   UNL     1      50.438   3.292  17.730  0.00  0.00    +0.000 A 
ATOM     18  C   UNL     1      49.676   4.337  18.259  0.00  0.00    +0.000 A 
ENDBRANCH  12  13
ENDBRANCH  11  12
ENDBRANCH   8  11
ENDBRANCH   7   8
ENDBRANCH   1   7
BRANCH   4  19
ATOM     19  C   UNL     1      47.498   7.912  12.038  0.00  0.00    +0.000 C 
BRANCH  19  20
ATOM     20  N   UNL     1      46.840   6.646  11.855  0.00  0.00    +0.000 N 
ATOM     21  C   UNL     1      45.483   6.523  11.922  0.00  0.00    +0.000 C 
ATOM     22  O   UNL     1      44.753   7.491  12.116  0.00  0.00    +0.000 OA
ATOM     23  H   UNL     1      47.407   5.804  11.841  0.00  0.00    +0.000 HD
BRANCH  21  24
ATOM     24  C   UNL     1      44.942   5.183  11.671  0.00  0.00    +0.000 A 
ATOM     25  C   UNL     1      44.327   4.506  12.714  0.00  0.00    +0.000 A 
ATOM     26  S   UNL     1      43.677   3.002  12.258  0.00  0.00    +0.000 S 
ATOM     27  C   UNL     1      44.247   3.183  10.668  0.00  0.00    +0.000 A 
ATOM     28  N   UNL     1      44.016   2.205   9.766  0.00  0.00    +0.000 NA
ATOM     29  C   UNL     1      44.526   2.437   8.545  0.00  0.00    +0.000 A 
ATOM     30  C   UNL     1      45.241   3.560   8.181  0.00  0.00    +0.000 A 
ATOM     31  C   UNL     1      45.443   4.544   9.144  0.00  0.00    +0.000 A 
ATOM     32  C   UNL     1      44.926   4.383  10.455  0.00  0.00    +0.000 A 
BRANCH  31  33
ATOM     33  O   UNL     1      46.153   5.671   8.804  0.00  0.00    +0.000 OA
ATOM     34  H   UNL     1      46.586   5.533   7.944  0.00  0.00    +0.000 HD
ENDBRANCH  31  33
ENDBRANCH  21  24
ENDBRANCH  19  20
ENDBRANCH   4  19
TORSDOF 9
ENDMDL
MODEL 6
REMARK VINA RESULT:    -7.251      3.530      8.480
REMARK INTER + INTRA:         -12.409
REMARK INTER:                  -9.092
REMARK INTRA:                  -3.317
REMARK UNBOUND:                -1.556
REMARK  Name = 
REMARK  11 active torsions:
REMARK  status: ('A' for Active; 'I' for Inactive)
REMARK    1  A    between atoms: C_1  and  C_2
REMARK    2  A    between atoms: C_2  and  C_3
REMARK    3  A    between atoms: C_2  and  N_10
REMARK    4  A    between atoms: C_3  and  C_4
REMARK    5  A    between atoms: N_10  and  C_11
REMARK    6  A    between atoms: N_10  and  C_12
REMARK    7  A    between atoms: C_12  and  C_13
REMARK    8  A    between atoms: C_16  and  C_17
REMARK    9  A    between atoms: C_17  and  N_18
REMARK   10  A    between atoms: C_19  and  C_21
REMARK   11  A    between atoms: C_28  and  O_29
REMARK                            x       y       z     vdW  Elec       q    Type
REMARK                         _______ _______ _______ _____ _____    ______ ____
ROOT
ATOM      1  C   UNL     1      50.398   8.791  11.390  0.00  0.00    +0.000 A 
ATOM      2  C   UNL     1      49.861   7.542  11.714  0.00  0.00    +0.000 A 
ATOM      3  C   UNL     1      48.579   7.380  12.217  0.00  0.00    +0.000 A 
ATOM      4  C   UNL     1      47.785   8.496  12.450  0.00  0.00    +0.000 A 
ATOM      5  C   UNL     1      48.302   9.767  12.159  0.00  0.00    +0.000 A 
ATOM      6  C   UNL     1      49.594   9.913  11.627  0.00  0.00    +0.000 A 
ENDROOT
BRANCH   1   7
ATOM      7  C   UNL     1      51.826   8.937  10.888  0.00  0.00    +0.000 C 
BRANCH   7   8
ATOM      8  N   UNL     1      52.846   9.465  11.825  0.00  0.00    +0.000 NA
ATOM      9  C   UNL     1      54.049   9.840  11.073  0.00  0.00    +0.000 C 
BRANCH   8  11
ATOM     10  C   UNL     1      54.621   8.309  13.159  0.00  0.00    +0.000 C 
ATOM     11  C   UNL     1      53.121   8.654  13.049  0.00  0.00    +0.000 C 
BRANCH  11  12
ATOM     12  C   UNL     1      52.658   9.363  14.370  0.00  0.00    +0.000 C 
BRANCH  12  13
ATOM     13  C   UNL     1      51.329   8.903  14.954  0.00  0.00    +0.000 A 
ATOM     14  C   UNL     1      50.345   9.844  15.280  0.00  0.00    +0.000 A 
ATOM     15  C   UNL     1      49.112   9.436  15.796  0.00  0.00    +0.000 A 
ATOM     16  C   UNL     1      48.844   8.083  15.991  0.00  0.00    +0.000 A 
ATOM     17  C   UNL     1      49.805   7.134  15.666  0.00  0.00    +0.000 A 
ATOM     18  C   UNL     1      51.036   7.542  15.145  0.00  0.00    +0.000 A 
ENDBRANCH  12  13
ENDBRANCH  11  12
ENDBRANCH   8  11
ENDBRANCH   7   8
ENDBRANCH   1   7
BRANCH   4  19
ATOM     19  C   UNL     1      46.450   8.319  13.108  0.00  0.00    +0.000 C 
BRANCH  19  20
ATOM     20  N   UNL     1      45.943   7.002  12.829  0.00  0.00    +0.000 N 
ATOM     21  C   UNL     1      45.069   6.768  11.808  0.00  0.00    +0.000 C 
ATOM     22  O   UNL     1      44.690   7.665  11.059  0.00  0.00    +0.000 OA
ATOM     23  H   UNL     1      46.111   6.266  13.508  0.00  0.00    +0.000 HD
BRANCH  21  24
ATOM     24  C   UNL     1      44.668   5.372  11.609  0.00  0.00    +0.000 A 
ATOM     25  C   UNL     1      44.068   4.693  12.660  0.00  0.00    +0.000 A 
ATOM     26  S   UNL     1      43.584   3.112  12.261  0.00  0.00    +0.000 S 
ATOM     27  C   UNL     1      44.211   3.265  10.690  0.00  0.00    +0.000 A 
ATOM     28  N   UNL     1      44.115   2.225   9.834  0.00  0.00    +0.000 NA
ATOM     29  C   UNL     1      44.660   2.442   8.625  0.00  0.00    +0.000 A 
ATOM     30  C   UNL     1      45.284   3.607   8.231  0.00  0.00    +0.000 A 
ATOM     31  C   UNL     1      45.348   4.654   9.146  0.00  0.00    +0.000 A 
ATOM     32  C   UNL     1      44.784   4.512  10.440  0.00  0.00    +0.000 A 
BRANCH  31  33
ATOM     33  O   UNL     1      45.965   5.825   8.775  0.00  0.00    +0.000 OA
ATOM     34  H   UNL     1      46.150   6.357   9.569  0.00  0.00    +0.000 HD
ENDBRANCH  31  33
ENDBRANCH  21  24
ENDBRANCH  19  20
ENDBRANCH   4  19
TORSDOF 9
ENDMDL
MODEL 7
REMARK VINA RESULT:    -7.135      2.898      8.181
REMARK INTER + INTRA:         -12.236
REMARK INTER:                 -10.080
REMARK INTRA:                  -2.157
REMARK UNBOUND:                -1.556
REMARK  Name = 
REMARK  11 active torsions:
REMARK  status: ('A' for Active; 'I' for Inactive)
REMARK    1  A    between atoms: C_1  and  C_2
REMARK    2  A    between atoms: C_2  and  C_3
REMARK    3  A    between atoms: C_2  and  N_10
REMARK    4  A    between atoms: C_3  and  C_4
REMARK    5  A    between atoms: N_10  and  C_11
REMARK    6  A    between atoms: N_10  and  C_12
REMARK    7  A    between atoms: C_12  and  C_13
REMARK    8  A    between atoms: C_16  and  C_17
REMARK    9  A    between atoms: C_17  and  N_18
REMARK   10  A    between atoms: C_19  and  C_21
REMARK   11  A    between atoms: C_28  and  O_29
REMARK                            x       y       z     vdW  Elec       q    Type
REMARK                         _______ _______ _______ _____ _____    ______ ____
ROOT
ATOM      1  C   UNL     1      50.355   8.099  14.388  0.00  0.00    +0.000 A 
ATOM      2  C   UNL     1      49.861   7.654  13.159  0.00  0.00    +0.000 A 
ATOM      3  C   UNL     1      48.535   7.803  12.781  0.00  0.00    +0.000 A 
ATOM      4  C   UNL     1      47.630   8.386  13.660  0.00  0.00    +0.000 A 
ATOM      5  C   UNL     1      48.088   8.821  14.912  0.00  0.00    +0.000 A 
ATOM      6  C   UNL     1      49.440   8.685  15.271  0.00  0.00    +0.000 A 
ENDROOT
BRANCH   1   7
ATOM      7  C   UNL     1      51.805   7.874  14.791  0.00  0.00    +0.000 C 
BRANCH   7   8
ATOM      8  N   UNL     1      52.093   7.532  16.204  0.00  0.00    +0.000 NA
ATOM      9  C   UNL     1      53.457   7.955  16.538  0.00  0.00    +0.000 C 
BRANCH   8  11
ATOM     10  C   UNL     1      52.998   5.442  17.243  0.00  0.00    +0.000 C 
ATOM     11  C   UNL     1      51.762   6.142  16.643  0.00  0.00    +0.000 C 
BRANCH  11  12
ATOM     12  C   UNL     1      50.586   6.092  17.681  0.00  0.00    +0.000 C 
BRANCH  12  13
ATOM     13  C   UNL     1      49.478   5.086  17.400  0.00  0.00    +0.000 A 
ATOM     14  C   UNL     1      48.467   5.396  16.483  0.00  0.00    +0.000 A 
ATOM     15  C   UNL     1      47.456   4.474  16.199  0.00  0.00    +0.000 A 
ATOM     16  C   UNL     1      47.443   3.230  16.823  0.00  0.00    +0.000 A 
ATOM     17  C   UNL     1      48.443   2.900  17.730  0.00  0.00    +0.000 A 
ATOM     18  C   UNL     1      49.457   3.820  18.010  0.00  0.00    +0.000 A 
ENDBRANCH  12  13
ENDBRANCH  11  12
ENDBRANCH   8  11
ENDBRANCH   7   8
ENDBRANCH   1   7
BRANCH   4  19
ATOM     19  C   UNL     1      46.178   8.430  13.292  0.00  0.00    +0.000 C 
BRANCH  19  20
ATOM     20  N   UNL     1      45.708   7.099  13.014  0.00  0.00    +0.000 N 
ATOM     21  C   UNL     1      44.997   6.807  11.886  0.00  0.00    +0.000 C 
ATOM     22  O   UNL     1      44.746   7.660  11.039  0.00  0.00    +0.000 OA
ATOM     23  H   UNL     1      45.764   6.403  13.751  0.00  0.00    +0.000 HD
BRANCH  21  24
ATOM     24  C   UNL     1      44.620   5.402  11.706  0.00  0.00    +0.000 A 
ATOM     25  C   UNL     1      44.028   4.729  12.766  0.00  0.00    +0.000 A 
ATOM     26  S   UNL     1      43.571   3.135  12.390  0.00  0.00    +0.000 S 
ATOM     27  C   UNL     1      44.199   3.275  10.818  0.00  0.00    +0.000 A 
ATOM     28  N   UNL     1      44.122   2.221   9.978  0.00  0.00    +0.000 NA
ATOM     29  C   UNL     1      44.665   2.428   8.767  0.00  0.00    +0.000 A 
ATOM     30  C   UNL     1      45.272   3.598   8.357  0.00  0.00    +0.000 A 
ATOM     31  C   UNL     1      45.317   4.659   9.256  0.00  0.00    +0.000 A 
ATOM     32  C   UNL     1      44.753   4.527  10.550  0.00  0.00    +0.000 A 
BRANCH  31  33
ATOM     33  O   UNL     1      45.916   5.834   8.869  0.00  0.00    +0.000 OA
ATOM     34  H   UNL     1      46.840   5.658   8.619  0.00  0.00    +0.000 HD
ENDBRANCH  31  33
ENDBRANCH  21  24
ENDBRANCH  19  20
ENDBRANCH   4  19
TORSDOF 9
ENDMDL
MODEL 8
REMARK VINA RESULT:    -7.048      2.857      4.468
REMARK INTER + INTRA:         -12.106
REMARK INTER:                 -11.149
REMARK INTRA:                  -0.956
REMARK UNBOUND:                -1.556
REMARK  Name = 
REMARK  11 active torsions:
REMARK  status: ('A' for Active; 'I' for Inactive)
REMARK    1  A    between atoms: C_1  and  C_2
REMARK    2  A    between atoms: C_2  and  C_3
REMARK    3  A    between atoms: C_2  and  N_10
REMARK    4  A    between atoms: C_3  and  C_4
REMARK    5  A    between atoms: N_10  and  C_11
REMARK    6  A    between atoms: N_10  and  C_12
REMARK    7  A    between atoms: C_12  and  C_13
REMARK    8  A    between atoms: C_16  and  C_17
REMARK    9  A    between atoms: C_17  and  N_18
REMARK   10  A    between atoms: C_19  and  C_21
REMARK   11  A    between atoms: C_28  and  O_29
REMARK                            x       y       z     vdW  Elec       q    Type
REMARK                         _______ _______ _______ _____ _____    ______ ____
ROOT
ATOM      1  C   UNL     1      47.458   5.701  13.575  0.00  0.00    +0.000 A 
ATOM      2  C   UNL     1      46.931   4.411  13.673  0.00  0.00    +0.000 A 
ATOM      3  C   UNL     1      46.928   3.685  14.856  0.00  0.00    +0.000 A 
ATOM      4  C   UNL     1      47.499   4.232  15.999  0.00  0.00    +0.000 A 
ATOM      5  C   UNL     1      48.059   5.515  15.928  0.00  0.00    +0.000 A 
ATOM      6  C   UNL     1      48.033   6.247  14.729  0.00  0.00    +0.000 A 
ENDROOT
BRANCH   1   7
ATOM      7  C   UNL     1      47.492   6.447  12.250  0.00  0.00    +0.000 C 
BRANCH   7   8
ATOM      8  N   UNL     1      46.206   6.705  11.559  0.00  0.00    +0.000 NA
ATOM      9  C   UNL     1      45.386   7.604  12.378  0.00  0.00    +0.000 C 
BRANCH   8  11
ATOM     10  C   UNL     1      44.038   5.456  11.608  0.00  0.00    +0.000 C 
ATOM     11  C   UNL     1      45.470   5.514  11.038  0.00  0.00    +0.000 C 
BRANCH  11  12
ATOM     12  C   UNL     1      45.403   5.473   9.471  0.00  0.00    +0.000 C 
BRANCH  12  13
ATOM     13  C   UNL     1      45.767   4.149   8.813  0.00  0.00    +0.000 A 
ATOM     14  C   UNL     1      45.272   2.948   9.335  0.00  0.00    +0.000 A 
ATOM     15  C   UNL     1      45.580   1.727   8.728  0.00  0.00    +0.000 A 
ATOM     16  C   UNL     1      46.381   1.689   7.591  0.00  0.00    +0.000 A 
ATOM     17  C   UNL     1      46.876   2.871   7.052  0.00  0.00    +0.000 A 
ATOM     18  C   UNL     1      46.563   4.092   7.656  0.00  0.00    +0.000 A 
ENDBRANCH  12  13
ENDBRANCH  11  12
ENDBRANCH   8  11
ENDBRANCH   7   8
ENDBRANCH   1   7
BRANCH   4  19
ATOM     19  C   UNL     1      47.600   3.393  17.237  0.00  0.00    +0.000 C 
BRANCH  19  20
ATOM     20  N   UNL     1      48.983   3.218  17.593  0.00  0.00    +0.000 N 
ATOM     21  C   UNL     1      49.779   2.307  16.963  0.00  0.00    +0.000 C 
ATOM     22  O   UNL     1      49.363   1.608  16.043  0.00  0.00    +0.000 OA
ATOM     23  H   UNL     1      49.324   3.664  18.439  0.00  0.00    +0.000 HD
BRANCH  21  24
ATOM     24  C   UNL     1      51.180   2.265  17.395  0.00  0.00    +0.000 A 
ATOM     25  C   UNL     1      51.807   1.032  17.507  0.00  0.00    +0.000 A 
ATOM     26  S   UNL     1      53.448   1.141  17.939  0.00  0.00    +0.000 S 
ATOM     27  C   UNL     1      53.358   2.834  18.043  0.00  0.00    +0.000 A 
ATOM     28  N   UNL     1      54.459   3.536  18.389  0.00  0.00    +0.000 NA
ATOM     29  C   UNL     1      54.276   4.864  18.463  0.00  0.00    +0.000 A 
ATOM     30  C   UNL     1      53.085   5.518  18.224  0.00  0.00    +0.000 A 
ATOM     31  C   UNL     1      51.982   4.752  17.861  0.00  0.00    +0.000 A 
ATOM     32  C   UNL     1      52.093   3.342  17.746  0.00  0.00    +0.000 A 
BRANCH  31  33
ATOM     33  O   UNL     1      50.784   5.381  17.618  0.00  0.00    +0.000 OA
ATOM     34  H   UNL     1      50.464   5.795  18.439  0.00  0.00    +0.000 HD
ENDBRANCH  31  33
ENDBRANCH  21  24
ENDBRANCH  19  20
ENDBRANCH   4  19
TORSDOF 9
ENDMDL
MODEL 9
REMARK VINA RESULT:    -6.921      4.061      5.861
REMARK INTER + INTRA:         -11.916
REMARK INTER:                 -10.661
REMARK INTRA:                  -1.255
REMARK UNBOUND:                -1.556
REMARK  Name = 
REMARK  11 active torsions:
REMARK  status: ('A' for Active; 'I' for Inactive)
REMARK    1  A    between atoms: C_1  and  C_2
REMARK    2  A    between atoms: C_2  and  C_3
REMARK    3  A    between atoms: C_2  and  N_10
REMARK    4  A    between atoms: C_3  and  C_4
REMARK    5  A    between atoms: N_10  and  C_11
REMARK    6  A    between atoms: N_10  and  C_12
REMARK    7  A    between atoms: C_12  and  C_13
REMARK    8  A    between atoms: C_16  and  C_17
REMARK    9  A    between atoms: C_17  and  N_18
REMARK   10  A    between atoms: C_19  and  C_21
REMARK   11  A    between atoms: C_28  and  O_29
REMARK                            x       y       z     vdW  Elec       q    Type
REMARK                         _______ _______ _______ _____ _____    ______ ____
ROOT
ATOM      1  C   UNL     1      45.277   6.930  11.683  0.00  0.00    +0.000 A 
ATOM      2  C   UNL     1      46.587   6.531  11.408  0.00  0.00    +0.000 A 
ATOM      3  C   UNL     1      47.697   7.147  11.968  0.00  0.00    +0.000 A 
ATOM      4  C   UNL     1      47.524   8.234  12.816  0.00  0.00    +0.000 A 
ATOM      5  C   UNL     1      46.224   8.677  13.093  0.00  0.00    +0.000 A 
ATOM      6  C   UNL     1      45.108   8.026  12.537  0.00  0.00    +0.000 A 
ENDROOT
BRANCH   1   7
ATOM      7  C   UNL     1      44.085   6.265  11.011  0.00  0.00    +0.000 C 
BRANCH   7   8
ATOM      8  N   UNL     1      43.795   4.850  11.343  0.00  0.00    +0.000 NA
ATOM      9  C   UNL     1      43.228   4.773  12.693  0.00  0.00    +0.000 C 
BRANCH   8  11
ATOM     10  C   UNL     1      45.287   3.127  12.378  0.00  0.00    +0.000 C 
ATOM     11  C   UNL     1      44.884   3.860  11.083  0.00  0.00    +0.000 C 
BRANCH  11  12
ATOM     12  C   UNL     1      44.500   2.801   9.990  0.00  0.00    +0.000 C 
BRANCH  12  13
ATOM     13  C   UNL     1      45.437   2.690   8.795  0.00  0.00    +0.000 A 
ATOM     14  C   UNL     1      45.982   1.448   8.446  0.00  0.00    +0.000 A 
ATOM     15  C   UNL     1      46.826   1.327   7.339  0.00  0.00    +0.000 A 
ATOM     16  C   UNL     1      47.135   2.442   6.564  0.00  0.00    +0.000 A 
ATOM     17  C   UNL     1      46.598   3.682   6.891  0.00  0.00    +0.000 A 
ATOM     18  C   UNL     1      45.749   3.801   7.994  0.00  0.00    +0.000 A 
ENDBRANCH  12  13
ENDBRANCH  11  12
ENDBRANCH   8  11
ENDBRANCH   7   8
ENDBRANCH   1   7
BRANCH   4  19
ATOM     19  C   UNL     1      48.732   8.968  13.316  0.00  0.00    +0.000 C 
BRANCH  19  20
ATOM     20  N   UNL     1      49.522   9.418  12.202  0.00  0.00    +0.000 N 
ATOM     21  C   UNL     1      50.814   9.016  12.026  0.00  0.00    +0.000 C 
ATOM     22  O   UNL     1      51.359   8.229  12.796  0.00  0.00    +0.000 OA
ATOM     23  H   UNL     1      49.164  10.178  11.631  0.00  0.00    +0.000 HD
BRANCH  21  24
ATOM     24  C   UNL     1      51.488   9.516  10.824  0.00  0.00    +0.000 A 
ATOM     25  C   UNL     1      51.330  10.850  10.476  0.00  0.00    +0.000 A 
ATOM     26  S   UNL     1      52.231  11.307   9.108  0.00  0.00    +0.000 S 
ATOM     27  C   UNL     1      52.817   9.726   8.906  0.00  0.00    +0.000 A 
ATOM     28  N   UNL     1      53.652   9.455   7.879  0.00  0.00    +0.000 NA
ATOM     29  C   UNL     1      54.041   8.172   7.796  0.00  0.00    +0.000 A 
ATOM     30  C   UNL     1      53.650   7.165   8.655  0.00  0.00    +0.000 A 
ATOM     31  C   UNL     1      52.797   7.497   9.703  0.00  0.00    +0.000 A 
ATOM     32  C   UNL     1      52.351   8.833   9.871  0.00  0.00    +0.000 A 
BRANCH  31  33
ATOM     33  O   UNL     1      52.394   6.510  10.571  0.00  0.00    +0.000 OA
ATOM     34  H   UNL     1      51.424   6.431  10.542  0.00  0.00    +0.000 HD
ENDBRANCH  31  33
ENDBRANCH  21  24
ENDBRANCH  19  20
ENDBRANCH   4  19
TORSDOF 9
ENDMDL
