MODEL 1
REMARK VINA RESULT:    -8.058      0.000      0.000
REMARK INTER + INTRA:         -11.792
REMARK INTER:                 -10.885
REMARK INTRA:                  -0.907
REMARK UNBOUND:                -0.907
REMARK  Name = 
REMARK  7 active torsions:
REMARK  status: ('A' for Active; 'I' for Inactive)
REMARK    1  A    between atoms: C_1  and  N_2
REMARK    2  A    between atoms: N_2  and  C_3
REMARK    3  A    between atoms: C_3  and  C_4
REMARK    4  A    between atoms: C_7  and  C_8
REMARK    5  A    between atoms: C_8  and  N_9
REMARK    6  A    between atoms: C_10  and  C_12
REMARK    7  A    between atoms: C_24  and  C_26
REMARK                            x       y       z     vdW  Elec       q    Type
REMARK                         _______ _______ _______ _____ _____    ______ ____
ROOT
ATOM      1  C   UNL     1      46.386   4.604  13.373  0.00  0.00    +0.000 A 
ATOM      2  C   UNL     1      46.702   4.200  14.679  0.00  0.00    +0.000 A 
ATOM      3  C   UNL     1      47.575   4.955  15.466  0.00  0.00    +0.000 A 
ATOM      4  C   UNL     1      48.140   6.134  14.968  0.00  0.00    +0.000 A 
ATOM      5  C   UNL     1      47.832   6.532  13.658  0.00  0.00    +0.000 A 
ATOM      6  C   UNL     1      46.956   5.780  12.872  0.00  0.00    +0.000 A 
ENDROOT
BRANCH   1   7
ATOM      7  C   UNL     1      45.477   3.761  12.514  0.00  0.00    +0.000 C 
BRANCH   7   9
ATOM      8  C   UNL     1      43.311   4.985  13.035  0.00  0.00    +0.000 C 
ATOM      9  N   UNL     1      44.204   4.347  12.079  0.00  0.00    +0.000 N 
ATOM     10  C   UNL     1      43.894   4.529  10.718  0.00  0.00    +0.000 C 
ATOM     11  O   UNL     1      42.958   5.243  10.352  0.00  0.00    +0.000 OA
BRANCH  10  12
ATOM     12  C   UNL     1      44.715   3.875   9.655  0.00  0.00    +0.000 A 
ATOM     13  C   UNL     1      45.452   4.670   8.788  0.00  0.00    +0.000 A 
ATOM     14  N   UNL     1      46.223   4.151   7.796  0.00  0.00    +0.000 NA
ATOM     15  C   UNL     1      46.202   2.802   7.693  0.00  0.00    +0.000 A 
ATOM     16  C   UNL     1      45.454   2.006   8.544  0.00  0.00    +0.000 A 
ATOM     17  N   UNL     1      44.699   2.518   9.543  0.00  0.00    +0.000 NA
ENDBRANCH  10  12
ENDBRANCH   7   9
ENDBRANCH   1   7
BRANCH   4  18
ATOM     18  C   UNL     1      49.120   6.929  15.791  0.00  0.00    +0.000 C 
BRANCH  18  19
ATOM     19  N   UNL     1      50.150   6.064  16.313  0.00  0.00    +0.000 N 
ATOM     20  C   UNL     1      50.215   5.730  17.640  0.00  0.00    +0.000 C 
ATOM     21  O   UNL     1      49.373   6.103  18.450  0.00  0.00    +0.000 OA
ATOM     22  H   UNL     1      50.967   5.933  15.726  0.00  0.00    +0.000 HD
BRANCH  20  23
ATOM     23  C   UNL     1      51.319   4.841  18.027  0.00  0.00    +0.000 A 
ATOM     24  C   UNL     1      52.427   5.364  18.684  0.00  0.00    +0.000 A 
ATOM     25  S   UNL     1      53.578   4.182  19.122  0.00  0.00    +0.000 S 
ATOM     26  C   UNL     1      52.667   2.942  18.396  0.00  0.00    +0.000 A 
ATOM     27  N   UNL     1      53.109   1.655  18.397  0.00  0.00    +0.000 NA
ATOM     28  C   UNL     1      52.331   0.824  17.789  0.00  0.00    +0.000 A 
ATOM     29  N   UNL     1      51.149   1.160  17.183  0.00  0.00    +0.000 N 
ATOM     30  C   UNL     1      50.654   2.442  17.174  0.00  0.00    +0.000 A 
ATOM     31  O   UNL     1      49.572   2.699  16.650  0.00  0.00    +0.000 OA
ATOM     32  C   UNL     1      51.492   3.419  17.843  0.00  0.00    +0.000 A 
ATOM     33  H   UNL     1      50.582   0.461  16.725  0.00  0.00    +0.000 HD
ENDBRANCH  20  23
ENDBRANCH  18  19
ENDBRANCH   4  18
TORSDOF 6
ENDMDL
MODEL 2
REMARK VINA RESULT:    -7.476      2.507      2.933
REMARK INTER + INTRA:         -11.005
REMARK INTER:                 -10.732
REMARK INTRA:                  -0.273
REMARK UNBOUND:                -0.907
REMARK  Name = 
REMARK  7 active torsions:
REMARK  status: ('A' for Active; 'I' for Inactive)
REMARK    1  A    between atoms: C_1  and  N_2
REMARK    2  A    between atoms: N_2  and  C_3
REMARK    3  A    between atoms: C_3  and  C_4
REMARK    4  A    between atoms: C_7  and  C_8
REMARK    5  A    between atoms: C_8  and  N_9
REMARK    6  A    between atoms: C_10  and  C_12
REMARK    7  A    between atoms: C_24  and  C_26
REMARK                            x       y       z     vdW  Elec       q    Type
REMARK                         _______ _______ _______ _____ _____    ______ ____
ROOT
ATOM      1  C   UNL     1      45.382   6.617  11.537  0.00  0.00    +0.000 A 
ATOM      2  C   UNL     1      44.985   7.843  12.089  0.00  0.00    +0.000 A 
ATOM      3  C   UNL     1      45.839   8.554  12.936  0.00  0.00    +0.000 A 
ATOM      4  C   UNL     1      47.113   8.058  13.238  0.00  0.00    +0.000 A 
ATOM      5  C   UNL     1      47.507   6.826  12.694  0.00  0.00    +0.000 A 
ATOM      6  C   UNL     1      46.654   6.117  11.844  0.00  0.00    +0.000 A 
ENDROOT
BRANCH   1   7
ATOM      7  C   UNL     1      44.438   5.834  10.659  0.00  0.00    +0.000 C 
BRANCH   7   9
ATOM      8  C   UNL     1      42.945   4.637  12.332  0.00  0.00    +0.000 C 
ATOM      9  N   UNL     1      43.860   4.599  11.201  0.00  0.00    +0.000 N 
ATOM     10  C   UNL     1      43.970   3.368  10.527  0.00  0.00    +0.000 C 
ATOM     11  O   UNL     1      43.281   2.392  10.834  0.00  0.00    +0.000 OA
BRANCH  10  12
ATOM     12  C   UNL     1      44.918   3.205   9.384  0.00  0.00    +0.000 A 
ATOM     13  C   UNL     1      45.229   4.311   8.604  0.00  0.00    +0.000 A 
ATOM     14  N   UNL     1      46.083   4.244   7.548  0.00  0.00    +0.000 NA
ATOM     15  C   UNL     1      46.591   3.017   7.292  0.00  0.00    +0.000 A 
ATOM     16  C   UNL     1      46.270   1.908   8.057  0.00  0.00    +0.000 A 
ATOM     17  N   UNL     1      45.434   1.974   9.118  0.00  0.00    +0.000 NA
ENDBRANCH  10  12
ENDBRANCH   7   9
ENDBRANCH   1   7
BRANCH   4  18
ATOM     18  C   UNL     1      48.022   8.793  14.188  0.00  0.00    +0.000 C 
BRANCH  18  19
ATOM     19  N   UNL     1      48.269   7.992  15.363  0.00  0.00    +0.000 N 
ATOM     20  C   UNL     1      49.489   7.422  15.612  0.00  0.00    +0.000 C 
ATOM     21  O   UNL     1      50.456   7.603  14.879  0.00  0.00    +0.000 OA
ATOM     22  H   UNL     1      47.449   7.646  15.851  0.00  0.00    +0.000 HD
BRANCH  20  23
ATOM     23  C   UNL     1      49.592   6.633  16.846  0.00  0.00    +0.000 A 
ATOM     24  C   UNL     1      50.400   7.081  17.885  0.00  0.00    +0.000 A 
ATOM     25  S   UNL     1      50.346   6.082  19.267  0.00  0.00    +0.000 S 
ATOM     26  C   UNL     1      49.291   4.986  18.506  0.00  0.00    +0.000 A 
ATOM     27  N   UNL     1      48.859   3.867  19.149  0.00  0.00    +0.000 NA
ATOM     28  C   UNL     1      48.083   3.113  18.444  0.00  0.00    +0.000 A 
ATOM     29  N   UNL     1      47.698   3.377  17.155  0.00  0.00    +0.000 N 
ATOM     30  C   UNL     1      48.093   4.503  16.474  0.00  0.00    +0.000 A 
ATOM     31  O   UNL     1      47.698   4.722  15.331  0.00  0.00    +0.000 OA
ATOM     32  C   UNL     1      48.969   5.385  17.221  0.00  0.00    +0.000 A 
ATOM     33  H   UNL     1      47.085   2.747  16.657  0.00  0.00    +0.000 HD
ENDBRANCH  20  23
ENDBRANCH  18  19
ENDBRANCH   4  18
TORSDOF 6
ENDMDL
MODEL 3
REMARK VINA RESULT:    -7.361      3.553      8.323
REMARK INTER + INTRA:         -10.849
REMARK INTER:                  -9.548
REMARK INTRA:                  -1.301
REMARK UNBOUND:                -0.907
REMARK  Name = 
REMARK  7 active torsions:
REMARK  status: ('A' for Active; 'I' for Inactive)
REMARK    1  A    between atoms: C_1  and  N_2
REMARK    2  A    between atoms: N_2  and  C_3
REMARK    3  A    between atoms: C_3  and  C_4
REMARK    4  A    between atoms: C_7  and  C_8
REMARK    5  A    between atoms: C_8  and  N_9
REMARK    6  A    between atoms: C_10  and  C_12
REMARK    7  A    between atoms: C_24  and  C_26
REMARK                            x       y       z     vdW  Elec       q    Type
REMARK                         _______ _______ _______ _____ _____    ______ ____
ROOT
ATOM      1  C   UNL     1      49.010   7.525  16.239  0.00  0.00    +0.000 A 
ATOM      2  C   UNL     1      49.489   6.677  15.230  0.00  0.00    +0.000 A 
ATOM      3  C   UNL     1      49.222   6.947  13.885  0.00  0.00    +0.000 A 
ATOM      4  C   UNL     1      48.479   8.077  13.523  0.00  0.00    +0.000 A 
ATOM      5  C   UNL     1      47.990   8.919  14.533  0.00  0.00    +0.000 A 
ATOM      6  C   UNL     1      48.261   8.652  15.877  0.00  0.00    +0.000 A 
ENDROOT
BRANCH   1   7
ATOM      7  C   UNL     1      49.266   7.204  17.690  0.00  0.00    +0.000 C 
BRANCH   7   9
ATOM      8  C   UNL     1      47.512   8.049  19.324  0.00  0.00    +0.000 C 
ATOM      9  N   UNL     1      48.106   6.965  18.556  0.00  0.00    +0.000 N 
ATOM     10  C   UNL     1      47.379   5.760  18.512  0.00  0.00    +0.000 C 
ATOM     11  O   UNL     1      46.269   5.648  19.037  0.00  0.00    +0.000 OA
BRANCH  10  12
ATOM     12  C   UNL     1      47.922   4.567  17.795  0.00  0.00    +0.000 A 
ATOM     13  C   UNL     1      47.335   4.175  16.599  0.00  0.00    +0.000 A 
ATOM     14  N   UNL     1      47.771   3.101  15.888  0.00  0.00    +0.000 NA
ATOM     15  C   UNL     1      48.804   2.423  16.440  0.00  0.00    +0.000 A 
ATOM     16  C   UNL     1      49.381   2.801  17.640  0.00  0.00    +0.000 A 
ATOM     17  N   UNL     1      48.960   3.878  18.343  0.00  0.00    +0.000 NA
ENDBRANCH  10  12
ENDBRANCH   7   9
ENDBRANCH   1   7
BRANCH   4  18
ATOM     18  C   UNL     1      48.143   8.349  12.079  0.00  0.00    +0.000 C 
BRANCH  18  19
ATOM     19  N   UNL     1      47.479   7.208  11.497  0.00  0.00    +0.000 N 
ATOM     20  C   UNL     1      46.114   7.118  11.430  0.00  0.00    +0.000 C 
ATOM     21  O   UNL     1      45.379   8.023  11.812  0.00  0.00    +0.000 OA
ATOM     22  H   UNL     1      48.039   6.370  11.388  0.00  0.00    +0.000 HD
BRANCH  20  23
ATOM     23  C   UNL     1      45.578   5.898  10.812  0.00  0.00    +0.000 A 
ATOM     24  C   UNL     1      45.815   5.647   9.465  0.00  0.00    +0.000 A 
ATOM     25  S   UNL     1      45.184   4.154   8.931  0.00  0.00    +0.000 S 
ATOM     26  C   UNL     1      44.521   3.819  10.461  0.00  0.00    +0.000 A 
ATOM     27  N   UNL     1      43.816   2.678  10.685  0.00  0.00    +0.000 NA
ATOM     28  C   UNL     1      43.350   2.566  11.884  0.00  0.00    +0.000 A 
ATOM     29  N   UNL     1      43.527   3.490  12.881  0.00  0.00    +0.000 N 
ATOM     30  C   UNL     1      44.247   4.647  12.706  0.00  0.00    +0.000 A 
ATOM     31  O   UNL     1      44.413   5.435  13.634  0.00  0.00    +0.000 OA
ATOM     32  C   UNL     1      44.792   4.824  11.374  0.00  0.00    +0.000 A 
ATOM     33  H   UNL     1      43.138   3.342  13.801  0.00  0.00    +0.000 HD
ENDBRANCH  20  23
ENDBRANCH  18  19
ENDBRANCH   4  18
TORSDOF 6
ENDMDL
MODEL 4
REMARK VINA RESULT:    -7.215      1.963      3.353
REMARK INTER + INTRA:         -10.653
REMARK INTER:                  -9.717
REMARK INTRA:                  -0.936
REMARK UNBOUND:                -0.907
REMARK  Name = 
REMARK  7 active torsions:
REMARK  status: ('A' for Active; 'I' for Inactive)
REMARK    1  A    between atoms: C_1  and  N_2
REMARK    2  A    between atoms: N_2  and  C_3
REMARK    3  A    between atoms: C_3  and  C_4
REMARK    4  A    between atoms: C_7  and  C_8
REMARK    5  A    between atoms: C_8  and  N_9
REMARK    6  A    between atoms: C_10  and  C_12
REMARK    7  A    between atoms: C_24  and  C_26
REMARK                            x       y       z     vdW  Elec       q    Type
REMARK                         _______ _______ _______ _____ _____    ______ ____
ROOT
ATOM      1  C   UNL     1      47.446   5.710  13.743  0.00  0.00    +0.000 A 
ATOM      2  C   UNL     1      46.887   4.423  13.747  0.00  0.00    +0.000 A 
ATOM      3  C   UNL     1      46.956   3.620  14.889  0.00  0.00    +0.000 A 
ATOM      4  C   UNL     1      47.574   4.093  16.052  0.00  0.00    +0.000 A 
ATOM      5  C   UNL     1      48.142   5.375  16.045  0.00  0.00    +0.000 A 
ATOM      6  C   UNL     1      48.071   6.180  14.905  0.00  0.00    +0.000 A 
ENDROOT
BRANCH   1   7
ATOM      7  C   UNL     1      47.407   6.553  12.494  0.00  0.00    +0.000 C 
BRANCH   7   9
ATOM      8  C   UNL     1      46.644   8.953  12.840  0.00  0.00    +0.000 C 
ATOM      9  N   UNL     1      46.375   7.593  12.399  0.00  0.00    +0.000 N 
ATOM     10  C   UNL     1      45.182   7.394  11.678  0.00  0.00    +0.000 C 
ATOM     11  O   UNL     1      44.438   8.330  11.378  0.00  0.00    +0.000 OA
BRANCH  10  12
ATOM     12  C   UNL     1      44.785   6.028  11.222  0.00  0.00    +0.000 A 
ATOM     13  C   UNL     1      43.770   5.362  11.896  0.00  0.00    +0.000 A 
ATOM     14  N   UNL     1      43.351   4.118  11.542  0.00  0.00    +0.000 NA
ATOM     15  C   UNL     1      44.011   3.560  10.502  0.00  0.00    +0.000 A 
ATOM     16  C   UNL     1      45.035   4.214   9.838  0.00  0.00    +0.000 A 
ATOM     17  N   UNL     1      45.444   5.458  10.176  0.00  0.00    +0.000 NA
ENDBRANCH  10  12
ENDBRANCH   7   9
ENDBRANCH   1   7
BRANCH   4  18
ATOM     18  C   UNL     1      47.696   3.216  17.272  0.00  0.00    +0.000 C 
BRANCH  18  19
ATOM     19  N   UNL     1      49.083   3.048  17.630  0.00  0.00    +0.000 N 
ATOM     20  C   UNL     1      49.919   2.219  16.929  0.00  0.00    +0.000 C 
ATOM     21  O   UNL     1      49.552   1.614  15.928  0.00  0.00    +0.000 OA
ATOM     22  H   UNL     1      49.346   3.348  18.563  0.00  0.00    +0.000 HD
BRANCH  20  23
ATOM     23  C   UNL     1      51.306   2.148  17.410  0.00  0.00    +0.000 A 
ATOM     24  C   UNL     1      51.911   0.909  17.585  0.00  0.00    +0.000 A 
ATOM     25  S   UNL     1      53.542   1.013  18.077  0.00  0.00    +0.000 S 
ATOM     26  C   UNL     1      53.478   2.712  18.133  0.00  0.00    +0.000 A 
ATOM     27  N   UNL     1      54.562   3.442  18.511  0.00  0.00    +0.000 NA
ATOM     28  C   UNL     1      54.364   4.718  18.532  0.00  0.00    +0.000 A 
ATOM     29  N   UNL     1      53.182   5.331  18.209  0.00  0.00    +0.000 N 
ATOM     30  C   UNL     1      52.068   4.635  17.804  0.00  0.00    +0.000 A 
ATOM     31  O   UNL     1      51.035   5.223  17.488  0.00  0.00    +0.000 OA
ATOM     32  C   UNL     1      52.235   3.196  17.764  0.00  0.00    +0.000 A 
ATOM     33  H   UNL     1      53.091   6.336  18.242  0.00  0.00    +0.000 HD
ENDBRANCH  20  23
ENDBRANCH  18  19
ENDBRANCH   4  18
TORSDOF 6
ENDMDL
MODEL 5
REMARK VINA RESULT:    -7.089      3.102      9.224
REMARK INTER + INTRA:         -10.482
REMARK INTER:                  -9.410
REMARK INTRA:                  -1.072
REMARK UNBOUND:                -0.907
REMARK  Name = 
REMARK  7 active torsions:
REMARK  status: ('A' for Active; 'I' for Inactive)
REMARK    1  A    between atoms: C_1  and  N_2
REMARK    2  A    between atoms: N_2  and  C_3
REMARK    3  A    between atoms: C_3  and  C_4
REMARK    4  A    between atoms: C_7  and  C_8
REMARK    5  A    between atoms: C_8  and  N_9
REMARK    6  A    between atoms: C_10  and  C_12
REMARK    7  A    between atoms: C_24  and  C_26
REMARK                            x       y       z     vdW  Elec       q    Type
REMARK                         _______ _______ _______ _____ _____    ______ ____
ROOT
ATOM      1  C   UNL     1      50.261   7.196  15.598  0.00  0.00    +0.000 A 
ATOM      2  C   UNL     1      48.969   6.653  15.554  0.00  0.00    +0.000 A 
ATOM      3  C   UNL     1      48.180   6.782  14.408  0.00  0.00    +0.000 A 
ATOM      4  C   UNL     1      48.672   7.447  13.279  0.00  0.00    +0.000 A 
ATOM      5  C   UNL     1      49.961   8.000  13.326  0.00  0.00    +0.000 A 
ATOM      6  C   UNL     1      50.751   7.867  14.471  0.00  0.00    +0.000 A 
ENDROOT
BRANCH   1   7
ATOM      7  C   UNL     1      51.090   7.091  16.853  0.00  0.00    +0.000 C 
BRANCH   7   9
ATOM      8  C   UNL     1      53.552   6.558  16.513  0.00  0.00    +0.000 C 
ATOM      9  N   UNL     1      52.204   6.135  16.863  0.00  0.00    +0.000 N 
ATOM     10  C   UNL     1      52.078   4.850  17.422  0.00  0.00    +0.000 C 
ATOM     11  O   UNL     1      53.060   4.145  17.666  0.00  0.00    +0.000 OA
BRANCH  10  12
ATOM     12  C   UNL     1      50.734   4.297  17.770  0.00  0.00    +0.000 A 
ATOM     13  C   UNL     1      50.139   4.674  18.966  0.00  0.00    +0.000 A 
ATOM     14  N   UNL     1      48.920   4.215  19.353  0.00  0.00    +0.000 NA
ATOM     15  C   UNL     1      48.333   3.343  18.501  0.00  0.00    +0.000 A 
ATOM     16  C   UNL     1      48.931   2.951  17.315  0.00  0.00    +0.000 A 
ATOM     17  N   UNL     1      50.137   3.418  16.919  0.00  0.00    +0.000 NA
ENDBRANCH  10  12
ENDBRANCH   7   9
ENDBRANCH   1   7
BRANCH   4  18
ATOM     18  C   UNL     1      47.811   7.634  12.057  0.00  0.00    +0.000 C 
BRANCH  18  19
ATOM     19  N   UNL     1      47.044   6.440  11.798  0.00  0.00    +0.000 N 
ATOM     20  C   UNL     1      45.675   6.452  11.748  0.00  0.00    +0.000 C 
ATOM     21  O   UNL     1      45.026   7.486  11.865  0.00  0.00    +0.000 OA
ATOM     22  H   UNL     1      47.530   5.559  11.924  0.00  0.00    +0.000 HD
BRANCH  20  23
ATOM     23  C   UNL     1      45.030   5.161  11.476  0.00  0.00    +0.000 A 
ATOM     24  C   UNL     1      44.301   4.531  12.478  0.00  0.00    +0.000 A 
ATOM     25  S   UNL     1      43.561   3.079  11.970  0.00  0.00    +0.000 S 
ATOM     26  C   UNL     1      44.237   3.210  10.415  0.00  0.00    +0.000 A 
ATOM     27  N   UNL     1      44.009   2.259   9.469  0.00  0.00    +0.000 NA
ATOM     28  C   UNL     1      44.604   2.473   8.343  0.00  0.00    +0.000 A 
ATOM     29  N   UNL     1      45.405   3.553   8.076  0.00  0.00    +0.000 N 
ATOM     30  C   UNL     1      45.647   4.547   8.993  0.00  0.00    +0.000 A 
ATOM     31  O   UNL     1      46.342   5.519   8.704  0.00  0.00    +0.000 OA
ATOM     32  C   UNL     1      45.003   4.355  10.278  0.00  0.00    +0.000 A 
ATOM     33  H   UNL     1      45.840   3.665   7.172  0.00  0.00    +0.000 HD
ENDBRANCH  20  23
ENDBRANCH  18  19
ENDBRANCH   4  18
TORSDOF 6
ENDMDL
MODEL 6
REMARK VINA RESULT:    -7.068      2.955      3.801
REMARK INTER + INTRA:         -10.454
REMARK INTER:                 -10.249
REMARK INTRA:                  -0.204
REMARK UNBOUND:                -0.907
REMARK  Name = 
REMARK  7 active torsions:
REMARK  status: ('A' for Active; 'I' for Inactive)
REMARK    1  A    between atoms: C_1  and  N_2
REMARK    2  A    between atoms: N_2  and  C_3
REMARK    3  A    between atoms: C_3  and  C_4
REMARK    4  A    between atoms: C_7  and  C_8
REMARK    5  A    between atoms: C_8  and  N_9
REMARK    6  A    between atoms: C_10  and  C_12
REMARK    7  A    between atoms: C_24  and  C_26
REMARK                            x       y       z     vdW  Elec       q    Type
REMARK                         _______ _______ _______ _____ _____    ______ ____
ROOT
ATOM      1  C   UNL     1      45.646   6.468  11.938  0.00  0.00    +0.000 A 
ATOM      2  C   UNL     1      45.445   7.784  12.382  0.00  0.00    +0.000 A 
ATOM      3  C   UNL     1      46.360   8.393  13.244  0.00  0.00    +0.000 A 
ATOM      4  C   UNL     1      47.501   7.702  13.670  0.00  0.00    +0.000 A 
ATOM      5  C   UNL     1      47.696   6.383  13.235  0.00  0.00    +0.000 A 
ATOM      6  C   UNL     1      46.784   5.775  12.369  0.00  0.00    +0.000 A 
ENDROOT
BRANCH   1   7
ATOM      7  C   UNL     1      44.632   5.803  11.041  0.00  0.00    +0.000 C 
BRANCH   7   9
ATOM      8  C   UNL     1      43.119   4.620  12.707  0.00  0.00    +0.000 C 
ATOM      9  N   UNL     1      43.976   4.585  11.531  0.00  0.00    +0.000 N 
ATOM     10  C   UNL     1      43.950   3.398  10.775  0.00  0.00    +0.000 C 
ATOM     11  O   UNL     1      43.195   2.463  11.054  0.00  0.00    +0.000 OA
BRANCH  10  12
ATOM     12  C   UNL     1      44.829   3.236   9.579  0.00  0.00    +0.000 A 
ATOM     13  C   UNL     1      45.099   4.344   8.786  0.00  0.00    +0.000 A 
ATOM     14  N   UNL     1      45.889   4.278   7.682  0.00  0.00    +0.000 NA
ATOM     15  C   UNL     1      46.376   3.050   7.391  0.00  0.00    +0.000 A 
ATOM     16  C   UNL     1      46.095   1.939   8.169  0.00  0.00    +0.000 A 
ATOM     17  N   UNL     1      45.323   2.004   9.277  0.00  0.00    +0.000 NA
ENDBRANCH  10  12
ENDBRANCH   7   9
ENDBRANCH   1   7
BRANCH   4  18
ATOM     18  C   UNL     1      48.467   8.333  14.639  0.00  0.00    +0.000 C 
BRANCH  18  19
ATOM     19  N   UNL     1      48.390   7.676  15.921  0.00  0.00    +0.000 N 
ATOM     20  C   UNL     1      49.327   6.764  16.329  0.00  0.00    +0.000 C 
ATOM     21  O   UNL     1      50.314   6.494  15.652  0.00  0.00    +0.000 OA
ATOM     22  H   UNL     1      47.490   7.706  16.387  0.00  0.00    +0.000 HD
BRANCH  20  23
ATOM     23  C   UNL     1      49.118   6.176  17.658  0.00  0.00    +0.000 A 
ATOM     24  C   UNL     1      48.908   4.807  17.781  0.00  0.00    +0.000 A 
ATOM     25  S   UNL     1      48.756   4.285  19.399  0.00  0.00    +0.000 S 
ATOM     26  C   UNL     1      48.903   5.874  19.987  0.00  0.00    +0.000 A 
ATOM     27  N   UNL     1      48.837   6.137  21.320  0.00  0.00    +0.000 NA
ATOM     28  C   UNL     1      48.938   7.388  21.623  0.00  0.00    +0.000 A 
ATOM     29  N   UNL     1      49.103   8.401  20.714  0.00  0.00    +0.000 N 
ATOM     30  C   UNL     1      49.194   8.181  19.361  0.00  0.00    +0.000 A 
ATOM     31  O   UNL     1      49.377   9.112  18.579  0.00  0.00    +0.000 OA
ATOM     32  C   UNL     1      49.084   6.790  18.965  0.00  0.00    +0.000 A 
ATOM     33  H   UNL     1      49.179   9.362  21.015  0.00  0.00    +0.000 HD
ENDBRANCH  20  23
ENDBRANCH  18  19
ENDBRANCH   4  18
TORSDOF 6
ENDMDL
MODEL 7
REMARK VINA RESULT:    -7.044      2.544      3.077
REMARK INTER + INTRA:         -10.422
REMARK INTER:                  -9.331
REMARK INTRA:                  -1.091
REMARK UNBOUND:                -0.907
REMARK  Name = 
REMARK  7 active torsions:
REMARK  status: ('A' for Active; 'I' for Inactive)
REMARK    1  A    between atoms: C_1  and  N_2
REMARK    2  A    between atoms: N_2  and  C_3
REMARK    3  A    between atoms: C_3  and  C_4
REMARK    4  A    between atoms: C_7  and  C_8
REMARK    5  A    between atoms: C_8  and  N_9
REMARK    6  A    between atoms: C_10  and  C_12
REMARK    7  A    between atoms: C_24  and  C_26
REMARK                            x       y       z     vdW  Elec       q    Type
REMARK                         _______ _______ _______ _____ _____    ______ ____
ROOT
ATOM      1  C   UNL     1      46.421   4.680  13.237  0.00  0.00    +0.000 A 
ATOM      2  C   UNL     1      46.822   4.423  14.556  0.00  0.00    +0.000 A 
ATOM      3  C   UNL     1      47.731   5.266  15.202  0.00  0.00    +0.000 A 
ATOM      4  C   UNL     1      48.246   6.389  14.545  0.00  0.00    +0.000 A 
ATOM      5  C   UNL     1      47.853   6.640  13.222  0.00  0.00    +0.000 A 
ATOM      6  C   UNL     1      46.941   5.800  12.578  0.00  0.00    +0.000 A 
ENDROOT
BRANCH   1   7
ATOM      7  C   UNL     1      45.473   3.742  12.532  0.00  0.00    +0.000 C 
BRANCH   7   9
ATOM      8  C   UNL     1      43.246   4.862  13.032  0.00  0.00    +0.000 C 
ATOM      9  N   UNL     1      44.183   4.278  12.083  0.00  0.00    +0.000 N 
ATOM     10  C   UNL     1      43.888   4.465  10.720  0.00  0.00    +0.000 C 
ATOM     11  O   UNL     1      42.928   5.143  10.347  0.00  0.00    +0.000 OA
BRANCH  10  12
ATOM     12  C   UNL     1      44.755   3.864   9.662  0.00  0.00    +0.000 A 
ATOM     13  C   UNL     1      45.487   4.703   8.833  0.00  0.00    +0.000 A 
ATOM     14  N   UNL     1      46.298   4.233   7.848  0.00  0.00    +0.000 NA
ATOM     15  C   UNL     1      46.323   2.887   7.713  0.00  0.00    +0.000 A 
ATOM     16  C   UNL     1      45.581   2.047   8.527  0.00  0.00    +0.000 A 
ATOM     17  N   UNL     1      44.786   2.510   9.518  0.00  0.00    +0.000 NA
ENDBRANCH  10  12
ENDBRANCH   7   9
ENDBRANCH   1   7
BRANCH   4  18
ATOM     18  C   UNL     1      49.264   7.275  15.215  0.00  0.00    +0.000 C 
BRANCH  18  19
ATOM     19  N   UNL     1      49.082   7.251  16.646  0.00  0.00    +0.000 N 
ATOM     20  C   UNL     1      49.947   7.883  17.500  0.00  0.00    +0.000 C 
ATOM     21  O   UNL     1      50.895   8.549  17.095  0.00  0.00    +0.000 OA
ATOM     22  H   UNL     1      48.459   6.537  17.007  0.00  0.00    +0.000 HD
BRANCH  20  23
ATOM     23  C   UNL     1      49.636   7.772  18.931  0.00  0.00    +0.000 A 
ATOM     24  C   UNL     1      49.543   8.921  19.707  0.00  0.00    +0.000 A 
ATOM     25  S   UNL     1      49.104   8.613  21.328  0.00  0.00    +0.000 S 
ATOM     26  C   UNL     1      49.083   6.932  21.064  0.00  0.00    +0.000 A 
ATOM     27  N   UNL     1      48.793   6.068  22.074  0.00  0.00    +0.000 NA
ATOM     28  C   UNL     1      48.838   4.822  21.738  0.00  0.00    +0.000 A 
ATOM     29  N   UNL     1      49.143   4.361  20.484  0.00  0.00    +0.000 N 
ATOM     30  C   UNL     1      49.423   5.197  19.430  0.00  0.00    +0.000 A 
ATOM     31  O   UNL     1      49.658   4.746  18.311  0.00  0.00    +0.000 OA
ATOM     32  C   UNL     1      49.389   6.610  19.753  0.00  0.00    +0.000 A 
ATOM     33  H   UNL     1      49.158   3.371  20.284  0.00  0.00    +0.000 HD
ENDBRANCH  20  23
ENDBRANCH  18  19
ENDBRANCH   4  18
TORSDOF 6
ENDMDL
MODEL 8
REMARK VINA RESULT:    -7.041      3.311      5.225
REMARK INTER + INTRA:         -10.417
REMARK INTER:                  -9.446
REMARK INTRA:                  -0.971
REMARK UNBOUND:                -0.907
REMARK  Name = 
REMARK  7 active torsions:
REMARK  status: ('A' for Active; 'I' for Inactive)
REMARK    1  A    between atoms: C_1  and  N_2
REMARK    2  A    between atoms: N_2  and  C_3
REMARK    3  A    between atoms: C_3  and  C_4
REMARK    4  A    between atoms: C_7  and  C_8
REMARK    5  A    between atoms: C_8  and  N_9
REMARK    6  A    between atoms: C_10  and  C_12
REMARK    7  A    between atoms: C_24  and  C_26
REMARK                            x       y       z     vdW  Elec       q    Type
REMARK                         _______ _______ _______ _____ _____    ______ ____
ROOT
ATOM      1  C   UNL     1      46.797   5.253  13.057  0.00  0.00    +0.000 A 
ATOM      2  C   UNL     1      47.545   6.333  13.549  0.00  0.00    +0.000 A 
ATOM      3  C   UNL     1      48.082   6.298  14.838  0.00  0.00    +0.000 A 
ATOM      4  C   UNL     1      47.893   5.178  15.656  0.00  0.00    +0.000 A 
ATOM      5  C   UNL     1      47.136   4.103  15.167  0.00  0.00    +0.000 A 
ATOM      6  C   UNL     1      46.601   4.135  13.877  0.00  0.00    +0.000 A 
ENDROOT
BRANCH   1   7
ATOM      7  C   UNL     1      46.183   5.316  11.680  0.00  0.00    +0.000 C 
BRANCH   7   9
ATOM      8  C   UNL     1      43.839   5.817  12.526  0.00  0.00    +0.000 C 
ATOM      9  N   UNL     1      44.727   5.172  11.570  0.00  0.00    +0.000 N 
ATOM     10  C   UNL     1      44.118   4.615  10.430  0.00  0.00    +0.000 C 
ATOM     11  O   UNL     1      42.908   4.723  10.217  0.00  0.00    +0.000 OA
BRANCH  10  12
ATOM     12  C   UNL     1      44.931   3.885   9.411  0.00  0.00    +0.000 A 
ATOM     13  C   UNL     1      45.053   2.505   9.508  0.00  0.00    +0.000 A 
ATOM     14  N   UNL     1      45.774   1.770   8.621  0.00  0.00    +0.000 NA
ATOM     15  C   UNL     1      46.389   2.480   7.647  0.00  0.00    +0.000 A 
ATOM     16  C   UNL     1      46.284   3.858   7.556  0.00  0.00    +0.000 A 
ATOM     17  N   UNL     1      45.554   4.590   8.428  0.00  0.00    +0.000 NA
ENDBRANCH  10  12
ENDBRANCH   7   9
ENDBRANCH   1   7
BRANCH   4  18
ATOM     18  C   UNL     1      48.426   5.152  17.065  0.00  0.00    +0.000 C 
BRANCH  18  19
ATOM     19  N   UNL     1      47.955   6.300  17.799  0.00  0.00    +0.000 N 
ATOM     20  C   UNL     1      48.631   6.799  18.881  0.00  0.00    +0.000 C 
ATOM     21  O   UNL     1      49.702   6.333  19.255  0.00  0.00    +0.000 OA
ATOM     22  H   UNL     1      46.983   6.555  17.659  0.00  0.00    +0.000 HD
BRANCH  20  23
ATOM     23  C   UNL     1      48.031   7.972  19.530  0.00  0.00    +0.000 A 
ATOM     24  C   UNL     1      47.611   7.889  20.853  0.00  0.00    +0.000 A 
ATOM     25  S   UNL     1      47.006   9.361  21.468  0.00  0.00    +0.000 S 
ATOM     26  C   UNL     1      47.226  10.144  19.974  0.00  0.00    +0.000 A 
ATOM     27  N   UNL     1      46.881  11.450  19.809  0.00  0.00    +0.000 NA
ATOM     28  C   UNL     1      47.079  11.907  18.619  0.00  0.00    +0.000 A 
ATOM     29  N   UNL     1      47.594  11.179  17.577  0.00  0.00    +0.000 N 
ATOM     30  C   UNL     1      47.975   9.865  17.703  0.00  0.00    +0.000 A 
ATOM     31  O   UNL     1      48.466   9.256  16.755  0.00  0.00    +0.000 OA
ATOM     32  C   UNL     1      47.771   9.300  19.023  0.00  0.00    +0.000 A 
ATOM     33  H   UNL     1      47.728  11.597  16.668  0.00  0.00    +0.000 HD
ENDBRANCH  20  23
ENDBRANCH  18  19
ENDBRANCH   4  18
TORSDOF 6
ENDMDL
MODEL 9
REMARK VINA RESULT:    -7.012      3.022      9.004
REMARK INTER + INTRA:         -10.379
REMARK INTER:                  -9.256
REMARK INTRA:                  -1.123
REMARK UNBOUND:                -0.907
REMARK  Name = 
REMARK  7 active torsions:
REMARK  status: ('A' for Active; 'I' for Inactive)
REMARK    1  A    between atoms: C_1  and  N_2
REMARK    2  A    between atoms: N_2  and  C_3
REMARK    3  A    between atoms: C_3  and  C_4
REMARK    4  A    between atoms: C_7  and  C_8
REMARK    5  A    between atoms: C_8  and  N_9
REMARK    6  A    between atoms: C_10  and  C_12
REMARK    7  A    between atoms: C_24  and  C_26
REMARK                            x       y       z     vdW  Elec       q    Type
REMARK                         _______ _______ _______ _____ _____    ______ ____
ROOT
ATOM      1  C   UNL     1      48.971   7.992  16.190  0.00  0.00    +0.000 A 
ATOM      2  C   UNL     1      49.102   6.830  15.415  0.00  0.00    +0.000 A 
ATOM      3  C   UNL     1      48.649   6.801  14.094  0.00  0.00    +0.000 A 
ATOM      4  C   UNL     1      48.067   7.936  13.517  0.00  0.00    +0.000 A 
ATOM      5  C   UNL     1      47.927   9.094  14.296  0.00  0.00    +0.000 A 
ATOM      6  C   UNL     1      48.383   9.126  15.616  0.00  0.00    +0.000 A 
ENDROOT
BRANCH   1   7
ATOM      7  C   UNL     1      49.424   8.003  17.629  0.00  0.00    +0.000 C 
BRANCH   7   9
ATOM      8  C   UNL     1      47.429   8.413  19.150  0.00  0.00    +0.000 C 
ATOM      9  N   UNL     1      48.478   7.537  18.650  0.00  0.00    +0.000 N 
ATOM     10  C   UNL     1      48.389   6.182  19.019  0.00  0.00    +0.000 C 
ATOM     11  O   UNL     1      47.440   5.745  19.674  0.00  0.00    +0.000 OA
BRANCH  10  12
ATOM     12  C   UNL     1      49.441   5.207  18.602  0.00  0.00    +0.000 A 
ATOM     13  C   UNL     1      49.142   4.269  17.623  0.00  0.00    +0.000 A 
ATOM     14  N   UNL     1      50.044   3.350  17.190  0.00  0.00    +0.000 NA
ATOM     15  C   UNL     1      51.251   3.393  17.800  0.00  0.00    +0.000 A 
ATOM     16  C   UNL     1      51.548   4.315  18.789  0.00  0.00    +0.000 A 
ATOM     17  N   UNL     1      50.658   5.242  19.211  0.00  0.00    +0.000 NA
ENDBRANCH  10  12
ENDBRANCH   7   9
ENDBRANCH   1   7
BRANCH   4  18
ATOM     18  C   UNL     1      47.531   7.898  12.110  0.00  0.00    +0.000 C 
BRANCH  18  19
ATOM     19  N   UNL     1      46.840   6.654  11.871  0.00  0.00    +0.000 N 
ATOM     20  C   UNL     1      45.479   6.545  11.981  0.00  0.00    +0.000 C 
ATOM     21  O   UNL     1      44.765   7.509  12.235  0.00  0.00    +0.000 OA
ATOM     22  H   UNL     1      47.410   5.815  11.886  0.00  0.00    +0.000 HD
BRANCH  20  23
ATOM     23  C   UNL     1      44.916   5.216  11.710  0.00  0.00    +0.000 A 
ATOM     24  C   UNL     1      44.245   4.533  12.718  0.00  0.00    +0.000 A 
ATOM     25  S   UNL     1      43.594   3.039  12.210  0.00  0.00    +0.000 S 
ATOM     26  C   UNL     1      44.236   3.225  10.645  0.00  0.00    +0.000 A 
ATOM     27  N   UNL     1      44.057   2.266   9.696  0.00  0.00    +0.000 NA
ATOM     28  C   UNL     1      44.619   2.527   8.563  0.00  0.00    +0.000 A 
ATOM     29  N   UNL     1      45.343   3.658   8.292  0.00  0.00    +0.000 N 
ATOM     30  C   UNL     1      45.533   4.660   9.213  0.00  0.00    +0.000 A 
ATOM     31  O   UNL     1      46.159   5.677   8.921  0.00  0.00    +0.000 OA
ATOM     32  C   UNL     1      44.923   4.418  10.506  0.00  0.00    +0.000 A 
ATOM     33  H   UNL     1      45.756   3.805   7.382  0.00  0.00    +0.000 HD
ENDBRANCH  20  23
ENDBRANCH  18  19
ENDBRANCH   4  18
TORSDOF 6
ENDMDL
