MODEL 1
REMARK VINA RESULT:    -8.527      0.000      0.000
REMARK INTER + INTRA:         -11.512
REMARK INTER:                 -11.019
REMARK INTRA:                  -0.493
REMARK UNBOUND:                -0.493
REMARK  Name = 
REMARK  6 active torsions:
REMARK  status: ('A' for Active; 'I' for Inactive)
REMARK    1  A    between atoms: C_1  and  C_2
REMARK    2  A    between atoms: C_4  and  C_5
REMARK    3  A    between atoms: C_10  and  N_11
REMARK    4  A    between atoms: N_11  and  C_12
REMARK    5  A    between atoms: C_12  and  C_13
REMARK    6  A    between atoms: C_17  and  C_18
REMARK                            x       y       z     vdW  Elec       q    Type
REMARK                         _______ _______ _______ _____ _____    ______ ____
ROOT
ATOM      1  N   UNL     1      43.973   5.035   9.836  0.00  0.00    +0.000 N 
ATOM      2  H   UNL     1      43.140   5.302   9.334  0.00  0.00    +0.000 HD
ENDROOT
BRANCH   1   9
ATOM      3  C   UNL     1      43.957   2.116  10.311  0.00  0.00    +0.000 C 
ATOM      4  C   UNL     1      44.865   2.828   9.348  0.00  0.00    +0.000 A 
ATOM      5  C   UNL     1      45.735   2.045   8.569  0.00  0.00    +0.000 A 
ATOM      6  C   UNL     1      46.591   2.632   7.645  0.00  0.00    +0.000 A 
ATOM      7  C   UNL     1      46.541   4.005   7.540  0.00  0.00    +0.000 A 
ATOM      8  N   UNL     1      45.712   4.797   8.280  0.00  0.00    +0.000 NA
ATOM      9  C   UNL     1      44.887   4.221   9.188  0.00  0.00    +0.000 A 
BRANCH   6  10
ATOM     10  C   UNL     1      47.495   1.767   6.845  0.00  0.00    +0.000 C 
ATOM     11  N   UNL     1      48.541   2.335   6.177  0.00  0.00    +0.000 N 
ATOM     12  O   UNL     1      47.324   0.563   6.789  0.00  0.00    +0.000 OA
ATOM     13  H   UNL     1      48.780   3.315   6.158  0.00  0.00    +0.000 HD
ATOM     14  H   UNL     1      49.133   1.702   5.652  0.00  0.00    +0.000 HD
ENDBRANCH   6  10
ENDBRANCH   1   9
BRANCH   1  15
ATOM     15  C   UNL     1      43.825   4.964  11.289  0.00  0.00    +0.000 C 
BRANCH  15  16
ATOM     16  C   UNL     1      45.086   5.223  12.110  0.00  0.00    +0.000 A 
ATOM     17  C   UNL     1      45.583   4.237  12.954  0.00  0.00    +0.000 A 
ATOM     18  C   UNL     1      46.788   4.446  13.617  0.00  0.00    +0.000 A 
ATOM     19  C   UNL     1      47.486   5.631  13.406  0.00  0.00    +0.000 A 
ATOM     20  C   UNL     1      46.963   6.578  12.522  0.00  0.00    +0.000 A 
ATOM     21  N   UNL     1      45.766   6.386  11.895  0.00  0.00    +0.000 NA
BRANCH  20  22
ATOM     22  C   UNL     1      47.691   7.817  12.174  0.00  0.00    +0.000 A 
ATOM     23  C   UNL     1      49.049   7.801  11.789  0.00  0.00    +0.000 A 
ATOM     24  C   UNL     1      49.720   8.975  11.432  0.00  0.00    +0.000 A 
ATOM     25  C   UNL     1      49.047  10.191  11.446  0.00  0.00    +0.000 A 
ATOM     26  C   UNL     1      47.707  10.235  11.819  0.00  0.00    +0.000 A 
ATOM     27  C   UNL     1      47.040   9.059  12.178  0.00  0.00    +0.000 A 
ENDBRANCH  20  22
ENDBRANCH  15  16
ENDBRANCH   1  15
TORSDOF 5
ENDMDL
MODEL 2
REMARK VINA RESULT:    -8.331      2.745      6.509
REMARK INTER + INTRA:         -11.260
REMARK INTER:                 -10.286
REMARK INTRA:                  -0.973
REMARK UNBOUND:                -0.493
REMARK  Name = 
REMARK  6 active torsions:
REMARK  status: ('A' for Active; 'I' for Inactive)
REMARK    1  A    between atoms: C_1  and  C_2
REMARK    2  A    between atoms: C_4  and  C_5
REMARK    3  A    between atoms: C_10  and  N_11
REMARK    4  A    between atoms: N_11  and  C_12
REMARK    5  A    between atoms: C_12  and  C_13
REMARK    6  A    between atoms: C_17  and  C_18
REMARK                            x       y       z     vdW  Elec       q    Type
REMARK                         _______ _______ _______ _____ _____    ______ ____
ROOT
ATOM      1  N   UNL     1      44.737   6.980  12.639  0.00  0.00    +0.000 N 
ATOM      2  H   UNL     1      44.148   7.514  13.259  0.00  0.00    +0.000 HD
ENDROOT
BRANCH   1   9
ATOM      3  C   UNL     1      46.621   4.944  13.666  0.00  0.00    +0.000 C 
ATOM      4  C   UNL     1      47.018   6.269  13.078  0.00  0.00    +0.000 A 
ATOM      5  C   UNL     1      48.392   6.542  12.951  0.00  0.00    +0.000 A 
ATOM      6  C   UNL     1      48.834   7.739  12.401  0.00  0.00    +0.000 A 
ATOM      7  C   UNL     1      47.865   8.630  11.996  0.00  0.00    +0.000 A 
ATOM      8  N   UNL     1      46.524   8.400  12.105  0.00  0.00    +0.000 NA
ATOM      9  C   UNL     1      46.098   7.237  12.653  0.00  0.00    +0.000 A 
BRANCH   6  10
ATOM     10  C   UNL     1      50.294   7.987  12.289  0.00  0.00    +0.000 C 
ATOM     11  N   UNL     1      51.002   7.362  11.303  0.00  0.00    +0.000 N 
ATOM     12  O   UNL     1      50.863   8.746  13.052  0.00  0.00    +0.000 OA
ATOM     13  H   UNL     1      50.635   6.722  10.615  0.00  0.00    +0.000 HD
ATOM     14  H   UNL     1      51.992   7.570  11.263  0.00  0.00    +0.000 HD
ENDBRANCH   6  10
ENDBRANCH   1   9
BRANCH   1  15
ATOM     15  C   UNL     1      44.087   6.524  11.410  0.00  0.00    +0.000 C 
BRANCH  15  16
ATOM     16  C   UNL     1      44.139   5.022  11.136  0.00  0.00    +0.000 A 
ATOM     17  C   UNL     1      43.321   4.155  11.850  0.00  0.00    +0.000 A 
ATOM     18  C   UNL     1      43.303   2.803  11.519  0.00  0.00    +0.000 A 
ATOM     19  C   UNL     1      44.087   2.348  10.465  0.00  0.00    +0.000 A 
ATOM     20  C   UNL     1      44.866   3.265   9.753  0.00  0.00    +0.000 A 
ATOM     21  N   UNL     1      44.907   4.585  10.097  0.00  0.00    +0.000 NA
BRANCH  20  22
ATOM     22  C   UNL     1      45.651   2.875   8.563  0.00  0.00    +0.000 A 
ATOM     23  C   UNL     1      46.127   1.558   8.383  0.00  0.00    +0.000 A 
ATOM     24  C   UNL     1      46.843   1.192   7.238  0.00  0.00    +0.000 A 
ATOM     25  C   UNL     1      47.094   2.132   6.245  0.00  0.00    +0.000 A 
ATOM     26  C   UNL     1      46.633   3.436   6.396  0.00  0.00    +0.000 A 
ATOM     27  C   UNL     1      45.920   3.799   7.543  0.00  0.00    +0.000 A 
ENDBRANCH  20  22
ENDBRANCH  15  16
ENDBRANCH   1  15
TORSDOF 5
ENDMDL
MODEL 3
REMARK VINA RESULT:    -8.307      1.676      3.489
REMARK INTER + INTRA:         -11.228
REMARK INTER:                 -10.821
REMARK INTRA:                  -0.407
REMARK UNBOUND:                -0.493
REMARK  Name = 
REMARK  6 active torsions:
REMARK  status: ('A' for Active; 'I' for Inactive)
REMARK    1  A    between atoms: C_1  and  C_2
REMARK    2  A    between atoms: C_4  and  C_5
REMARK    3  A    between atoms: C_10  and  N_11
REMARK    4  A    between atoms: N_11  and  C_12
REMARK    5  A    between atoms: C_12  and  C_13
REMARK    6  A    between atoms: C_17  and  C_18
REMARK                            x       y       z     vdW  Elec       q    Type
REMARK                         _______ _______ _______ _____ _____    ______ ____
ROOT
ATOM      1  N   UNL     1      44.232   5.216   9.950  0.00  0.00    +0.000 N 
ATOM      2  H   UNL     1      43.309   5.388   9.582  0.00  0.00    +0.000 HD
ENDROOT
BRANCH   1   9
ATOM      3  C   UNL     1      44.017   2.317  10.494  0.00  0.00    +0.000 C 
ATOM      4  C   UNL     1      44.923   2.937   9.468  0.00  0.00    +0.000 A 
ATOM      5  C   UNL     1      45.686   2.073   8.662  0.00  0.00    +0.000 A 
ATOM      6  C   UNL     1      46.534   2.574   7.681  0.00  0.00    +0.000 A 
ATOM      7  C   UNL     1      46.584   3.944   7.547  0.00  0.00    +0.000 A 
ATOM      8  N   UNL     1      45.860   4.813   8.311  0.00  0.00    +0.000 NA
ATOM      9  C   UNL     1      45.044   4.320   9.274  0.00  0.00    +0.000 A 
BRANCH   6  10
ATOM     10  C   UNL     1      47.323   1.626   6.854  0.00  0.00    +0.000 C 
ATOM     11  N   UNL     1      48.428   2.079   6.193  0.00  0.00    +0.000 N 
ATOM     12  O   UNL     1      47.007   0.454   6.769  0.00  0.00    +0.000 OA
ATOM     13  H   UNL     1      48.784   3.024   6.197  0.00  0.00    +0.000 HD
ATOM     14  H   UNL     1      48.937   1.393   5.649  0.00  0.00    +0.000 HD
ENDBRANCH   6  10
ENDBRANCH   1   9
BRANCH   1  15
ATOM     15  C   UNL     1      44.360   5.376  11.399  0.00  0.00    +0.000 C 
BRANCH  15  16
ATOM     16  C   UNL     1      45.741   5.777  11.914  0.00  0.00    +0.000 A 
ATOM     17  C   UNL     1      46.492   6.724  11.229  0.00  0.00    +0.000 A 
ATOM     18  C   UNL     1      47.701   7.157  11.765  0.00  0.00    +0.000 A 
ATOM     19  C   UNL     1      48.126   6.649  12.988  0.00  0.00    +0.000 A 
ATOM     20  C   UNL     1      47.319   5.724  13.656  0.00  0.00    +0.000 A 
ATOM     21  N   UNL     1      46.148   5.277  13.116  0.00  0.00    +0.000 NA
BRANCH  20  22
ATOM     22  C   UNL     1      47.656   5.211  15.001  0.00  0.00    +0.000 A 
ATOM     23  C   UNL     1      48.428   5.963  15.914  0.00  0.00    +0.000 A 
ATOM     24  C   UNL     1      48.715   5.482  17.195  0.00  0.00    +0.000 A 
ATOM     25  C   UNL     1      48.232   4.241  17.596  0.00  0.00    +0.000 A 
ATOM     26  C   UNL     1      47.467   3.481  16.717  0.00  0.00    +0.000 A 
ATOM     27  C   UNL     1      47.183   3.964  15.435  0.00  0.00    +0.000 A 
ENDBRANCH  20  22
ENDBRANCH  15  16
ENDBRANCH   1  15
TORSDOF 5
ENDMDL
MODEL 4
REMARK VINA RESULT:    -7.911      2.954      3.789
REMARK INTER + INTRA:         -10.717
REMARK INTER:                 -10.122
REMARK INTRA:                  -0.595
REMARK UNBOUND:                -0.493
REMARK  Name = 
REMARK  6 active torsions:
REMARK  status: ('A' for Active; 'I' for Inactive)
REMARK    1  A    between atoms: C_1  and  C_2
REMARK    2  A    between atoms: C_4  and  C_5
REMARK    3  A    between atoms: C_10  and  N_11
REMARK    4  A    between atoms: N_11  and  C_12
REMARK    5  A    between atoms: C_12  and  C_13
REMARK    6  A    between atoms: C_17  and  C_18
REMARK                            x       y       z     vdW  Elec       q    Type
REMARK                         _______ _______ _______ _____ _____    ______ ____
ROOT
ATOM      1  N   UNL     1      44.210   5.032  10.036  0.00  0.00    +0.000 N 
ATOM      2  H   UNL     1      43.223   4.954   9.844  0.00  0.00    +0.000 HD
ENDROOT
BRANCH   1   9
ATOM      3  C   UNL     1      44.139   2.075  10.083  0.00  0.00    +0.000 C 
ATOM      4  C   UNL     1      45.032   2.903   9.203  0.00  0.00    +0.000 A 
ATOM      5  C   UNL     1      45.859   2.225   8.289  0.00  0.00    +0.000 A 
ATOM      6  C   UNL     1      46.700   2.925   7.432  0.00  0.00    +0.000 A 
ATOM      7  C   UNL     1      46.680   4.299   7.529  0.00  0.00    +0.000 A 
ATOM      8  N   UNL     1      45.893   4.990   8.404  0.00  0.00    +0.000 NA
ATOM      9  C   UNL     1      45.084   4.303   9.246  0.00  0.00    +0.000 A 
BRANCH   6  10
ATOM     10  C   UNL     1      47.558   2.169   6.484  0.00  0.00    +0.000 C 
ATOM     11  N   UNL     1      48.094   2.816   5.408  0.00  0.00    +0.000 N 
ATOM     12  O   UNL     1      47.798   0.988   6.659  0.00  0.00    +0.000 OA
ATOM     13  H   UNL     1      47.968   3.789   5.170  0.00  0.00    +0.000 HD
ATOM     14  H   UNL     1      48.678   2.260   4.796  0.00  0.00    +0.000 HD
ENDBRANCH   6  10
ENDBRANCH   1   9
BRANCH   1  15
ATOM     15  C   UNL     1      44.548   5.326  11.429  0.00  0.00    +0.000 C 
BRANCH  15  16
ATOM     16  C   UNL     1      44.735   6.800  11.781  0.00  0.00    +0.000 A 
ATOM     17  C   UNL     1      45.750   7.185  12.649  0.00  0.00    +0.000 A 
ATOM     18  C   UNL     1      45.976   8.539  12.881  0.00  0.00    +0.000 A 
ATOM     19  C   UNL     1      45.195   9.483  12.222  0.00  0.00    +0.000 A 
ATOM     20  C   UNL     1      44.210   9.047  11.332  0.00  0.00    +0.000 A 
ATOM     21  N   UNL     1      43.968   7.719  11.128  0.00  0.00    +0.000 NA
BRANCH  20  22
ATOM     22  C   UNL     1      43.405   9.989  10.525  0.00  0.00    +0.000 A 
ATOM     23  C   UNL     1      42.018  10.150  10.730  0.00  0.00    +0.000 A 
ATOM     24  C   UNL     1      41.271  11.065   9.982  0.00  0.00    +0.000 A 
ATOM     25  C   UNL     1      41.895  11.846   9.015  0.00  0.00    +0.000 A 
ATOM     26  C   UNL     1      43.262  11.709   8.794  0.00  0.00    +0.000 A 
ATOM     27  C   UNL     1      44.006  10.790   9.543  0.00  0.00    +0.000 A 
ENDBRANCH  20  22
ENDBRANCH  15  16
ENDBRANCH   1  15
TORSDOF 5
ENDMDL
MODEL 5
REMARK VINA RESULT:    -7.672      2.828      6.748
REMARK INTER + INTRA:         -10.408
REMARK INTER:                  -9.384
REMARK INTRA:                  -1.023
REMARK UNBOUND:                -0.493
REMARK  Name = 
REMARK  6 active torsions:
REMARK  status: ('A' for Active; 'I' for Inactive)
REMARK    1  A    between atoms: C_1  and  C_2
REMARK    2  A    between atoms: C_4  and  C_5
REMARK    3  A    between atoms: C_10  and  N_11
REMARK    4  A    between atoms: N_11  and  C_12
REMARK    5  A    between atoms: C_12  and  C_13
REMARK    6  A    between atoms: C_17  and  C_18
REMARK                            x       y       z     vdW  Elec       q    Type
REMARK                         _______ _______ _______ _____ _____    ______ ____
ROOT
ATOM      1  N   UNL     1      46.289   5.685  13.991  0.00  0.00    +0.000 N 
ATOM      2  H   UNL     1      45.569   6.141  14.529  0.00  0.00    +0.000 HD
ENDROOT
BRANCH   1   9
ATOM      3  C   UNL     1      45.361   8.222  12.788  0.00  0.00    +0.000 C 
ATOM      4  C   UNL     1      46.776   7.717  12.752  0.00  0.00    +0.000 A 
ATOM      5  C   UNL     1      47.747   8.538  12.152  0.00  0.00    +0.000 A 
ATOM      6  C   UNL     1      49.080   8.144  12.096  0.00  0.00    +0.000 A 
ATOM      7  C   UNL     1      49.387   6.922  12.652  0.00  0.00    +0.000 A 
ATOM      8  N   UNL     1      48.472   6.099  13.240  0.00  0.00    +0.000 NA
ATOM      9  C   UNL     1      47.172   6.482  13.282  0.00  0.00    +0.000 A 
BRANCH   6  10
ATOM     10  C   UNL     1      50.072   9.040  11.451  0.00  0.00    +0.000 C 
ATOM     11  N   UNL     1      51.348   8.594  11.261  0.00  0.00    +0.000 N 
ATOM     12  O   UNL     1      49.761  10.157  11.080  0.00  0.00    +0.000 OA
ATOM     13  H   UNL     1      51.713   7.690  11.522  0.00  0.00    +0.000 HD
ATOM     14  H   UNL     1      51.985   9.239  10.810  0.00  0.00    +0.000 HD
ENDBRANCH   6  10
ENDBRANCH   1   9
BRANCH   1  15
ATOM     15  C   UNL     1      45.942   4.352  13.498  0.00  0.00    +0.000 C 
BRANCH  15  16
ATOM     16  C   UNL     1      45.091   4.302  12.231  0.00  0.00    +0.000 A 
ATOM     17  C   UNL     1      43.875   4.973  12.181  0.00  0.00    +0.000 A 
ATOM     18  C   UNL     1      43.159   5.006  10.988  0.00  0.00    +0.000 A 
ATOM     19  C   UNL     1      43.684   4.383   9.860  0.00  0.00    +0.000 A 
ATOM     20  C   UNL     1      44.927   3.750   9.951  0.00  0.00    +0.000 A 
ATOM     21  N   UNL     1      45.614   3.692  11.129  0.00  0.00    +0.000 NA
BRANCH  20  22
ATOM     22  C   UNL     1      45.593   3.149   8.775  0.00  0.00    +0.000 A 
ATOM     23  C   UNL     1      46.016   3.931   7.679  0.00  0.00    +0.000 A 
ATOM     24  C   UNL     1      46.673   3.357   6.585  0.00  0.00    +0.000 A 
ATOM     25  C   UNL     1      46.926   1.990   6.565  0.00  0.00    +0.000 A 
ATOM     26  C   UNL     1      46.521   1.197   7.635  0.00  0.00    +0.000 A 
ATOM     27  C   UNL     1      45.863   1.774   8.726  0.00  0.00    +0.000 A 
ENDBRANCH  20  22
ENDBRANCH  15  16
ENDBRANCH   1  15
TORSDOF 5
ENDMDL
MODEL 6
REMARK VINA RESULT:    -7.566      1.378      2.305
REMARK INTER + INTRA:         -10.270
REMARK INTER:                  -9.684
REMARK INTRA:                  -0.586
REMARK UNBOUND:                -0.493
REMARK  Name = 
REMARK  6 active torsions:
REMARK  status: ('A' for Active; 'I' for Inactive)
REMARK    1  A    between atoms: C_1  and  C_2
REMARK    2  A    between atoms: C_4  and  C_5
REMARK    3  A    between atoms: C_10  and  N_11
REMARK    4  A    between atoms: N_11  and  C_12
REMARK    5  A    between atoms: C_12  and  C_13
REMARK    6  A    between atoms: C_17  and  C_18
REMARK                            x       y       z     vdW  Elec       q    Type
REMARK                         _______ _______ _______ _____ _____    ______ ____
ROOT
ATOM      1  N   UNL     1      44.233   5.232   9.962  0.00  0.00    +0.000 N 
ATOM      2  H   UNL     1      43.244   5.204   9.762  0.00  0.00    +0.000 HD
ENDROOT
BRANCH   1   9
ATOM      3  C   UNL     1      44.032   2.312  10.389  0.00  0.00    +0.000 C 
ATOM      4  C   UNL     1      44.947   2.979   9.400  0.00  0.00    +0.000 A 
ATOM      5  C   UNL     1      45.727   2.152   8.572  0.00  0.00    +0.000 A 
ATOM      6  C   UNL     1      46.584   2.698   7.623  0.00  0.00    +0.000 A 
ATOM      7  C   UNL     1      46.626   4.072   7.543  0.00  0.00    +0.000 A 
ATOM      8  N   UNL     1      45.886   4.905   8.331  0.00  0.00    +0.000 NA
ATOM      9  C   UNL     1      45.060   4.369   9.263  0.00  0.00    +0.000 A 
BRANCH   6  10
ATOM     10  C   UNL     1      47.392   1.788   6.771  0.00  0.00    +0.000 C 
ATOM     11  N   UNL     1      48.503   2.274   6.145  0.00  0.00    +0.000 N 
ATOM     12  O   UNL     1      47.085   0.618   6.635  0.00  0.00    +0.000 OA
ATOM     13  H   UNL     1      48.854   3.219   6.192  0.00  0.00    +0.000 HD
ATOM     14  H   UNL     1      49.025   1.613   5.582  0.00  0.00    +0.000 HD
ENDBRANCH   6  10
ENDBRANCH   1   9
BRANCH   1  15
ATOM     15  C   UNL     1      44.578   5.640  11.323  0.00  0.00    +0.000 C 
BRANCH  15  16
ATOM     16  C   UNL     1      45.121   7.059  11.486  0.00  0.00    +0.000 A 
ATOM     17  C   UNL     1      44.261   8.147  11.403  0.00  0.00    +0.000 A 
ATOM     18  C   UNL     1      44.749   9.426  11.656  0.00  0.00    +0.000 A 
ATOM     19  C   UNL     1      46.085   9.589  12.008  0.00  0.00    +0.000 A 
ATOM     20  C   UNL     1      46.901   8.460  12.113  0.00  0.00    +0.000 A 
ATOM     21  N   UNL     1      46.430   7.209  11.835  0.00  0.00    +0.000 NA
BRANCH  20  22
ATOM     22  C   UNL     1      48.304   8.543  12.573  0.00  0.00    +0.000 A 
ATOM     23  C   UNL     1      48.646   9.094  13.827  0.00  0.00    +0.000 A 
ATOM     24  C   UNL     1      49.973   9.140  14.266  0.00  0.00    +0.000 A 
ATOM     25  C   UNL     1      50.988   8.630  13.465  0.00  0.00    +0.000 A 
ATOM     26  C   UNL     1      50.678   8.078  12.225  0.00  0.00    +0.000 A 
ATOM     27  C   UNL     1      49.350   8.036  11.788  0.00  0.00    +0.000 A 
ENDBRANCH  20  22
ENDBRANCH  15  16
ENDBRANCH   1  15
TORSDOF 5
ENDMDL
MODEL 7
REMARK VINA RESULT:    -7.452      3.542      7.634
REMARK INTER + INTRA:         -10.123
REMARK INTER:                  -9.491
REMARK INTRA:                  -0.632
REMARK UNBOUND:                -0.493
REMARK  Name = 
REMARK  6 active torsions:
REMARK  status: ('A' for Active; 'I' for Inactive)
REMARK    1  A    between atoms: C_1  and  C_2
REMARK    2  A    between atoms: C_4  and  C_5
REMARK    3  A    between atoms: C_10  and  N_11
REMARK    4  A    between atoms: N_11  and  C_12
REMARK    5  A    between atoms: C_12  and  C_13
REMARK    6  A    between atoms: C_17  and  C_18
REMARK                            x       y       z     vdW  Elec       q    Type
REMARK                         _______ _______ _______ _____ _____    ______ ____
ROOT
ATOM      1  N   UNL     1      46.795   5.830  12.841  0.00  0.00    +0.000 N 
ATOM      2  H   UNL     1      47.363   5.698  12.018  0.00  0.00    +0.000 HD
ENDROOT
BRANCH   1   9
ATOM      3  C   UNL     1      48.673   7.665  14.202  0.00  0.00    +0.000 C 
ATOM      4  C   UNL     1      48.185   6.360  14.762  0.00  0.00    +0.000 A 
ATOM      5  C   UNL     1      48.605   6.006  16.057  0.00  0.00    +0.000 A 
ATOM      6  C   UNL     1      48.181   4.821  16.647  0.00  0.00    +0.000 A 
ATOM      7  C   UNL     1      47.341   4.024  15.901  0.00  0.00    +0.000 A 
ATOM      8  N   UNL     1      46.914   4.333  14.643  0.00  0.00    +0.000 NA
ATOM      9  C   UNL     1      47.339   5.484  14.067  0.00  0.00    +0.000 A 
BRANCH   6  10
ATOM     10  C   UNL     1      48.651   4.486  18.016  0.00  0.00    +0.000 C 
ATOM     11  N   UNL     1      47.744   4.079  18.951  0.00  0.00    +0.000 N 
ATOM     12  O   UNL     1      49.831   4.557  18.309  0.00  0.00    +0.000 OA
ATOM     13  H   UNL     1      46.748   3.979  18.817  0.00  0.00    +0.000 HD
ATOM     14  H   UNL     1      48.115   3.855  19.866  0.00  0.00    +0.000 HD
ENDBRANCH   6  10
ENDBRANCH   1   9
BRANCH   1  15
ATOM     15  C   UNL     1      45.353   5.726  12.621  0.00  0.00    +0.000 C 
BRANCH  15  16
ATOM     16  C   UNL     1      44.871   4.480  11.882  0.00  0.00    +0.000 A 
ATOM     17  C   UNL     1      43.723   3.820  12.304  0.00  0.00    +0.000 A 
ATOM     18  C   UNL     1      43.237   2.748  11.561  0.00  0.00    +0.000 A 
ATOM     19  C   UNL     1      43.896   2.371  10.396  0.00  0.00    +0.000 A 
ATOM     20  C   UNL     1      45.026   3.088   9.993  0.00  0.00    +0.000 A 
ATOM     21  N   UNL     1      45.521   4.119  10.738  0.00  0.00    +0.000 NA
BRANCH  20  22
ATOM     22  C   UNL     1      45.724   2.808   8.720  0.00  0.00    +0.000 A 
ATOM     23  C   UNL     1      46.194   1.517   8.396  0.00  0.00    +0.000 A 
ATOM     24  C   UNL     1      46.827   1.256   7.176  0.00  0.00    +0.000 A 
ATOM     25  C   UNL     1      46.998   2.278   6.250  0.00  0.00    +0.000 A 
ATOM     26  C   UNL     1      46.541   3.560   6.543  0.00  0.00    +0.000 A 
ATOM     27  C   UNL     1      45.911   3.818   7.765  0.00  0.00    +0.000 A 
ENDBRANCH  20  22
ENDBRANCH  15  16
ENDBRANCH   1  15
TORSDOF 5
ENDMDL
MODEL 8
REMARK VINA RESULT:    -7.429      4.888      6.928
REMARK INTER + INTRA:         -10.093
REMARK INTER:                  -9.542
REMARK INTRA:                  -0.551
REMARK UNBOUND:                -0.493
REMARK  Name = 
REMARK  6 active torsions:
REMARK  status: ('A' for Active; 'I' for Inactive)
REMARK    1  A    between atoms: C_1  and  C_2
REMARK    2  A    between atoms: C_4  and  C_5
REMARK    3  A    between atoms: C_10  and  N_11
REMARK    4  A    between atoms: N_11  and  C_12
REMARK    5  A    between atoms: C_12  and  C_13
REMARK    6  A    between atoms: C_17  and  C_18
REMARK                            x       y       z     vdW  Elec       q    Type
REMARK                         _______ _______ _______ _____ _____    ______ ____
ROOT
ATOM      1  N   UNL     1      47.031   5.087  14.650  0.00  0.00    +0.000 N 
ATOM      2  H   UNL     1      47.136   6.059  14.900  0.00  0.00    +0.000 HD
ENDROOT
BRANCH   1   9
ATOM      3  C   UNL     1      46.563   7.146  12.579  0.00  0.00    +0.000 C 
ATOM      4  C   UNL     1      46.092   5.722  12.501  0.00  0.00    +0.000 A 
ATOM      5  C   UNL     1      45.427   5.317  11.329  0.00  0.00    +0.000 A 
ATOM      6  C   UNL     1      44.977   4.010  11.179  0.00  0.00    +0.000 A 
ATOM      7  C   UNL     1      45.214   3.149  12.228  0.00  0.00    +0.000 A 
ATOM      8  N   UNL     1      45.854   3.507  13.379  0.00  0.00    +0.000 NA
ATOM      9  C   UNL     1      46.280   4.785  13.526  0.00  0.00    +0.000 A 
BRANCH   6  10
ATOM     10  C   UNL     1      44.277   3.626   9.927  0.00  0.00    +0.000 C 
ATOM     11  N   UNL     1      43.963   4.593   9.016  0.00  0.00    +0.000 N 
ATOM     12  O   UNL     1      43.993   2.465   9.697  0.00  0.00    +0.000 OA
ATOM     13  H   UNL     1      44.155   5.581   9.099  0.00  0.00    +0.000 HD
ATOM     14  H   UNL     1      43.494   4.280   8.175  0.00  0.00    +0.000 HD
ENDBRANCH   6  10
ENDBRANCH   1   9
BRANCH   1  15
ATOM     15  C   UNL     1      47.089   4.149  15.770  0.00  0.00    +0.000 C 
BRANCH  15  16
ATOM     16  C   UNL     1      48.134   4.444  16.845  0.00  0.00    +0.000 A 
ATOM     17  C   UNL     1      47.831   5.304  17.893  0.00  0.00    +0.000 A 
ATOM     18  C   UNL     1      48.753   5.484  18.920  0.00  0.00    +0.000 A 
ATOM     19  C   UNL     1      49.954   4.781  18.889  0.00  0.00    +0.000 A 
ATOM     20  C   UNL     1      50.198   3.901  17.832  0.00  0.00    +0.000 A 
ATOM     21  N   UNL     1      49.306   3.748  16.809  0.00  0.00    +0.000 NA
BRANCH  20  22
ATOM     22  C   UNL     1      51.405   3.050  17.778  0.00  0.00    +0.000 A 
ATOM     23  C   UNL     1      52.682   3.545  18.123  0.00  0.00    +0.000 A 
ATOM     24  C   UNL     1      53.814   2.724  18.098  0.00  0.00    +0.000 A 
ATOM     25  C   UNL     1      53.694   1.387  17.734  0.00  0.00    +0.000 A 
ATOM     26  C   UNL     1      52.447   0.873  17.393  0.00  0.00    +0.000 A 
ATOM     27  C   UNL     1      51.318   1.698  17.416  0.00  0.00    +0.000 A 
ENDBRANCH  20  22
ENDBRANCH  15  16
ENDBRANCH   1  15
TORSDOF 5
ENDMDL
MODEL 9
REMARK VINA RESULT:    -7.108      4.835      7.294
REMARK INTER + INTRA:          -9.678
REMARK INTER:                  -8.788
REMARK INTRA:                  -0.891
REMARK UNBOUND:                -0.493
REMARK  Name = 
REMARK  6 active torsions:
REMARK  status: ('A' for Active; 'I' for Inactive)
REMARK    1  A    between atoms: C_1  and  C_2
REMARK    2  A    between atoms: C_4  and  C_5
REMARK    3  A    between atoms: C_10  and  N_11
REMARK    4  A    between atoms: N_11  and  C_12
REMARK    5  A    between atoms: C_12  and  C_13
REMARK    6  A    between atoms: C_17  and  C_18
REMARK                            x       y       z     vdW  Elec       q    Type
REMARK                         _______ _______ _______ _____ _____    ______ ____
ROOT
ATOM      1  N   UNL     1      48.336   6.135  14.079  0.00  0.00    +0.000 N 
ATOM      2  H   UNL     1      49.146   6.409  13.545  0.00  0.00    +0.000 HD
ENDROOT
BRANCH   1   9
ATOM      3  C   UNL     1      46.985   3.544  13.621  0.00  0.00    +0.000 C 
ATOM      4  C   UNL     1      46.423   4.887  13.252  0.00  0.00    +0.000 A 
ATOM      5  C   UNL     1      45.131   4.925  12.698  0.00  0.00    +0.000 A 
ATOM      6  C   UNL     1      44.539   6.133  12.346  0.00  0.00    +0.000 A 
ATOM      7  C   UNL     1      45.280   7.272  12.566  0.00  0.00    +0.000 A 
ATOM      8  N   UNL     1      46.536   7.275  13.099  0.00  0.00    +0.000 NA
ATOM      9  C   UNL     1      47.114   6.094  13.429  0.00  0.00    +0.000 A 
BRANCH   6  10
ATOM     10  C   UNL     1      43.173   6.125  11.762  0.00  0.00    +0.000 C 
ATOM     11  N   UNL     1      42.719   7.240  11.118  0.00  0.00    +0.000 N 
ATOM     12  O   UNL     1      42.463   5.140  11.839  0.00  0.00    +0.000 OA
ATOM     13  H   UNL     1      43.221   8.106  10.989  0.00  0.00    +0.000 HD
ATOM     14  H   UNL     1      41.785   7.183  10.730  0.00  0.00    +0.000 HD
ENDBRANCH   6  10
ENDBRANCH   1   9
BRANCH   1  15
ATOM     15  C   UNL     1      48.401   6.451  15.506  0.00  0.00    +0.000 C 
BRANCH  15  16
ATOM     16  C   UNL     1      48.461   5.259  16.459  0.00  0.00    +0.000 A 
ATOM     17  C   UNL     1      47.287   4.699  16.949  0.00  0.00    +0.000 A 
ATOM     18  C   UNL     1      47.351   3.551  17.733  0.00  0.00    +0.000 A 
ATOM     19  C   UNL     1      48.588   2.971  17.994  0.00  0.00    +0.000 A 
ATOM     20  C   UNL     1      49.737   3.551  17.450  0.00  0.00    +0.000 A 
ATOM     21  N   UNL     1      49.677   4.694  16.706  0.00  0.00    +0.000 NA
BRANCH  20  22
ATOM     22  C   UNL     1      51.075   2.941  17.603  0.00  0.00    +0.000 A 
ATOM     23  C   UNL     1      52.200   3.700  17.992  0.00  0.00    +0.000 A 
ATOM     24  C   UNL     1      53.456   3.108  18.164  0.00  0.00    +0.000 A 
ATOM     25  C   UNL     1      53.614   1.742  17.956  0.00  0.00    +0.000 A 
ATOM     26  C   UNL     1      52.521   0.970  17.574  0.00  0.00    +0.000 A 
ATOM     27  C   UNL     1      51.267   1.566  17.401  0.00  0.00    +0.000 A 
ENDBRANCH  20  22
ENDBRANCH  15  16
ENDBRANCH   1  15
TORSDOF 5
ENDMDL
