MODEL 1
REMARK VINA RESULT:    -8.484      0.000      0.000
REMARK INTER + INTRA:         -12.010
REMARK INTER:                 -10.964
REMARK INTRA:                  -1.046
REMARK UNBOUND:                -1.046
REMARK  Name = 
REMARK  7 active torsions:
REMARK  status: ('A' for Active; 'I' for Inactive)
REMARK    1  A    between atoms: C_1  and  C_2
REMARK    2  A    between atoms: N_4  and  C_5
REMARK    3  A    between atoms: C_9  and  C_10
REMARK    4  A    between atoms: C_10  and  C_11
REMARK    5  A    between atoms: C_11  and  N_12
REMARK    6  A    between atoms: C_16  and  C_17
REMARK    7  A    between atoms: C_24  and  C_25
REMARK                            x       y       z     vdW  Elec       q    Type
REMARK                         _______ _______ _______ _____ _____    ______ ____
ROOT
ATOM      1  C   UNL     1      43.313   4.768  12.422  0.00  0.00    +0.000 C 
ENDROOT
BRANCH   1   6
ATOM      2  C   UNL     1      46.700   6.309  13.401  0.00  0.00    +0.000 A 
ATOM      3  C   UNL     1      47.417   5.138  13.679  0.00  0.00    +0.000 A 
ATOM      4  C   UNL     1      46.848   3.872  13.523  0.00  0.00    +0.000 A 
ATOM      5  C   UNL     1      45.528   3.742  13.095  0.00  0.00    +0.000 A 
ATOM      6  C   UNL     1      44.772   4.883  12.814  0.00  0.00    +0.000 A 
ATOM      7  C   UNL     1      45.378   6.145  12.957  0.00  0.00    +0.000 A 
BRANCH   2  11
ATOM      8  C   UNL     1      49.751   7.596  11.592  0.00  0.00    +0.000 C 
ATOM      9  C   UNL     1      49.453   8.483  12.800  0.00  0.00    +0.000 C 
ATOM     10  C   UNL     1      48.690   7.745  13.918  0.00  0.00    +0.000 C 
ATOM     11  N   UNL     1      47.279   7.552  13.558  0.00  0.00    +0.000 N 
ATOM     12  C   UNL     1      46.595   8.779  13.123  0.00  0.00    +0.000 C 
ATOM     13  C   UNL     1      47.413   9.476  12.012  0.00  0.00    +0.000 C 
ATOM     14  C   UNL     1      46.809  10.835  11.677  0.00  0.00    +0.000 C 
ATOM     15  O   UNL     1      48.781   9.697  12.407  0.00  0.00    +0.000 OA
ENDBRANCH   2  11
ENDBRANCH   1   6
BRANCH   1  16
ATOM     16  C   UNL     1      43.115   4.206  11.011  0.00  0.00    +0.000 C 
BRANCH  16  17
ATOM     17  N   UNL     1      43.932   4.931  10.023  0.00  0.00    +0.000 N 
ATOM     18  C   UNL     1      44.773   4.063   9.297  0.00  0.00    +0.000 A 
ATOM     19  C   UNL     1      45.608   4.587   8.313  0.00  0.00    +0.000 A 
ATOM     20  C   UNL     1      46.425   3.719   7.575  0.00  0.00    +0.000 A 
ATOM     21  C   UNL     1      46.394   2.348   7.836  0.00  0.00    +0.000 A 
ATOM     22  C   UNL     1      45.534   1.920   8.829  0.00  0.00    +0.000 A 
ATOM     23  N   UNL     1      44.734   2.741   9.548  0.00  0.00    +0.000 NA
ATOM     24  H   UNL     1      44.506   5.654  10.451  0.00  0.00    +0.000 HD
BRANCH  21  25
ATOM     25  C   UNL     1      47.254   1.425   7.063  0.00  0.00    +0.000 C 
ATOM     26  N   UNL     1      48.355   1.916   6.421  0.00  0.00    +0.000 N 
ATOM     27  O   UNL     1      46.990   0.228   6.993  0.00  0.00    +0.000 OA
ATOM     28  H   UNL     1      48.672   2.873   6.420  0.00  0.00    +0.000 HD
ATOM     29  H   UNL     1      48.917   1.246   5.908  0.00  0.00    +0.000 HD
ENDBRANCH  21  25
ENDBRANCH  16  17
ENDBRANCH   1  16
TORSDOF 5
ENDMDL
MODEL 2
REMARK VINA RESULT:    -7.895      1.255      2.077
REMARK INTER + INTRA:         -11.249
REMARK INTER:                 -10.375
REMARK INTRA:                  -0.874
REMARK UNBOUND:                -1.046
REMARK  Name = 
REMARK  7 active torsions:
REMARK  status: ('A' for Active; 'I' for Inactive)
REMARK    1  A    between atoms: C_1  and  C_2
REMARK    2  A    between atoms: N_4  and  C_5
REMARK    3  A    between atoms: C_9  and  C_10
REMARK    4  A    between atoms: C_10  and  C_11
REMARK    5  A    between atoms: C_11  and  N_12
REMARK    6  A    between atoms: C_16  and  C_17
REMARK    7  A    between atoms: C_24  and  C_25
REMARK                            x       y       z     vdW  Elec       q    Type
REMARK                         _______ _______ _______ _____ _____    ______ ____
ROOT
ATOM      1  C   UNL     1      43.489   5.657  12.104  0.00  0.00    +0.000 C 
ENDROOT
BRANCH   1   6
ATOM      2  C   UNL     1      47.079   6.885  12.737  0.00  0.00    +0.000 A 
ATOM      3  C   UNL     1      47.527   5.867  13.590  0.00  0.00    +0.000 A 
ATOM      4  C   UNL     1      46.715   4.784  13.932  0.00  0.00    +0.000 A 
ATOM      5  C   UNL     1      45.415   4.696  13.438  0.00  0.00    +0.000 A 
ATOM      6  C   UNL     1      44.923   5.692  12.591  0.00  0.00    +0.000 A 
ATOM      7  C   UNL     1      45.772   6.761  12.244  0.00  0.00    +0.000 A 
BRANCH   2  11
ATOM      8  C   UNL     1      49.571   8.573  15.012  0.00  0.00    +0.000 C 
ATOM      9  C   UNL     1      49.308   9.452  13.790  0.00  0.00    +0.000 C 
ATOM     10  C   UNL     1      47.923   9.209  13.158  0.00  0.00    +0.000 C 
ATOM     11  N   UNL     1      47.897   7.947  12.408  0.00  0.00    +0.000 N 
ATOM     12  C   UNL     1      48.994   7.800  11.439  0.00  0.00    +0.000 C 
ATOM     13  C   UNL     1      50.351   8.067  12.129  0.00  0.00    +0.000 C 
ATOM     14  C   UNL     1      51.477   8.092  11.102  0.00  0.00    +0.000 C 
ATOM     15  O   UNL     1      50.367   9.332  12.819  0.00  0.00    +0.000 OA
ENDBRANCH   2  11
ENDBRANCH   1   6
BRANCH   1  16
ATOM     16  C   UNL     1      43.356   5.132  10.672  0.00  0.00    +0.000 C 
BRANCH  16  17
ATOM     17  N   UNL     1      43.616   3.684  10.603  0.00  0.00    +0.000 N 
ATOM     18  C   UNL     1      44.537   3.363   9.585  0.00  0.00    +0.000 A 
ATOM     19  C   UNL     1      44.901   2.033   9.389  0.00  0.00    +0.000 A 
ATOM     20  C   UNL     1      45.836   1.719   8.393  0.00  0.00    +0.000 A 
ATOM     21  C   UNL     1      46.386   2.737   7.612  0.00  0.00    +0.000 A 
ATOM     22  C   UNL     1      45.966   4.025   7.879  0.00  0.00    +0.000 A 
ATOM     23  N   UNL     1      45.069   4.349   8.839  0.00  0.00    +0.000 NA
ATOM     24  H   UNL     1      42.766   3.145  10.451  0.00  0.00    +0.000 HD
BRANCH  21  25
ATOM     25  C   UNL     1      47.372   2.414   6.557  0.00  0.00    +0.000 C 
ATOM     26  N   UNL     1      47.408   3.172   5.420  0.00  0.00    +0.000 N 
ATOM     27  O   UNL     1      48.153   1.476   6.690  0.00  0.00    +0.000 OA
ATOM     28  H   UNL     1      46.825   3.967   5.211  0.00  0.00    +0.000 HD
ATOM     29  H   UNL     1      48.103   2.916   4.728  0.00  0.00    +0.000 HD
ENDBRANCH  21  25
ENDBRANCH  16  17
ENDBRANCH   1  16
TORSDOF 5
ENDMDL
MODEL 3
REMARK VINA RESULT:    -7.846      1.755      3.194
REMARK INTER + INTRA:         -11.186
REMARK INTER:                 -10.445
REMARK INTRA:                  -0.741
REMARK UNBOUND:                -1.046
REMARK  Name = 
REMARK  7 active torsions:
REMARK  status: ('A' for Active; 'I' for Inactive)
REMARK    1  A    between atoms: C_1  and  C_2
REMARK    2  A    between atoms: N_4  and  C_5
REMARK    3  A    between atoms: C_9  and  C_10
REMARK    4  A    between atoms: C_10  and  C_11
REMARK    5  A    between atoms: C_11  and  N_12
REMARK    6  A    between atoms: C_16  and  C_17
REMARK    7  A    between atoms: C_24  and  C_25
REMARK                            x       y       z     vdW  Elec       q    Type
REMARK                         _______ _______ _______ _____ _____    ______ ____
ROOT
ATOM      1  C   UNL     1      42.992   5.402  11.963  0.00  0.00    +0.000 C 
ENDROOT
BRANCH   1   6
ATOM      2  C   UNL     1      46.478   6.370  13.273  0.00  0.00    +0.000 A 
ATOM      3  C   UNL     1      46.526   7.703  12.843  0.00  0.00    +0.000 A 
ATOM      4  C   UNL     1      45.453   8.302  12.180  0.00  0.00    +0.000 A 
ATOM      5  C   UNL     1      44.297   7.571  11.912  0.00  0.00    +0.000 A 
ATOM      6  C   UNL     1      44.208   6.237  12.313  0.00  0.00    +0.000 A 
ATOM      7  C   UNL     1      45.295   5.666  13.001  0.00  0.00    +0.000 A 
BRANCH   2  11
ATOM      8  C   UNL     1      48.415   7.884  16.136  0.00  0.00    +0.000 C 
ATOM      9  C   UNL     1      49.198   6.714  15.542  0.00  0.00    +0.000 C 
ATOM     10  C   UNL     1      48.858   6.446  14.063  0.00  0.00    +0.000 C 
ATOM     11  N   UNL     1      47.548   5.796  13.930  0.00  0.00    +0.000 N 
ATOM     12  C   UNL     1      47.380   4.602  14.772  0.00  0.00    +0.000 C 
ATOM     13  C   UNL     1      47.747   4.931  16.237  0.00  0.00    +0.000 C 
ATOM     14  C   UNL     1      47.748   3.664  17.085  0.00  0.00    +0.000 C 
ATOM     15  O   UNL     1      49.055   5.525  16.346  0.00  0.00    +0.000 OA
ENDBRANCH   2  11
ENDBRANCH   1   6
BRANCH   1  16
ATOM     16  C   UNL     1      43.245   4.433  10.805  0.00  0.00    +0.000 C 
BRANCH  16  17
ATOM     17  N   UNL     1      44.044   5.063   9.740  0.00  0.00    +0.000 N 
ATOM     18  C   UNL     1      44.873   4.130   9.084  0.00  0.00    +0.000 A 
ATOM     19  C   UNL     1      45.691   4.560   8.041  0.00  0.00    +0.000 A 
ATOM     20  C   UNL     1      46.496   3.627   7.374  0.00  0.00    +0.000 A 
ATOM     21  C   UNL     1      46.471   2.286   7.761  0.00  0.00    +0.000 A 
ATOM     22  C   UNL     1      45.628   1.953   8.803  0.00  0.00    +0.000 A 
ATOM     23  N   UNL     1      44.840   2.837   9.457  0.00  0.00    +0.000 NA
ATOM     24  H   UNL     1      44.625   5.822  10.089  0.00  0.00    +0.000 HD
BRANCH  21  25
ATOM     25  C   UNL     1      47.319   1.295   7.062  0.00  0.00    +0.000 C 
ATOM     26  N   UNL     1      48.431   1.720   6.392  0.00  0.00    +0.000 N 
ATOM     27  O   UNL     1      47.034   0.100   7.077  0.00  0.00    +0.000 OA
ATOM     28  H   UNL     1      48.764   2.668   6.323  0.00  0.00    +0.000 HD
ATOM     29  H   UNL     1      48.983   1.004   5.933  0.00  0.00    +0.000 HD
ENDBRANCH  21  25
ENDBRANCH  16  17
ENDBRANCH   1  16
TORSDOF 5
ENDMDL
MODEL 4
REMARK VINA RESULT:    -7.105      1.621      2.928
REMARK INTER + INTRA:         -10.227
REMARK INTER:                  -9.565
REMARK INTRA:                  -0.663
REMARK UNBOUND:                -1.046
REMARK  Name = 
REMARK  7 active torsions:
REMARK  status: ('A' for Active; 'I' for Inactive)
REMARK    1  A    between atoms: C_1  and  C_2
REMARK    2  A    between atoms: N_4  and  C_5
REMARK    3  A    between atoms: C_9  and  C_10
REMARK    4  A    between atoms: C_10  and  C_11
REMARK    5  A    between atoms: C_11  and  N_12
REMARK    6  A    between atoms: C_16  and  C_17
REMARK    7  A    between atoms: C_24  and  C_25
REMARK                            x       y       z     vdW  Elec       q    Type
REMARK                         _______ _______ _______ _____ _____    ______ ____
ROOT
ATOM      1  C   UNL     1      43.938   6.001  11.908  0.00  0.00    +0.000 C 
ENDROOT
BRANCH   1   6
ATOM      2  C   UNL     1      47.369   7.687  12.340  0.00  0.00    +0.000 A 
ATOM      3  C   UNL     1      47.009   9.017  12.083  0.00  0.00    +0.000 A 
ATOM      4  C   UNL     1      45.688   9.384  11.815  0.00  0.00    +0.000 A 
ATOM      5  C   UNL     1      44.685   8.417  11.779  0.00  0.00    +0.000 A 
ATOM      6  C   UNL     1      44.999   7.078  12.018  0.00  0.00    +0.000 A 
ATOM      7  C   UNL     1      46.334   6.741  12.311  0.00  0.00    +0.000 A 
BRANCH   2  11
ATOM      8  C   UNL     1      50.289  10.063  12.603  0.00  0.00    +0.000 C 
ATOM      9  C   UNL     1      50.799   8.630  12.456  0.00  0.00    +0.000 C 
ATOM     10  C   UNL     1      49.802   7.705  11.731  0.00  0.00    +0.000 C 
ATOM     11  N   UNL     1      48.679   7.345  12.606  0.00  0.00    +0.000 N 
ATOM     12  C   UNL     1      49.084   6.820  13.919  0.00  0.00    +0.000 C 
ATOM     13  C   UNL     1      50.090   7.784  14.589  0.00  0.00    +0.000 C 
ATOM     14  C   UNL     1      50.650   7.169  15.866  0.00  0.00    +0.000 C 
ATOM     15  O   UNL     1      51.205   8.085  13.728  0.00  0.00    +0.000 OA
ENDBRANCH   2  11
ENDBRANCH   1   6
BRANCH   1  16
ATOM     16  C   UNL     1      43.802   5.438  10.491  0.00  0.00    +0.000 C 
BRANCH  16  17
ATOM     17  N   UNL     1      43.941   3.972  10.477  0.00  0.00    +0.000 N 
ATOM     18  C   UNL     1      44.829   3.537   9.471  0.00  0.00    +0.000 A 
ATOM     19  C   UNL     1      45.081   2.175   9.327  0.00  0.00    +0.000 A 
ATOM     20  C   UNL     1      45.982   1.747   8.343  0.00  0.00    +0.000 A 
ATOM     21  C   UNL     1      46.610   2.685   7.521  0.00  0.00    +0.000 A 
ATOM     22  C   UNL     1      46.299   4.013   7.739  0.00  0.00    +0.000 A 
ATOM     23  N   UNL     1      45.436   4.447   8.687  0.00  0.00    +0.000 NA
ATOM     24  H   UNL     1      43.050   3.499  10.349  0.00  0.00    +0.000 HD
BRANCH  21  25
ATOM     25  C   UNL     1      47.562   2.241   6.479  0.00  0.00    +0.000 C 
ATOM     26  N   UNL     1      47.902   3.103   5.473  0.00  0.00    +0.000 N 
ATOM     27  O   UNL     1      48.045   1.113   6.505  0.00  0.00    +0.000 OA
ATOM     28  H   UNL     1      47.576   4.050   5.359  0.00  0.00    +0.000 HD
ATOM     29  H   UNL     1      48.560   2.757   4.785  0.00  0.00    +0.000 HD
ENDBRANCH  21  25
ENDBRANCH  16  17
ENDBRANCH   1  16
TORSDOF 5
ENDMDL
MODEL 5
REMARK VINA RESULT:    -6.979      3.277      7.680
REMARK INTER + INTRA:         -10.065
REMARK INTER:                  -9.202
REMARK INTRA:                  -0.863
REMARK UNBOUND:                -1.046
REMARK  Name = 
REMARK  7 active torsions:
REMARK  status: ('A' for Active; 'I' for Inactive)
REMARK    1  A    between atoms: C_1  and  C_2
REMARK    2  A    between atoms: N_4  and  C_5
REMARK    3  A    between atoms: C_9  and  C_10
REMARK    4  A    between atoms: C_10  and  C_11
REMARK    5  A    between atoms: C_11  and  N_12
REMARK    6  A    between atoms: C_16  and  C_17
REMARK    7  A    between atoms: C_24  and  C_25
REMARK                            x       y       z     vdW  Elec       q    Type
REMARK                         _______ _______ _______ _____ _____    ______ ____
ROOT
ATOM      1  C   UNL     1      48.501   9.031  13.241  0.00  0.00    +0.000 C 
ENDROOT
BRANCH   1   6
ATOM      2  C   UNL     1      45.647   6.902  11.783  0.00  0.00    +0.000 A 
ATOM      3  C   UNL     1      44.733   7.919  11.474  0.00  0.00    +0.000 A 
ATOM      4  C   UNL     1      45.030   9.266  11.688  0.00  0.00    +0.000 A 
ATOM      5  C   UNL     1      46.256   9.636  12.238  0.00  0.00    +0.000 A 
ATOM      6  C   UNL     1      47.194   8.657  12.571  0.00  0.00    +0.000 A 
ATOM      7  C   UNL     1      46.878   7.308  12.322  0.00  0.00    +0.000 A 
BRANCH   2  11
ATOM      8  C   UNL     1      42.186   5.400  11.720  0.00  0.00    +0.000 C 
ATOM      9  C   UNL     1      43.230   4.291  11.842  0.00  0.00    +0.000 C 
ATOM     10  C   UNL     1      44.543   4.765  12.495  0.00  0.00    +0.000 C 
ATOM     11  N   UNL     1      45.336   5.576  11.562  0.00  0.00    +0.000 N 
ATOM     12  C   UNL     1      45.553   4.945  10.251  0.00  0.00    +0.000 C 
ATOM     13  C   UNL     1      44.204   4.482   9.656  0.00  0.00    +0.000 C 
ATOM     14  C   UNL     1      44.431   3.672   8.384  0.00  0.00    +0.000 C 
ATOM     15  O   UNL     1      43.466   3.650  10.572  0.00  0.00    +0.000 OA
ENDBRANCH   2  11
ENDBRANCH   1   6
BRANCH   1  16
ATOM     16  C   UNL     1      49.406   7.824  13.502  0.00  0.00    +0.000 C 
BRANCH  16  17
ATOM     17  N   UNL     1      49.885   7.800  14.894  0.00  0.00    +0.000 N 
ATOM     18  C   UNL     1      49.310   6.745  15.631  0.00  0.00    +0.000 A 
ATOM     19  C   UNL     1      49.664   6.574  16.968  0.00  0.00    +0.000 A 
ATOM     20  C   UNL     1      49.111   5.509  17.691  0.00  0.00    +0.000 A 
ATOM     21  C   UNL     1      48.214   4.639  17.069  0.00  0.00    +0.000 A 
ATOM     22  C   UNL     1      47.924   4.885  15.741  0.00  0.00    +0.000 A 
ATOM     23  N   UNL     1      48.452   5.905  15.024  0.00  0.00    +0.000 NA
ATOM     24  H   UNL     1      49.700   8.674  15.383  0.00  0.00    +0.000 HD
BRANCH  21  25
ATOM     25  C   UNL     1      47.624   3.512  17.826  0.00  0.00    +0.000 C 
ATOM     26  N   UNL     1      48.213   3.107  18.990  0.00  0.00    +0.000 N 
ATOM     27  O   UNL     1      46.616   2.940  17.419  0.00  0.00    +0.000 OA
ATOM     28  H   UNL     1      49.031   3.509  19.420  0.00  0.00    +0.000 HD
ATOM     29  H   UNL     1      47.770   2.336  19.476  0.00  0.00    +0.000 HD
ENDBRANCH  21  25
ENDBRANCH  16  17
ENDBRANCH   1  16
TORSDOF 5
ENDMDL
MODEL 6
REMARK VINA RESULT:    -6.481      3.889      6.428
REMARK INTER + INTRA:          -9.422
REMARK INTER:                  -8.430
REMARK INTRA:                  -0.991
REMARK UNBOUND:                -1.046
REMARK  Name = 
REMARK  7 active torsions:
REMARK  status: ('A' for Active; 'I' for Inactive)
REMARK    1  A    between atoms: C_1  and  C_2
REMARK    2  A    between atoms: N_4  and  C_5
REMARK    3  A    between atoms: C_9  and  C_10
REMARK    4  A    between atoms: C_10  and  C_11
REMARK    5  A    between atoms: C_11  and  N_12
REMARK    6  A    between atoms: C_16  and  C_17
REMARK    7  A    between atoms: C_24  and  C_25
REMARK                            x       y       z     vdW  Elec       q    Type
REMARK                         _______ _______ _______ _____ _____    ______ ____
ROOT
ATOM      1  C   UNL     1      49.147   8.416  14.012  0.00  0.00    +0.000 C 
ENDROOT
BRANCH   1   6
ATOM      2  C   UNL     1      48.709   6.826  17.488  0.00  0.00    +0.000 A 
ATOM      3  C   UNL     1      48.278   7.950  18.206  0.00  0.00    +0.000 A 
ATOM      4  C   UNL     1      48.091   9.189  17.590  0.00  0.00    +0.000 A 
ATOM      5  C   UNL     1      48.348   9.343  16.229  0.00  0.00    +0.000 A 
ATOM      6  C   UNL     1      48.788   8.253  15.476  0.00  0.00    +0.000 A 
ATOM      7  C   UNL     1      48.945   7.009  16.117  0.00  0.00    +0.000 A 
BRANCH   2  11
ATOM      8  C   UNL     1      47.509   3.475  16.233  0.00  0.00    +0.000 C 
ATOM      9  C   UNL     1      47.891   3.369  17.709  0.00  0.00    +0.000 C 
ATOM     10  C   UNL     1      47.777   4.710  18.461  0.00  0.00    +0.000 C 
ATOM     11  N   UNL     1      48.886   5.608  18.114  0.00  0.00    +0.000 N 
ATOM     12  C   UNL     1      50.218   4.999  18.244  0.00  0.00    +0.000 C 
ATOM     13  C   UNL     1      50.264   3.656  17.481  0.00  0.00    +0.000 C 
ATOM     14  C   UNL     1      51.577   2.931  17.753  0.00  0.00    +0.000 C 
ATOM     15  O   UNL     1      49.194   2.774  17.873  0.00  0.00    +0.000 OA
ENDBRANCH   2  11
ENDBRANCH   1   6
BRANCH   1  16
ATOM     16  C   UNL     1      48.933   7.137  13.198  0.00  0.00    +0.000 C 
BRANCH  16  17
ATOM     17  N   UNL     1      48.022   7.365  12.065  0.00  0.00    +0.000 N 
ATOM     18  C   UNL     1      46.982   6.414  12.025  0.00  0.00    +0.000 A 
ATOM     19  C   UNL     1      46.023   6.492  11.018  0.00  0.00    +0.000 A 
ATOM     20  C   UNL     1      44.977   5.560  10.995  0.00  0.00    +0.000 A 
ATOM     21  C   UNL     1      44.909   4.569  11.975  0.00  0.00    +0.000 A 
ATOM     22  C   UNL     1      45.902   4.570  12.935  0.00  0.00    +0.000 A 
ATOM     23  N   UNL     1      46.918   5.464  12.977  0.00  0.00    +0.000 NA
ATOM     24  H   UNL     1      48.505   7.353  11.169  0.00  0.00    +0.000 HD
BRANCH  21  25
ATOM     25  C   UNL     1      43.808   3.580  11.958  0.00  0.00    +0.000 C 
ATOM     26  N   UNL     1      43.900   2.463  12.741  0.00  0.00    +0.000 N 
ATOM     27  O   UNL     1      42.820   3.750  11.250  0.00  0.00    +0.000 OA
ATOM     28  H   UNL     1      44.656   2.228  13.365  0.00  0.00    +0.000 HD
ATOM     29  H   UNL     1      43.120   1.817  12.700  0.00  0.00    +0.000 HD
ENDBRANCH  21  25
ENDBRANCH  16  17
ENDBRANCH   1  16
TORSDOF 5
ENDMDL
MODEL 7
REMARK VINA RESULT:    -6.380      3.904      6.234
REMARK INTER + INTRA:          -9.292
REMARK INTER:                  -8.406
REMARK INTRA:                  -0.885
REMARK UNBOUND:                -1.046
REMARK  Name = 
REMARK  7 active torsions:
REMARK  status: ('A' for Active; 'I' for Inactive)
REMARK    1  A    between atoms: C_1  and  C_2
REMARK    2  A    between atoms: N_4  and  C_5
REMARK    3  A    between atoms: C_9  and  C_10
REMARK    4  A    between atoms: C_10  and  C_11
REMARK    5  A    between atoms: C_11  and  N_12
REMARK    6  A    between atoms: C_16  and  C_17
REMARK    7  A    between atoms: C_24  and  C_25
REMARK                            x       y       z     vdW  Elec       q    Type
REMARK                         _______ _______ _______ _____ _____    ______ ____
ROOT
ATOM      1  C   UNL     1      48.726   8.612  13.576  0.00  0.00    +0.000 C 
ENDROOT
BRANCH   1   6
ATOM      2  C   UNL     1      49.199   6.213  16.546  0.00  0.00    +0.000 A 
ATOM      3  C   UNL     1      50.595   6.258  16.662  0.00  0.00    +0.000 A 
ATOM      4  C   UNL     1      51.376   7.067  15.835  0.00  0.00    +0.000 A 
ATOM      5  C   UNL     1      50.778   7.849  14.849  0.00  0.00    +0.000 A 
ATOM      6  C   UNL     1      49.390   7.829  14.691  0.00  0.00    +0.000 A 
ATOM      7  C   UNL     1      48.625   7.023  15.554  0.00  0.00    +0.000 A 
BRANCH   2  11
ATOM      8  C   UNL     1      49.842   2.577  17.324  0.00  0.00    +0.000 C 
ATOM      9  C   UNL     1      48.422   2.953  17.745  0.00  0.00    +0.000 C 
ATOM     10  C   UNL     1      47.847   4.138  16.943  0.00  0.00    +0.000 C 
ATOM     11  N   UNL     1      48.442   5.409  17.375  0.00  0.00    +0.000 N 
ATOM     12  C   UNL     1      48.394   5.633  18.827  0.00  0.00    +0.000 C 
ATOM     13  C   UNL     1      48.972   4.410  19.574  0.00  0.00    +0.000 C 
ATOM     14  C   UNL     1      48.766   4.554  21.077  0.00  0.00    +0.000 C 
ATOM     15  O   UNL     1      48.339   3.181  19.167  0.00  0.00    +0.000 OA
ENDBRANCH   2  11
ENDBRANCH   1   6
BRANCH   1  16
ATOM     16  C   UNL     1      47.266   8.209  13.350  0.00  0.00    +0.000 C 
BRANCH  16  17
ATOM     17  N   UNL     1      47.017   7.849  11.944  0.00  0.00    +0.000 N 
ATOM     18  C   UNL     1      46.290   6.647  11.829  0.00  0.00    +0.000 A 
ATOM     19  C   UNL     1      45.961   6.167  10.563  0.00  0.00    +0.000 A 
ATOM     20  C   UNL     1      45.217   4.985  10.452  0.00  0.00    +0.000 A 
ATOM     21  C   UNL     1      44.818   4.304  11.604  0.00  0.00    +0.000 A 
ATOM     22  C   UNL     1      45.189   4.856  12.815  0.00  0.00    +0.000 A 
ATOM     23  N   UNL     1      45.903   5.999  12.944  0.00  0.00    +0.000 NA
ATOM     24  H   UNL     1      47.878   7.759  11.409  0.00  0.00    +0.000 HD
BRANCH  21  25
ATOM     25  C   UNL     1      44.034   3.054  11.496  0.00  0.00    +0.000 C 
ATOM     26  N   UNL     1      43.698   2.375  12.633  0.00  0.00    +0.000 N 
ATOM     27  O   UNL     1      43.685   2.622  10.401  0.00  0.00    +0.000 OA
ATOM     28  H   UNL     1      43.920   2.641  13.579  0.00  0.00    +0.000 HD
ATOM     29  H   UNL     1      43.156   1.527  12.510  0.00  0.00    +0.000 HD
ENDBRANCH  21  25
ENDBRANCH  16  17
ENDBRANCH   1  16
TORSDOF 5
ENDMDL
MODEL 8
REMARK VINA RESULT:    -6.131      4.683      6.109
REMARK INTER + INTRA:          -8.969
REMARK INTER:                  -8.263
REMARK INTRA:                  -0.706
REMARK UNBOUND:                -1.046
REMARK  Name = 
REMARK  7 active torsions:
REMARK  status: ('A' for Active; 'I' for Inactive)
REMARK    1  A    between atoms: C_1  and  C_2
REMARK    2  A    between atoms: N_4  and  C_5
REMARK    3  A    between atoms: C_9  and  C_10
REMARK    4  A    between atoms: C_10  and  C_11
REMARK    5  A    between atoms: C_11  and  N_12
REMARK    6  A    between atoms: C_16  and  C_17
REMARK    7  A    between atoms: C_24  and  C_25
REMARK                            x       y       z     vdW  Elec       q    Type
REMARK                         _______ _______ _______ _____ _____    ______ ____
ROOT
ATOM      1  C   UNL     1      46.986   4.262  17.249  0.00  0.00    +0.000 C 
ENDROOT
BRANCH   1   6
ATOM      2  C   UNL     1      48.792   6.867  19.429  0.00  0.00    +0.000 A 
ATOM      3  C   UNL     1      49.662   6.021  20.131  0.00  0.00    +0.000 A 
ATOM      4  C   UNL     1      49.705   4.646  19.891  0.00  0.00    +0.000 A 
ATOM      5  C   UNL     1      48.858   4.072  18.944  0.00  0.00    +0.000 A 
ATOM      6  C   UNL     1      47.968   4.875  18.227  0.00  0.00    +0.000 A 
ATOM      7  C   UNL     1      47.964   6.261  18.472  0.00  0.00    +0.000 A 
BRANCH   2  11
ATOM      8  C   UNL     1      48.035   9.584  16.922  0.00  0.00    +0.000 C 
ATOM      9  C   UNL     1      48.679  10.193  18.168  0.00  0.00    +0.000 C 
ATOM     10  C   UNL     1      49.573   9.199  18.934  0.00  0.00    +0.000 C 
ATOM     11  N   UNL     1      48.766   8.225  19.679  0.00  0.00    +0.000 N 
ATOM     12  C   UNL     1      47.731   8.828  20.533  0.00  0.00    +0.000 C 
ATOM     13  C   UNL     1      46.878   9.821  19.712  0.00  0.00    +0.000 C 
ATOM     14  C   UNL     1      45.921  10.582  20.622  0.00  0.00    +0.000 C 
ATOM     15  O   UNL     1      47.690  10.795  19.028  0.00  0.00    +0.000 OA
ENDBRANCH   2  11
ENDBRANCH   1   6
BRANCH   1  16
ATOM     16  C   UNL     1      47.551   4.142  15.831  0.00  0.00    +0.000 C 
BRANCH  16  17
ATOM     17  N   UNL     1      47.194   5.310  15.008  0.00  0.00    +0.000 N 
ATOM     18  C   UNL     1      46.467   4.941  13.858  0.00  0.00    +0.000 A 
ATOM     19  C   UNL     1      46.042   5.930  12.974  0.00  0.00    +0.000 A 
ATOM     20  C   UNL     1      45.297   5.564  11.844  0.00  0.00    +0.000 A 
ATOM     21  C   UNL     1      44.995   4.220  11.618  0.00  0.00    +0.000 A 
ATOM     22  C   UNL     1      45.457   3.311  12.550  0.00  0.00    +0.000 A 
ATOM     23  N   UNL     1      46.172   3.645  13.649  0.00  0.00    +0.000 NA
ATOM     24  H   UNL     1      48.010   5.843  14.717  0.00  0.00    +0.000 HD
BRANCH  21  25
ATOM     25  C   UNL     1      44.211   3.824  10.427  0.00  0.00    +0.000 C 
ATOM     26  N   UNL     1      44.061   4.712   9.399  0.00  0.00    +0.000 N 
ATOM     27  O   UNL     1      43.695   2.712  10.354  0.00  0.00    +0.000 OA
ATOM     28  H   UNL     1      44.448   5.642   9.349  0.00  0.00    +0.000 HD
ATOM     29  H   UNL     1      43.521   4.395   8.603  0.00  0.00    +0.000 HD
ENDBRANCH  21  25
ENDBRANCH  16  17
ENDBRANCH   1  16
TORSDOF 5
ENDMDL
MODEL 9
REMARK VINA RESULT:    -6.096      5.513      7.188
REMARK INTER + INTRA:          -8.925
REMARK INTER:                  -8.219
REMARK INTRA:                  -0.706
REMARK UNBOUND:                -1.046
REMARK  Name = 
REMARK  7 active torsions:
REMARK  status: ('A' for Active; 'I' for Inactive)
REMARK    1  A    between atoms: C_1  and  C_2
REMARK    2  A    between atoms: N_4  and  C_5
REMARK    3  A    between atoms: C_9  and  C_10
REMARK    4  A    between atoms: C_10  and  C_11
REMARK    5  A    between atoms: C_11  and  N_12
REMARK    6  A    between atoms: C_16  and  C_17
REMARK    7  A    between atoms: C_24  and  C_25
REMARK                            x       y       z     vdW  Elec       q    Type
REMARK                         _______ _______ _______ _____ _____    ______ ____
ROOT
ATOM      1  C   UNL     1      46.925   4.244  17.098  0.00  0.00    +0.000 C 
ENDROOT
BRANCH   1   6
ATOM      2  C   UNL     1      50.225   5.309  18.763  0.00  0.00    +0.000 A 
ATOM      3  C   UNL     1      49.722   6.171  19.748  0.00  0.00    +0.000 A 
ATOM      4  C   UNL     1      48.351   6.383  19.909  0.00  0.00    +0.000 A 
ATOM      5  C   UNL     1      47.438   5.746  19.070  0.00  0.00    +0.000 A 
ATOM      6  C   UNL     1      47.894   4.886  18.069  0.00  0.00    +0.000 A 
ATOM      7  C   UNL     1      49.280   4.671  17.945  0.00  0.00    +0.000 A 
BRANCH   2  11
ATOM      8  C   UNL     1      52.646   4.387  21.507  0.00  0.00    +0.000 C 
ATOM      9  C   UNL     1      53.415   4.880  20.282  0.00  0.00    +0.000 C 
ATOM     10  C   UNL     1      52.593   5.839  19.398  0.00  0.00    +0.000 C 
ATOM     11  N   UNL     1      51.583   5.109  18.621  0.00  0.00    +0.000 N 
ATOM     12  C   UNL     1      52.116   3.964  17.868  0.00  0.00    +0.000 C 
ATOM     13  C   UNL     1      52.938   3.049  18.804  0.00  0.00    +0.000 C 
ATOM     14  C   UNL     1      53.639   1.958  18.004  0.00  0.00    +0.000 C 
ATOM     15  O   UNL     1      53.952   3.780  19.520  0.00  0.00    +0.000 OA
ENDBRANCH   2  11
ENDBRANCH   1   6
BRANCH   1  16
ATOM     16  C   UNL     1      47.493   4.115  15.682  0.00  0.00    +0.000 C 
BRANCH  16  17
ATOM     17  N   UNL     1      47.130   5.274  14.849  0.00  0.00    +0.000 N 
ATOM     18  C   UNL     1      46.413   4.890  13.697  0.00  0.00    +0.000 A 
ATOM     19  C   UNL     1      45.985   5.868  12.802  0.00  0.00    +0.000 A 
ATOM     20  C   UNL     1      45.250   5.487  11.671  0.00  0.00    +0.000 A 
ATOM     21  C   UNL     1      44.961   4.139  11.454  0.00  0.00    +0.000 A 
ATOM     22  C   UNL     1      45.426   3.241  12.395  0.00  0.00    +0.000 A 
ATOM     23  N   UNL     1      46.132   3.589  13.496  0.00  0.00    +0.000 NA
ATOM     24  H   UNL     1      47.944   5.812  14.558  0.00  0.00    +0.000 HD
BRANCH  21  25
ATOM     25  C   UNL     1      44.188   3.727  10.261  0.00  0.00    +0.000 C 
ATOM     26  N   UNL     1      43.871   4.660   9.314  0.00  0.00    +0.000 N 
ATOM     27  O   UNL     1      43.829   2.562  10.115  0.00  0.00    +0.000 OA
ATOM     28  H   UNL     1      44.123   5.636   9.326  0.00  0.00    +0.000 HD
ATOM     29  H   UNL     1      43.345   4.330   8.513  0.00  0.00    +0.000 HD
ENDBRANCH  21  25
ENDBRANCH  16  17
ENDBRANCH   1  16
TORSDOF 5
ENDMDL
