MODEL 1
REMARK VINA RESULT:    -7.518      0.000      0.000
REMARK INTER + INTRA:          -9.604
REMARK INTER:                  -9.276
REMARK INTRA:                  -0.328
REMARK UNBOUND:                -0.328
REMARK  Name = 
REMARK  4 active torsions:
REMARK  status: ('A' for Active; 'I' for Inactive)
REMARK    1  A    between atoms: C_5  and  C_6
REMARK    2  A    between atoms: C_10  and  C_11
REMARK    3  A    between atoms: C_11  and  O_12
REMARK    4  A    between atoms: O_12  and  C_13
REMARK                            x       y       z     vdW  Elec       q    Type
REMARK                         _______ _______ _______ _____ _____    ______ ____
ROOT
ATOM      1  C   UNL     1      46.933   5.515  13.352  0.00  0.00    +0.000 A 
ATOM      2  C   UNL     1      47.503   6.587  12.676  0.00  0.00    +0.000 A 
ATOM      3  C   UNL     1      46.977   6.961  11.442  0.00  0.00    +0.000 A 
ATOM      4  C   UNL     1      45.893   6.259  10.921  0.00  0.00    +0.000 A 
ATOM      5  C   UNL     1      45.352   5.195  11.642  0.00  0.00    +0.000 A 
ATOM      6  N   UNL     1      45.888   4.826  12.833  0.00  0.00    +0.000 NA
ENDROOT
BRANCH   1  11
ATOM      7  C   UNL     1      48.649   5.354  16.719  0.00  0.00    +0.000 A 
ATOM      8  C   UNL     1      48.252   4.088  17.108  0.00  0.00    +0.000 A 
ATOM      9  N   UNL     1      47.445   3.296  16.370  0.00  0.00    +0.000 NA
ATOM     10  C   UNL     1      47.030   3.795  15.179  0.00  0.00    +0.000 A 
ATOM     11  C   UNL     1      47.363   5.053  14.678  0.00  0.00    +0.000 A 
ATOM     12  C   UNL     1      48.195   5.836  15.495  0.00  0.00    +0.000 A 
ENDBRANCH   1  11
BRANCH   5  13
ATOM     13  C   UNL     1      44.121   4.442  11.163  0.00  0.00    +0.000 C 
ATOM     14  C   UNL     1      42.840   4.663  11.956  0.00  0.00    +0.000 C 
ATOM     15  C   UNL     1      43.522   3.335  12.016  0.00  0.00    +0.000 C 
BRANCH  13  16
ATOM     16  O   UNL     1      43.926   4.332   9.729  0.00  0.00    +0.000 OA
BRANCH  16  17
ATOM     17  C   UNL     1      44.835   3.570   9.033  0.00  0.00    +0.000 A 
ATOM     18  C   UNL     1      45.084   2.219   9.259  0.00  0.00    +0.000 A 
ATOM     19  N   UNL     1      45.980   1.496   8.536  0.00  0.00    +0.000 NA
ATOM     20  C   UNL     1      46.629   2.186   7.574  0.00  0.00    +0.000 A 
ATOM     21  C   UNL     1      46.399   3.532   7.354  0.00  0.00    +0.000 A 
ATOM     22  N   UNL     1      45.509   4.251   8.077  0.00  0.00    +0.000 NA
ENDBRANCH  16  17
ENDBRANCH  13  16
ENDBRANCH   5  13
TORSDOF 4
ENDMDL
MODEL 2
REMARK VINA RESULT:    -7.438      1.853      3.523
REMARK INTER + INTRA:          -9.506
REMARK INTER:                  -9.152
REMARK INTRA:                  -0.353
REMARK UNBOUND:                -0.328
REMARK  Name = 
REMARK  4 active torsions:
REMARK  status: ('A' for Active; 'I' for Inactive)
REMARK    1  A    between atoms: C_5  and  C_6
REMARK    2  A    between atoms: C_10  and  C_11
REMARK    3  A    between atoms: C_11  and  O_12
REMARK    4  A    between atoms: O_12  and  C_13
REMARK                            x       y       z     vdW  Elec       q    Type
REMARK                         _______ _______ _______ _____ _____    ______ ____
ROOT
ATOM      1  C   UNL     1      46.930   6.393  12.484  0.00  0.00    +0.000 A 
ATOM      2  C   UNL     1      47.512   5.558  13.430  0.00  0.00    +0.000 A 
ATOM      3  C   UNL     1      46.957   4.300  13.649  0.00  0.00    +0.000 A 
ATOM      4  C   UNL     1      45.843   3.908  12.911  0.00  0.00    +0.000 A 
ATOM      5  C   UNL     1      45.301   4.779  11.967  0.00  0.00    +0.000 A 
ATOM      6  N   UNL     1      45.837   6.012  11.780  0.00  0.00    +0.000 NA
ENDROOT
BRANCH   1  11
ATOM      7  C   UNL     1      49.271   9.186  11.473  0.00  0.00    +0.000 A 
ATOM      8  C   UNL     1      48.404  10.255  11.594  0.00  0.00    +0.000 A 
ATOM      9  N   UNL     1      47.107  10.132  11.951  0.00  0.00    +0.000 NA
ATOM     10  C   UNL     1      46.668   8.876  12.213  0.00  0.00    +0.000 A 
ATOM     11  C   UNL     1      47.445   7.721  12.128  0.00  0.00    +0.000 A 
ATOM     12  C   UNL     1      48.782   7.911  11.739  0.00  0.00    +0.000 A 
ENDBRANCH   1  11
BRANCH   5  13
ATOM     13  C   UNL     1      44.135   4.378  11.077  0.00  0.00    +0.000 C 
ATOM     14  C   UNL     1      42.741   4.661  11.618  0.00  0.00    +0.000 C 
ATOM     15  C   UNL     1      43.209   3.247  11.496  0.00  0.00    +0.000 C 
BRANCH  13  16
ATOM     16  O   UNL     1      44.282   4.601   9.651  0.00  0.00    +0.000 OA
BRANCH  16  17
ATOM     17  C   UNL     1      45.102   3.735   8.966  0.00  0.00    +0.000 A 
ATOM     18  C   UNL     1      45.188   2.366   9.194  0.00  0.00    +0.000 A 
ATOM     19  N   UNL     1      46.000   1.540   8.482  0.00  0.00    +0.000 NA
ATOM     20  C   UNL     1      46.736   2.147   7.527  0.00  0.00    +0.000 A 
ATOM     21  C   UNL     1      46.669   3.510   7.303  0.00  0.00    +0.000 A 
ATOM     22  N   UNL     1      45.862   4.331   8.016  0.00  0.00    +0.000 NA
ENDBRANCH  16  17
ENDBRANCH  13  16
ENDBRANCH   5  13
TORSDOF 4
ENDMDL
MODEL 3
REMARK VINA RESULT:    -6.979      3.002      4.957
REMARK INTER + INTRA:          -8.939
REMARK INTER:                  -8.640
REMARK INTRA:                  -0.298
REMARK UNBOUND:                -0.328
REMARK  Name = 
REMARK  4 active torsions:
REMARK  status: ('A' for Active; 'I' for Inactive)
REMARK    1  A    between atoms: C_5  and  C_6
REMARK    2  A    between atoms: C_10  and  C_11
REMARK    3  A    between atoms: C_11  and  O_12
REMARK    4  A    between atoms: O_12  and  C_13
REMARK                            x       y       z     vdW  Elec       q    Type
REMARK                         _______ _______ _______ _____ _____    ______ ____
ROOT
ATOM      1  C   UNL     1      45.165   8.309  11.672  0.00  0.00    +0.000 A 
ATOM      2  C   UNL     1      46.506   8.293  12.038  0.00  0.00    +0.000 A 
ATOM      3  C   UNL     1      47.140   7.067  12.216  0.00  0.00    +0.000 A 
ATOM      4  C   UNL     1      46.421   5.891  12.016  0.00  0.00    +0.000 A 
ATOM      5  C   UNL     1      45.080   5.960  11.640  0.00  0.00    +0.000 A 
ATOM      6  N   UNL     1      44.467   7.162  11.493  0.00  0.00    +0.000 NA
ENDROOT
BRANCH   1  11
ATOM      7  C   UNL     1      42.543  10.690  10.343  0.00  0.00    +0.000 A 
ATOM      8  C   UNL     1      43.056  11.876  10.832  0.00  0.00    +0.000 A 
ATOM      9  N   UNL     1      44.174  11.956  11.585  0.00  0.00    +0.000 NA
ATOM     10  C   UNL     1      44.813  10.789  11.846  0.00  0.00    +0.000 A 
ATOM     11  C   UNL     1      44.397   9.532  11.409  0.00  0.00    +0.000 A 
ATOM     12  C   UNL     1      43.221   9.511  10.640  0.00  0.00    +0.000 A 
ENDBRANCH   1  11
BRANCH   5  13
ATOM     13  C   UNL     1      44.266   4.714  11.330  0.00  0.00    +0.000 C 
ATOM     14  C   UNL     1      43.184   4.344  12.334  0.00  0.00    +0.000 C 
ATOM     15  C   UNL     1      44.395   3.479  12.208  0.00  0.00    +0.000 C 
BRANCH  13  16
ATOM     16  O   UNL     1      43.901   4.488   9.944  0.00  0.00    +0.000 OA
BRANCH  16  17
ATOM     17  C   UNL     1      44.792   3.781   9.171  0.00  0.00    +0.000 A 
ATOM     18  C   UNL     1      44.957   2.400   9.204  0.00  0.00    +0.000 A 
ATOM     19  N   UNL     1      45.839   1.736   8.409  0.00  0.00    +0.000 NA
ATOM     20  C   UNL     1      46.560   2.517   7.579  0.00  0.00    +0.000 A 
ATOM     21  C   UNL     1      46.414   3.892   7.551  0.00  0.00    +0.000 A 
ATOM     22  N   UNL     1      45.538   4.552   8.345  0.00  0.00    +0.000 NA
ENDBRANCH  16  17
ENDBRANCH  13  16
ENDBRANCH   5  13
TORSDOF 4
ENDMDL
MODEL 4
REMARK VINA RESULT:    -6.922      1.961      2.797
REMARK INTER + INTRA:          -8.868
REMARK INTER:                  -8.314
REMARK INTRA:                  -0.554
REMARK UNBOUND:                -0.328
REMARK  Name = 
REMARK  4 active torsions:
REMARK  status: ('A' for Active; 'I' for Inactive)
REMARK    1  A    between atoms: C_5  and  C_6
REMARK    2  A    between atoms: C_10  and  C_11
REMARK    3  A    between atoms: C_11  and  O_12
REMARK    4  A    between atoms: O_12  and  C_13
REMARK                            x       y       z     vdW  Elec       q    Type
REMARK                         _______ _______ _______ _____ _____    ______ ____
ROOT
ATOM      1  C   UNL     1      45.981   7.019  12.106  0.00  0.00    +0.000 A 
ATOM      2  C   UNL     1      45.029   7.986  11.804  0.00  0.00    +0.000 A 
ATOM      3  C   UNL     1      43.800   7.582  11.290  0.00  0.00    +0.000 A 
ATOM      4  C   UNL     1      43.552   6.225  11.100  0.00  0.00    +0.000 A 
ATOM      5  C   UNL     1      44.537   5.293  11.426  0.00  0.00    +0.000 A 
ATOM      6  N   UNL     1      45.740   5.701  11.905  0.00  0.00    +0.000 NA
ENDROOT
BRANCH   1  11
ATOM      7  C   UNL     1      49.291   8.687  12.859  0.00  0.00    +0.000 A 
ATOM      8  C   UNL     1      49.816   7.751  13.729  0.00  0.00    +0.000 A 
ATOM      9  N   UNL     1      49.162   6.633  14.111  0.00  0.00    +0.000 NA
ATOM     10  C   UNL     1      47.929   6.441  13.581  0.00  0.00    +0.000 A 
ATOM     11  C   UNL     1      47.294   7.310  12.694  0.00  0.00    +0.000 A 
ATOM     12  C   UNL     1      48.018   8.462  12.344  0.00  0.00    +0.000 A 
ENDBRANCH   1  11
BRANCH   5  13
ATOM     13  C   UNL     1      44.296   3.796  11.316  0.00  0.00    +0.000 C 
ATOM     14  C   UNL     1      43.614   3.130  12.501  0.00  0.00    +0.000 C 
ATOM     15  C   UNL     1      45.050   2.833  12.219  0.00  0.00    +0.000 C 
BRANCH  13  16
ATOM     16  O   UNL     1      43.886   3.284  10.022  0.00  0.00    +0.000 OA
BRANCH  16  17
ATOM     17  C   UNL     1      44.868   3.126   9.072  0.00  0.00    +0.000 A 
ATOM     18  C   UNL     1      45.364   4.140   8.259  0.00  0.00    +0.000 A 
ATOM     19  N   UNL     1      46.350   3.947   7.343  0.00  0.00    +0.000 NA
ATOM     20  C   UNL     1      46.820   2.684   7.267  0.00  0.00    +0.000 A 
ATOM     21  C   UNL     1      46.322   1.666   8.061  0.00  0.00    +0.000 A 
ATOM     22  N   UNL     1      45.338   1.860   8.970  0.00  0.00    +0.000 NA
ENDBRANCH  16  17
ENDBRANCH  13  16
ENDBRANCH   5  13
TORSDOF 4
ENDMDL
MODEL 5
REMARK VINA RESULT:    -6.464      3.490      7.004
REMARK INTER + INTRA:          -8.303
REMARK INTER:                  -8.020
REMARK INTRA:                  -0.283
REMARK UNBOUND:                -0.328
REMARK  Name = 
REMARK  4 active torsions:
REMARK  status: ('A' for Active; 'I' for Inactive)
REMARK    1  A    between atoms: C_5  and  C_6
REMARK    2  A    between atoms: C_10  and  C_11
REMARK    3  A    between atoms: C_11  and  O_12
REMARK    4  A    between atoms: O_12  and  C_13
REMARK                            x       y       z     vdW  Elec       q    Type
REMARK                         _______ _______ _______ _____ _____    ______ ____
ROOT
ATOM      1  C   UNL     1      44.546   4.483  10.378  0.00  0.00    +0.000 A 
ATOM      2  C   UNL     1      43.397   4.059  11.034  0.00  0.00    +0.000 A 
ATOM      3  C   UNL     1      42.797   4.912  11.958  0.00  0.00    +0.000 A 
ATOM      4  C   UNL     1      43.357   6.165  12.194  0.00  0.00    +0.000 A 
ATOM      5  C   UNL     1      44.507   6.546  11.503  0.00  0.00    +0.000 A 
ATOM      6  N   UNL     1      45.095   5.697  10.622  0.00  0.00    +0.000 NA
ENDROOT
BRANCH   1  11
ATOM      7  C   UNL     1      46.461   3.554   7.251  0.00  0.00    +0.000 A 
ATOM      8  C   UNL     1      46.433   2.178   7.376  0.00  0.00    +0.000 A 
ATOM      9  N   UNL     1      45.863   1.531   8.416  0.00  0.00    +0.000 NA
ATOM     10  C   UNL     1      45.283   2.305   9.366  0.00  0.00    +0.000 A 
ATOM     11  C   UNL     1      45.244   3.699   9.350  0.00  0.00    +0.000 A 
ATOM     12  C   UNL     1      45.864   4.316   8.251  0.00  0.00    +0.000 A 
ENDBRANCH   1  11
BRANCH   5  13
ATOM     13  C   UNL     1      45.118   7.929  11.659  0.00  0.00    +0.000 C 
ATOM     14  C   UNL     1      46.560   7.983  12.140  0.00  0.00    +0.000 C 
ATOM     15  C   UNL     1      45.467   8.459  13.041  0.00  0.00    +0.000 C 
BRANCH  13  16
ATOM     16  O   UNL     1      44.785   8.919  10.651  0.00  0.00    +0.000 OA
BRANCH  16  17
ATOM     17  C   UNL     1      43.778   9.805  10.956  0.00  0.00    +0.000 A 
ATOM     18  C   UNL     1      43.963  11.058  11.532  0.00  0.00    +0.000 A 
ATOM     19  N   UNL     1      42.941  11.913  11.801  0.00  0.00    +0.000 NA
ATOM     20  C   UNL     1      41.713  11.457  11.476  0.00  0.00    +0.000 A 
ATOM     21  C   UNL     1      41.519  10.207  10.917  0.00  0.00    +0.000 A 
ATOM     22  N   UNL     1      42.537   9.356  10.652  0.00  0.00    +0.000 NA
ENDBRANCH  16  17
ENDBRANCH  13  16
ENDBRANCH   5  13
TORSDOF 4
ENDMDL
MODEL 6
REMARK VINA RESULT:    -6.257      3.171      7.592
REMARK INTER + INTRA:          -8.048
REMARK INTER:                  -7.957
REMARK INTRA:                  -0.091
REMARK UNBOUND:                -0.328
REMARK  Name = 
REMARK  4 active torsions:
REMARK  status: ('A' for Active; 'I' for Inactive)
REMARK    1  A    between atoms: C_5  and  C_6
REMARK    2  A    between atoms: C_10  and  C_11
REMARK    3  A    between atoms: C_11  and  O_12
REMARK    4  A    between atoms: O_12  and  C_13
REMARK                            x       y       z     vdW  Elec       q    Type
REMARK                         _______ _______ _______ _____ _____    ______ ____
ROOT
ATOM      1  C   UNL     1      47.277   5.489  14.057  0.00  0.00    +0.000 A 
ATOM      2  C   UNL     1      47.888   6.722  14.250  0.00  0.00    +0.000 A 
ATOM      3  C   UNL     1      48.673   6.914  15.384  0.00  0.00    +0.000 A 
ATOM      4  C   UNL     1      48.831   5.868  16.289  0.00  0.00    +0.000 A 
ATOM      5  C   UNL     1      48.204   4.646  16.046  0.00  0.00    +0.000 A 
ATOM      6  N   UNL     1      47.424   4.479  14.948  0.00  0.00    +0.000 NA
ENDROOT
BRANCH   1  11
ATOM      7  C   UNL     1      45.432   5.744  10.765  0.00  0.00    +0.000 A 
ATOM      8  C   UNL     1      44.827   4.502  10.755  0.00  0.00    +0.000 A 
ATOM      9  N   UNL     1      44.998   3.577  11.724  0.00  0.00    +0.000 NA
ATOM     10  C   UNL     1      45.803   3.925  12.758  0.00  0.00    +0.000 A 
ATOM     11  C   UNL     1      46.466   5.145  12.882  0.00  0.00    +0.000 A 
ATOM     12  C   UNL     1      46.260   6.062  11.838  0.00  0.00    +0.000 A 
ENDBRANCH   1  11
BRANCH   5  13
ATOM     13  C   UNL     1      48.405   3.444  16.955  0.00  0.00    +0.000 C 
ATOM     14  C   UNL     1      47.170   2.929  17.679  0.00  0.00    +0.000 C 
ATOM     15  C   UNL     1      48.257   3.592  18.461  0.00  0.00    +0.000 C 
BRANCH  13  16
ATOM     16  O   UNL     1      49.305   2.405  16.491  0.00  0.00    +0.000 OA
BRANCH  16  17
ATOM     17  C   UNL     1      50.554   2.359  17.066  0.00  0.00    +0.000 A 
ATOM     18  C   UNL     1      51.274   3.467  17.500  0.00  0.00    +0.000 A 
ATOM     19  N   UNL     1      52.501   3.378  18.080  0.00  0.00    +0.000 NA
ATOM     20  C   UNL     1      52.986   2.125  18.202  0.00  0.00    +0.000 A 
ATOM     21  C   UNL     1      52.283   1.019  17.760  0.00  0.00    +0.000 A 
ATOM     22  N   UNL     1      51.063   1.110  17.180  0.00  0.00    +0.000 NA
ENDBRANCH  16  17
ENDBRANCH  13  16
ENDBRANCH   5  13
TORSDOF 4
ENDMDL
MODEL 7
REMARK VINA RESULT:    -6.226      2.960      5.043
REMARK INTER + INTRA:          -8.010
REMARK INTER:                  -7.438
REMARK INTRA:                  -0.572
REMARK UNBOUND:                -0.328
REMARK  Name = 
REMARK  4 active torsions:
REMARK  status: ('A' for Active; 'I' for Inactive)
REMARK    1  A    between atoms: C_5  and  C_6
REMARK    2  A    between atoms: C_10  and  C_11
REMARK    3  A    between atoms: C_11  and  O_12
REMARK    4  A    between atoms: O_12  and  C_13
REMARK                            x       y       z     vdW  Elec       q    Type
REMARK                         _______ _______ _______ _____ _____    ______ ____
ROOT
ATOM      1  C   UNL     1      47.086   8.768  12.253  0.00  0.00    +0.000 A 
ATOM      2  C   UNL     1      48.475   8.796  12.255  0.00  0.00    +0.000 A 
ATOM      3  C   UNL     1      49.171   7.622  12.534  0.00  0.00    +0.000 A 
ATOM      4  C   UNL     1      48.460   6.454  12.795  0.00  0.00    +0.000 A 
ATOM      5  C   UNL     1      47.066   6.476  12.774  0.00  0.00    +0.000 A 
ATOM      6  N   UNL     1      46.399   7.632  12.523  0.00  0.00    +0.000 NA
ENDROOT
BRANCH   1  11
ATOM      7  C   UNL     1      45.978  12.255  11.291  0.00  0.00    +0.000 A 
ATOM      8  C   UNL     1      44.614  12.105  11.456  0.00  0.00    +0.000 A 
ATOM      9  N   UNL     1      44.026  10.948  11.828  0.00  0.00    +0.000 NA
ATOM     10  C   UNL     1      44.851   9.897  12.059  0.00  0.00    +0.000 A 
ATOM     11  C   UNL     1      46.239   9.923  11.929  0.00  0.00    +0.000 A 
ATOM     12  C   UNL     1      46.792  11.151  11.527  0.00  0.00    +0.000 A 
ENDBRANCH   1  11
BRANCH   5  13
ATOM     13  C   UNL     1      46.238   5.217  12.972  0.00  0.00    +0.000 C 
ATOM     14  C   UNL     1      46.197   4.648  14.383  0.00  0.00    +0.000 C 
ATOM     15  C   UNL     1      46.918   3.900  13.310  0.00  0.00    +0.000 C 
BRANCH  13  16
ATOM     16  O   UNL     1      44.979   5.131  12.255  0.00  0.00    +0.000 OA
BRANCH  16  17
ATOM     17  C   UNL     1      45.023   4.619  10.979  0.00  0.00    +0.000 A 
ATOM     18  C   UNL     1      45.562   5.271   9.874  0.00  0.00    +0.000 A 
ATOM     19  N   UNL     1      45.601   4.722   8.631  0.00  0.00    +0.000 NA
ATOM     20  C   UNL     1      45.067   3.487   8.534  0.00  0.00    +0.000 A 
ATOM     21  C   UNL     1      44.516   2.838   9.623  0.00  0.00    +0.000 A 
ATOM     22  N   UNL     1      44.475   3.386  10.860  0.00  0.00    +0.000 NA
ENDBRANCH  16  17
ENDBRANCH  13  16
ENDBRANCH   5  13
TORSDOF 4
ENDMDL
MODEL 8
REMARK VINA RESULT:    -6.147      1.734      2.188
REMARK INTER + INTRA:          -7.912
REMARK INTER:                  -7.550
REMARK INTRA:                  -0.363
REMARK UNBOUND:                -0.328
REMARK  Name = 
REMARK  4 active torsions:
REMARK  status: ('A' for Active; 'I' for Inactive)
REMARK    1  A    between atoms: C_5  and  C_6
REMARK    2  A    between atoms: C_10  and  C_11
REMARK    3  A    between atoms: C_11  and  O_12
REMARK    4  A    between atoms: O_12  and  C_13
REMARK                            x       y       z     vdW  Elec       q    Type
REMARK                         _______ _______ _______ _____ _____    ______ ____
ROOT
ATOM      1  C   UNL     1      47.600   7.206  13.684  0.00  0.00    +0.000 A 
ATOM      2  C   UNL     1      47.361   8.484  13.191  0.00  0.00    +0.000 A 
ATOM      3  C   UNL     1      46.338   8.667  12.264  0.00  0.00    +0.000 A 
ATOM      4  C   UNL     1      45.579   7.571  11.860  0.00  0.00    +0.000 A 
ATOM      5  C   UNL     1      45.853   6.311  12.390  0.00  0.00    +0.000 A 
ATOM      6  N   UNL     1      46.867   6.142  13.276  0.00  0.00    +0.000 NA
ENDROOT
BRANCH   1  11
ATOM      7  C   UNL     1      50.841   7.165  15.633  0.00  0.00    +0.000 A 
ATOM      8  C   UNL     1      50.538   6.170  16.543  0.00  0.00    +0.000 A 
ATOM      9  N   UNL     1      49.348   5.533  16.589  0.00  0.00    +0.000 NA
ATOM     10  C   UNL     1      48.426   5.905  15.666  0.00  0.00    +0.000 A 
ATOM     11  C   UNL     1      48.614   6.890  14.697  0.00  0.00    +0.000 A 
ATOM     12  C   UNL     1      49.867   7.526  14.707  0.00  0.00    +0.000 A 
ENDBRANCH   1  11
BRANCH   5  13
ATOM     13  C   UNL     1      45.009   5.094  12.049  0.00  0.00    +0.000 C 
ATOM     14  C   UNL     1      44.264   4.440  13.204  0.00  0.00    +0.000 C 
ATOM     15  C   UNL     1      45.406   3.720  12.565  0.00  0.00    +0.000 C 
BRANCH  13  16
ATOM     16  O   UNL     1      44.268   5.128  10.802  0.00  0.00    +0.000 OA
BRANCH  16  17
ATOM     17  C   UNL     1      44.844   4.509   9.717  0.00  0.00    +0.000 A 
ATOM     18  C   UNL     1      45.823   5.071   8.904  0.00  0.00    +0.000 A 
ATOM     19  N   UNL     1      46.381   4.418   7.849  0.00  0.00    +0.000 NA
ATOM     20  C   UNL     1      45.909   3.173   7.634  0.00  0.00    +0.000 A 
ATOM     21  C   UNL     1      44.925   2.612   8.428  0.00  0.00    +0.000 A 
ATOM     22  N   UNL     1      44.369   3.265   9.475  0.00  0.00    +0.000 NA
ENDBRANCH  16  17
ENDBRANCH  13  16
ENDBRANCH   5  13
TORSDOF 4
ENDMDL
MODEL 9
REMARK VINA RESULT:    -6.029      3.618      6.140
REMARK INTER + INTRA:          -7.767
REMARK INTER:                  -7.269
REMARK INTRA:                  -0.498
REMARK UNBOUND:                -0.328
REMARK  Name = 
REMARK  4 active torsions:
REMARK  status: ('A' for Active; 'I' for Inactive)
REMARK    1  A    between atoms: C_5  and  C_6
REMARK    2  A    between atoms: C_10  and  C_11
REMARK    3  A    between atoms: C_11  and  O_12
REMARK    4  A    between atoms: O_12  and  C_13
REMARK                            x       y       z     vdW  Elec       q    Type
REMARK                         _______ _______ _______ _____ _____    ______ ____
ROOT
ATOM      1  C   UNL     1      49.964   4.699  17.737  0.00  0.00    +0.000 A 
ATOM      2  C   UNL     1      49.260   5.147  18.849  0.00  0.00    +0.000 A 
ATOM      3  C   UNL     1      48.485   6.298  18.735  0.00  0.00    +0.000 A 
ATOM      4  C   UNL     1      48.427   6.965  17.514  0.00  0.00    +0.000 A 
ATOM      5  C   UNL     1      49.145   6.470  16.425  0.00  0.00    +0.000 A 
ATOM      6  N   UNL     1      49.915   5.360  16.555  0.00  0.00    +0.000 NA
ENDROOT
BRANCH   1  11
ATOM      7  C   UNL     1      52.890   2.323  18.056  0.00  0.00    +0.000 A 
ATOM      8  C   UNL     1      52.307   1.185  17.531  0.00  0.00    +0.000 A 
ATOM      9  N   UNL     1      51.026   1.126  17.109  0.00  0.00    +0.000 NA
ATOM     10  C   UNL     1      50.302   2.268  17.206  0.00  0.00    +0.000 A 
ATOM     11  C   UNL     1      50.777   3.477  17.714  0.00  0.00    +0.000 A 
ATOM     12  C   UNL     1      52.113   3.475  18.150  0.00  0.00    +0.000 A 
ENDBRANCH   1  11
BRANCH   5  13
ATOM     13  C   UNL     1      49.059   7.107  15.048  0.00  0.00    +0.000 C 
ATOM     14  C   UNL     1      50.027   8.247  14.766  0.00  0.00    +0.000 C 
ATOM     15  C   UNL     1      48.568   8.538  14.897  0.00  0.00    +0.000 C 
BRANCH  13  16
ATOM     16  O   UNL     1      48.831   6.222  13.921  0.00  0.00    +0.000 OA
BRANCH  16  17
ATOM     17  C   UNL     1      47.533   5.827  13.690  0.00  0.00    +0.000 A 
ATOM     18  C   UNL     1      46.938   4.689  14.224  0.00  0.00    +0.000 A 
ATOM     19  N   UNL     1      45.645   4.343  13.985  0.00  0.00    +0.000 NA
ATOM     20  C   UNL     1      44.967   5.184  13.176  0.00  0.00    +0.000 A 
ATOM     21  C   UNL     1      45.557   6.310  12.628  0.00  0.00    +0.000 A 
ATOM     22  N   UNL     1      46.845   6.651  12.865  0.00  0.00    +0.000 NA
ENDBRANCH  16  17
ENDBRANCH  13  16
ENDBRANCH   5  13
TORSDOF 4
ENDMDL
