MODEL 1
REMARK VINA RESULT:    -8.952      0.000      0.000
REMARK INTER + INTRA:         -13.182
REMARK INTER:                 -12.092
REMARK INTRA:                  -1.089
REMARK UNBOUND:                -1.089
REMARK  Name = 
REMARK  6 active torsions:
REMARK  status: ('A' for Active; 'I' for Inactive)
REMARK    1  A    between atoms: C_2  and  C_4
REMARK    2  A    between atoms: C_7  and  N_8
REMARK    3  A    between atoms: N_8  and  C_9
REMARK    4  A    between atoms: C_9  and  C_10
REMARK    5  A    between atoms: C_10  and  C_13
REMARK    6  A    between atoms: C_17  and  C_18
REMARK                            x       y       z     vdW  Elec       q    Type
REMARK                         _______ _______ _______ _____ _____    ______ ____
ROOT
ATOM      1  C   UNL     1      43.381   5.400  12.058  0.00  0.00    +0.000 C 
ATOM      2  F   UNL     1      42.933   6.546  11.453  0.00  0.00    +0.000 F 
ATOM      3  F   UNL     1      42.493   5.174  13.075  0.00  0.00    +0.000 F 
ENDROOT
BRANCH   1   4
ATOM      4  C   UNL     1      44.796   5.549  12.571  0.00  0.00    +0.000 A 
ATOM      5  C   UNL     1      45.391   4.534  13.330  0.00  0.00    +0.000 A 
ATOM      6  C   UNL     1      46.700   4.675  13.781  0.00  0.00    +0.000 A 
ATOM      7  C   UNL     1      47.434   5.819  13.455  0.00  0.00    +0.000 A 
ATOM      8  C   UNL     1      46.888   6.841  12.658  0.00  0.00    +0.000 A 
ATOM      9  C   UNL     1      45.548   6.693  12.254  0.00  0.00    +0.000 A 
BRANCH   8  10
ATOM     10  C   UNL     1      47.708   7.974  12.166  0.00  0.00    +0.000 A 
ATOM     11  C   UNL     1      47.188   9.281  12.146  0.00  0.00    +0.000 A 
ATOM     12  C   UNL     1      47.985  10.382  11.821  0.00  0.00    +0.000 A 
ATOM     13  C   UNL     1      49.326  10.200  11.506  0.00  0.00    +0.000 A 
ATOM     14  C   UNL     1      49.861   8.917  11.484  0.00  0.00    +0.000 A 
ATOM     15  C   UNL     1      49.057   7.815  11.797  0.00  0.00    +0.000 A 
ENDBRANCH   8  10
ENDBRANCH   1   4
BRANCH   1  16
ATOM     16  C   UNL     1      43.262   4.249  11.023  0.00  0.00    +0.000 C 
BRANCH  16  17
ATOM     17  N   UNL     1      43.640   4.706   9.668  0.00  0.00    +0.000 N 
ATOM     18  H   UNL     1      43.917   5.687   9.664  0.00  0.00    +0.000 HD
BRANCH  17  22
ATOM     19  C   UNL     1      46.384   2.271   7.828  0.00  0.00    +0.000 A 
ATOM     20  C   UNL     1      46.321   3.621   7.517  0.00  0.00    +0.000 A 
ATOM     21  N   UNL     1      45.422   4.461   8.092  0.00  0.00    +0.000 NA
ATOM     22  C   UNL     1      44.567   3.917   8.985  0.00  0.00    +0.000 A 
ATOM     23  C   UNL     1      44.653   2.549   9.288  0.00  0.00    +0.000 A 
ATOM     24  N   UNL     1      45.542   1.690   8.724  0.00  0.00    +0.000 NA
BRANCH  19  26
ATOM     25  N   UNL     1      48.426   2.051   6.547  0.00  0.00    +0.000 N 
ATOM     26  C   UNL     1      47.399   1.400   7.177  0.00  0.00    +0.000 C 
ATOM     27  O   UNL     1      47.327   0.177   7.200  0.00  0.00    +0.000 OA
ATOM     28  H   UNL     1      49.146   1.518   6.081  0.00  0.00    +0.000 HD
ATOM     29  H   UNL     1      48.458   3.065   6.547  0.00  0.00    +0.000 HD
ENDBRANCH  19  26
ENDBRANCH  17  22
ENDBRANCH  16  17
ENDBRANCH   1  16
TORSDOF 6
ENDMDL
MODEL 2
REMARK VINA RESULT:    -8.804      1.719      3.540
REMARK INTER + INTRA:         -12.981
REMARK INTER:                 -11.968
REMARK INTRA:                  -1.014
REMARK UNBOUND:                -1.089
REMARK  Name = 
REMARK  6 active torsions:
REMARK  status: ('A' for Active; 'I' for Inactive)
REMARK    1  A    between atoms: C_2  and  C_4
REMARK    2  A    between atoms: C_7  and  N_8
REMARK    3  A    between atoms: N_8  and  C_9
REMARK    4  A    between atoms: C_9  and  C_10
REMARK    5  A    between atoms: C_10  and  C_13
REMARK    6  A    between atoms: C_17  and  C_18
REMARK                            x       y       z     vdW  Elec       q    Type
REMARK                         _______ _______ _______ _____ _____    ______ ____
ROOT
ATOM      1  C   UNL     1      43.835   5.567  12.167  0.00  0.00    +0.000 C 
ATOM      2  F   UNL     1      43.308   6.646  11.504  0.00  0.00    +0.000 F 
ATOM      3  F   UNL     1      43.050   5.424  13.279  0.00  0.00    +0.000 F 
ENDROOT
BRANCH   1   4
ATOM      4  C   UNL     1      45.287   5.782  12.530  0.00  0.00    +0.000 A 
ATOM      5  C   UNL     1      46.095   6.634  11.768  0.00  0.00    +0.000 A 
ATOM      6  C   UNL     1      47.425   6.837  12.123  0.00  0.00    +0.000 A 
ATOM      7  C   UNL     1      47.952   6.212  13.256  0.00  0.00    +0.000 A 
ATOM      8  C   UNL     1      47.162   5.383  14.073  0.00  0.00    +0.000 A 
ATOM      9  C   UNL     1      45.834   5.159  13.665  0.00  0.00    +0.000 A 
BRANCH   8  10
ATOM     10  C   UNL     1      47.660   4.852  15.365  0.00  0.00    +0.000 A 
ATOM     11  C   UNL     1      48.425   5.660  16.226  0.00  0.00    +0.000 A 
ATOM     12  C   UNL     1      48.785   5.231  17.506  0.00  0.00    +0.000 A 
ATOM     13  C   UNL     1      48.387   3.978  17.956  0.00  0.00    +0.000 A 
ATOM     14  C   UNL     1      47.659   3.143  17.116  0.00  0.00    +0.000 A 
ATOM     15  C   UNL     1      47.311   3.570  15.829  0.00  0.00    +0.000 A 
ENDBRANCH   8  10
ENDBRANCH   1   4
BRANCH   1  16
ATOM     16  C   UNL     1      43.648   4.324  11.257  0.00  0.00    +0.000 C 
BRANCH  16  17
ATOM     17  N   UNL     1      43.719   4.691   9.827  0.00  0.00    +0.000 N 
ATOM     18  H   UNL     1      43.814   5.698   9.699  0.00  0.00    +0.000 HD
BRANCH  17  22
ATOM     19  C   UNL     1      46.473   2.507   7.708  0.00  0.00    +0.000 A 
ATOM     20  C   UNL     1      46.418   3.887   7.577  0.00  0.00    +0.000 A 
ATOM     21  N   UNL     1      45.517   4.648   8.250  0.00  0.00    +0.000 NA
ATOM     22  C   UNL     1      44.650   3.995   9.054  0.00  0.00    +0.000 A 
ATOM     23  C   UNL     1      44.728   2.598   9.175  0.00  0.00    +0.000 A 
ATOM     24  N   UNL     1      45.620   1.817   8.511  0.00  0.00    +0.000 NA
BRANCH  19  26
ATOM     25  N   UNL     1      48.526   2.450   6.426  0.00  0.00    +0.000 N 
ATOM     26  C   UNL     1      47.492   1.725   6.958  0.00  0.00    +0.000 C 
ATOM     27  O   UNL     1      47.417   0.510   6.821  0.00  0.00    +0.000 OA
ATOM     28  H   UNL     1      49.248   1.979   5.901  0.00  0.00    +0.000 HD
ATOM     29  H   UNL     1      48.559   3.455   6.558  0.00  0.00    +0.000 HD
ENDBRANCH  19  26
ENDBRANCH  17  22
ENDBRANCH  16  17
ENDBRANCH   1  16
TORSDOF 6
ENDMDL
MODEL 3
REMARK VINA RESULT:    -8.605      3.835      6.869
REMARK INTER + INTRA:         -12.712
REMARK INTER:                 -11.600
REMARK INTRA:                  -1.113
REMARK UNBOUND:                -1.089
REMARK  Name = 
REMARK  6 active torsions:
REMARK  status: ('A' for Active; 'I' for Inactive)
REMARK    1  A    between atoms: C_2  and  C_4
REMARK    2  A    between atoms: C_7  and  N_8
REMARK    3  A    between atoms: N_8  and  C_9
REMARK    4  A    between atoms: C_9  and  C_10
REMARK    5  A    between atoms: C_10  and  C_13
REMARK    6  A    between atoms: C_17  and  C_18
REMARK                            x       y       z     vdW  Elec       q    Type
REMARK                         _______ _______ _______ _____ _____    ______ ____
ROOT
ATOM      1  C   UNL     1      44.663   6.524  11.380  0.00  0.00    +0.000 C 
ATOM      2  F   UNL     1      43.474   7.207  11.327  0.00  0.00    +0.000 F 
ATOM      3  F   UNL     1      45.482   7.183  10.504  0.00  0.00    +0.000 F 
ENDROOT
BRANCH   1   4
ATOM      4  C   UNL     1      44.495   5.069  11.004  0.00  0.00    +0.000 A 
ATOM      5  C   UNL     1      43.563   4.263  11.669  0.00  0.00    +0.000 A 
ATOM      6  C   UNL     1      43.404   2.930  11.302  0.00  0.00    +0.000 A 
ATOM      7  C   UNL     1      44.157   2.398  10.251  0.00  0.00    +0.000 A 
ATOM      8  C   UNL     1      45.072   3.185   9.529  0.00  0.00    +0.000 A 
ATOM      9  C   UNL     1      45.245   4.517   9.952  0.00  0.00    +0.000 A 
BRANCH   8  10
ATOM     10  C   UNL     1      45.748   2.682   8.310  0.00  0.00    +0.000 A 
ATOM     11  C   UNL     1      45.993   3.537   7.219  0.00  0.00    +0.000 A 
ATOM     12  C   UNL     1      46.750   3.124   6.120  0.00  0.00    +0.000 A 
ATOM     13  C   UNL     1      47.283   1.841   6.086  0.00  0.00    +0.000 A 
ATOM     14  C   UNL     1      47.031   0.962   7.134  0.00  0.00    +0.000 A 
ATOM     15  C   UNL     1      46.260   1.373   8.227  0.00  0.00    +0.000 A 
ENDBRANCH   8  10
ENDBRANCH   1   4
BRANCH   1  16
ATOM     16  C   UNL     1      45.230   6.685  12.816  0.00  0.00    +0.000 C 
BRANCH  16  17
ATOM     17  N   UNL     1      46.687   6.435  12.848  0.00  0.00    +0.000 N 
ATOM     18  H   UNL     1      47.220   7.303  12.841  0.00  0.00    +0.000 HD
BRANCH  17  22
ATOM     19  C   UNL     1      47.875   3.768  15.733  0.00  0.00    +0.000 A 
ATOM     20  C   UNL     1      48.086   5.128  15.903  0.00  0.00    +0.000 A 
ATOM     21  N   UNL     1      47.720   6.045  14.970  0.00  0.00    +0.000 NA
ATOM     22  C   UNL     1      47.145   5.569  13.844  0.00  0.00    +0.000 A 
ATOM     23  C   UNL     1      46.936   4.189  13.696  0.00  0.00    +0.000 A 
ATOM     24  N   UNL     1      47.296   3.254  14.615  0.00  0.00    +0.000 NA
BRANCH  19  26
ATOM     25  N   UNL     1      47.439   2.718  17.870  0.00  0.00    +0.000 N 
ATOM     26  C   UNL     1      48.283   2.809  16.795  0.00  0.00    +0.000 C 
ATOM     27  O   UNL     1      49.307   2.142  16.719  0.00  0.00    +0.000 OA
ATOM     28  H   UNL     1      47.660   2.090  18.628  0.00  0.00    +0.000 HD
ATOM     29  H   UNL     1      46.598   3.284  17.902  0.00  0.00    +0.000 HD
ENDBRANCH  19  26
ENDBRANCH  17  22
ENDBRANCH  16  17
ENDBRANCH   1  16
TORSDOF 6
ENDMDL
MODEL 4
REMARK VINA RESULT:    -7.850      2.111      2.866
REMARK INTER + INTRA:         -11.693
REMARK INTER:                 -10.670
REMARK INTRA:                  -1.023
REMARK UNBOUND:                -1.089
REMARK  Name = 
REMARK  6 active torsions:
REMARK  status: ('A' for Active; 'I' for Inactive)
REMARK    1  A    between atoms: C_2  and  C_4
REMARK    2  A    between atoms: C_7  and  N_8
REMARK    3  A    between atoms: N_8  and  C_9
REMARK    4  A    between atoms: C_9  and  C_10
REMARK    5  A    between atoms: C_10  and  C_13
REMARK    6  A    between atoms: C_17  and  C_18
REMARK                            x       y       z     vdW  Elec       q    Type
REMARK                         _______ _______ _______ _____ _____    ______ ____
ROOT
ATOM      1  C   UNL     1      43.854   4.397  12.427  0.00  0.00    +0.000 C 
ATOM      2  F   UNL     1      42.666   4.698  11.810  0.00  0.00    +0.000 F 
ATOM      3  F   UNL     1      43.507   4.075  13.711  0.00  0.00    +0.000 F 
ENDROOT
BRANCH   1   4
ATOM      4  C   UNL     1      44.823   5.558  12.382  0.00  0.00    +0.000 A 
ATOM      5  C   UNL     1      46.190   5.356  12.601  0.00  0.00    +0.000 A 
ATOM      6  C   UNL     1      47.074   6.429  12.540  0.00  0.00    +0.000 A 
ATOM      7  C   UNL     1      46.603   7.709  12.234  0.00  0.00    +0.000 A 
ATOM      8  C   UNL     1      45.243   7.947  11.964  0.00  0.00    +0.000 A 
ATOM      9  C   UNL     1      44.365   6.852  12.078  0.00  0.00    +0.000 A 
BRANCH   8  10
ATOM     10  C   UNL     1      44.759   9.259  11.474  0.00  0.00    +0.000 A 
ATOM     11  C   UNL     1      43.553   9.357  10.755  0.00  0.00    +0.000 A 
ATOM     12  C   UNL     1      43.006  10.595  10.406  0.00  0.00    +0.000 A 
ATOM     13  C   UNL     1      43.657  11.769  10.768  0.00  0.00    +0.000 A 
ATOM     14  C   UNL     1      44.868  11.704  11.449  0.00  0.00    +0.000 A 
ATOM     15  C   UNL     1      45.420  10.463  11.785  0.00  0.00    +0.000 A 
ENDBRANCH   8  10
ENDBRANCH   1   4
BRANCH   1  16
ATOM     16  C   UNL     1      44.435   3.137  11.732  0.00  0.00    +0.000 C 
BRANCH  16  17
ATOM     17  N   UNL     1      43.886   2.976  10.368  0.00  0.00    +0.000 N 
ATOM     18  H   UNL     1      43.183   3.683  10.158  0.00  0.00    +0.000 HD
BRANCH  17  22
ATOM     19  C   UNL     1      46.516   2.796   7.222  0.00  0.00    +0.000 A 
ATOM     20  C   UNL     1      46.272   1.674   8.001  0.00  0.00    +0.000 A 
ATOM     21  N   UNL     1      45.419   1.691   9.058  0.00  0.00    +0.000 NA
ATOM     22  C   UNL     1      44.818   2.869   9.334  0.00  0.00    +0.000 A 
ATOM     23  C   UNL     1      45.076   3.989   8.529  0.00  0.00    +0.000 A 
ATOM     24  N   UNL     1      45.926   3.996   7.469  0.00  0.00    +0.000 NA
BRANCH  19  26
ATOM     25  N   UNL     1      48.770   2.531   6.380  0.00  0.00    +0.000 N 
ATOM     26  C   UNL     1      47.449   2.716   6.066  0.00  0.00    +0.000 C 
ATOM     27  O   UNL     1      47.067   2.810   4.906  0.00  0.00    +0.000 OA
ATOM     28  H   UNL     1      49.456   2.473   5.641  0.00  0.00    +0.000 HD
ATOM     29  H   UNL     1      49.054   2.456   7.350  0.00  0.00    +0.000 HD
ENDBRANCH  19  26
ENDBRANCH  17  22
ENDBRANCH  16  17
ENDBRANCH   1  16
TORSDOF 6
ENDMDL
MODEL 5
REMARK VINA RESULT:    -7.799      4.513      7.461
REMARK INTER + INTRA:         -11.624
REMARK INTER:                 -10.731
REMARK INTRA:                  -0.893
REMARK UNBOUND:                -1.089
REMARK  Name = 
REMARK  6 active torsions:
REMARK  status: ('A' for Active; 'I' for Inactive)
REMARK    1  A    between atoms: C_2  and  C_4
REMARK    2  A    between atoms: C_7  and  N_8
REMARK    3  A    between atoms: N_8  and  C_9
REMARK    4  A    between atoms: C_9  and  C_10
REMARK    5  A    between atoms: C_10  and  C_13
REMARK    6  A    between atoms: C_17  and  C_18
REMARK                            x       y       z     vdW  Elec       q    Type
REMARK                         _______ _______ _______ _____ _____    ______ ____
ROOT
ATOM      1  C   UNL     1      46.124   7.093  12.294  0.00  0.00    +0.000 C 
ATOM      2  F   UNL     1      45.424   7.937  13.118  0.00  0.00    +0.000 F 
ATOM      3  F   UNL     1      46.797   7.920  11.438  0.00  0.00    +0.000 F 
ENDROOT
BRANCH   1   4
ATOM      4  C   UNL     1      45.210   6.142  11.554  0.00  0.00    +0.000 A 
ATOM      5  C   UNL     1      43.822   6.208  11.723  0.00  0.00    +0.000 A 
ATOM      6  C   UNL     1      42.991   5.339  11.023  0.00  0.00    +0.000 A 
ATOM      7  C   UNL     1      43.537   4.415  10.128  0.00  0.00    +0.000 A 
ATOM      8  C   UNL     1      44.923   4.345   9.897  0.00  0.00    +0.000 A 
ATOM      9  C   UNL     1      45.743   5.205  10.652  0.00  0.00    +0.000 A 
BRANCH   8  10
ATOM     10  C   UNL     1      45.498   3.490   8.831  0.00  0.00    +0.000 A 
ATOM     11  C   UNL     1      46.112   4.065   7.703  0.00  0.00    +0.000 A 
ATOM     12  C   UNL     1      46.783   3.285   6.757  0.00  0.00    +0.000 A 
ATOM     13  C   UNL     1      46.855   1.906   6.918  0.00  0.00    +0.000 A 
ATOM     14  C   UNL     1      46.229   1.306   8.005  0.00  0.00    +0.000 A 
ATOM     15  C   UNL     1      45.546   2.088   8.943  0.00  0.00    +0.000 A 
ENDBRANCH   8  10
ENDBRANCH   1   4
BRANCH   1  16
ATOM     16  C   UNL     1      47.154   6.333  13.172  0.00  0.00    +0.000 C 
BRANCH  16  17
ATOM     17  N   UNL     1      46.479   5.488  14.181  0.00  0.00    +0.000 N 
ATOM     18  H   UNL     1      45.900   4.770  13.747  0.00  0.00    +0.000 HD
BRANCH  17  22
ATOM     19  C   UNL     1      49.023   4.008  17.041  0.00  0.00    +0.000 A 
ATOM     20  C   UNL     1      48.013   3.214  16.519  0.00  0.00    +0.000 A 
ATOM     21  N   UNL     1      47.142   3.665  15.580  0.00  0.00    +0.000 NA
ATOM     22  C   UNL     1      47.291   4.946  15.179  0.00  0.00    +0.000 A 
ATOM     23  C   UNL     1      48.325   5.730  15.717  0.00  0.00    +0.000 A 
ATOM     24  N   UNL     1      49.206   5.300  16.657  0.00  0.00    +0.000 NA
BRANCH  19  26
ATOM     25  N   UNL     1      49.793   3.923  19.334  0.00  0.00    +0.000 N 
ATOM     26  C   UNL     1      49.959   3.456  18.058  0.00  0.00    +0.000 C 
ATOM     27  O   UNL     1      50.826   2.637  17.776  0.00  0.00    +0.000 OA
ATOM     28  H   UNL     1      50.400   3.592  20.071  0.00  0.00    +0.000 HD
ATOM     29  H   UNL     1      49.066   4.601  19.535  0.00  0.00    +0.000 HD
ENDBRANCH  19  26
ENDBRANCH  17  22
ENDBRANCH  16  17
ENDBRANCH   1  16
TORSDOF 6
ENDMDL
MODEL 6
REMARK VINA RESULT:    -7.428      3.854      7.088
REMARK INTER + INTRA:         -11.123
REMARK INTER:                 -10.152
REMARK INTRA:                  -0.972
REMARK UNBOUND:                -1.089
REMARK  Name = 
REMARK  6 active torsions:
REMARK  status: ('A' for Active; 'I' for Inactive)
REMARK    1  A    between atoms: C_2  and  C_4
REMARK    2  A    between atoms: C_7  and  N_8
REMARK    3  A    between atoms: N_8  and  C_9
REMARK    4  A    between atoms: C_9  and  C_10
REMARK    5  A    between atoms: C_10  and  C_13
REMARK    6  A    between atoms: C_17  and  C_18
REMARK                            x       y       z     vdW  Elec       q    Type
REMARK                         _______ _______ _______ _____ _____    ______ ____
ROOT
ATOM      1  C   UNL     1      44.582   6.456  11.458  0.00  0.00    +0.000 C 
ATOM      2  F   UNL     1      43.389   7.132  11.409  0.00  0.00    +0.000 F 
ATOM      3  F   UNL     1      45.401   7.132  10.596  0.00  0.00    +0.000 F 
ENDROOT
BRANCH   1   4
ATOM      4  C   UNL     1      44.424   5.005  11.062  0.00  0.00    +0.000 A 
ATOM      5  C   UNL     1      43.497   4.184  11.714  0.00  0.00    +0.000 A 
ATOM      6  C   UNL     1      43.348   2.855  11.328  0.00  0.00    +0.000 A 
ATOM      7  C   UNL     1      44.106   2.343  10.271  0.00  0.00    +0.000 A 
ATOM      8  C   UNL     1      45.017   3.146   9.562  0.00  0.00    +0.000 A 
ATOM      9  C   UNL     1      45.180   4.473  10.003  0.00  0.00    +0.000 A 
BRANCH   8  10
ATOM     10  C   UNL     1      45.699   2.665   8.338  0.00  0.00    +0.000 A 
ATOM     11  C   UNL     1      45.949   3.539   7.264  0.00  0.00    +0.000 A 
ATOM     12  C   UNL     1      46.712   3.146   6.161  0.00  0.00    +0.000 A 
ATOM     13  C   UNL     1      47.244   1.863   6.106  0.00  0.00    +0.000 A 
ATOM     14  C   UNL     1      46.986   0.965   7.136  0.00  0.00    +0.000 A 
ATOM     15  C   UNL     1      46.210   1.357   8.233  0.00  0.00    +0.000 A 
ENDBRANCH   8  10
ENDBRANCH   1   4
BRANCH   1  16
ATOM     16  C   UNL     1      45.141   6.601  12.899  0.00  0.00    +0.000 C 
BRANCH  16  17
ATOM     17  N   UNL     1      46.331   5.746  13.100  0.00  0.00    +0.000 N 
ATOM     18  H   UNL     1      46.456   5.085  12.335  0.00  0.00    +0.000 HD
BRANCH  17  22
ATOM     19  C   UNL     1      49.896   7.667  13.771  0.00  0.00    +0.000 A 
ATOM     20  C   UNL     1      49.325   6.878  14.759  0.00  0.00    +0.000 A 
ATOM     21  N   UNL     1      48.142   6.234  14.585  0.00  0.00    +0.000 NA
ATOM     22  C   UNL     1      47.526   6.407  13.395  0.00  0.00    +0.000 A 
ATOM     23  C   UNL     1      48.125   7.204  12.408  0.00  0.00    +0.000 A 
ATOM     24  N   UNL     1      49.306   7.859  12.560  0.00  0.00    +0.000 NA
BRANCH  19  26
ATOM     25  N   UNL     1      51.428   9.476  13.284  0.00  0.00    +0.000 N 
ATOM     26  C   UNL     1      51.202   8.338  14.011  0.00  0.00    +0.000 C 
ATOM     27  O   UNL     1      52.027   7.903  14.805  0.00  0.00    +0.000 OA
ATOM     28  H   UNL     1      52.297   9.977  13.396  0.00  0.00    +0.000 HD
ATOM     29  H   UNL     1      50.724   9.810  12.635  0.00  0.00    +0.000 HD
ENDBRANCH  19  26
ENDBRANCH  17  22
ENDBRANCH  16  17
ENDBRANCH   1  16
TORSDOF 6
ENDMDL
MODEL 7
REMARK VINA RESULT:    -7.386      1.940      2.301
REMARK INTER + INTRA:         -11.066
REMARK INTER:                 -10.378
REMARK INTRA:                  -0.687
REMARK UNBOUND:                -1.089
REMARK  Name = 
REMARK  6 active torsions:
REMARK  status: ('A' for Active; 'I' for Inactive)
REMARK    1  A    between atoms: C_2  and  C_4
REMARK    2  A    between atoms: C_7  and  N_8
REMARK    3  A    between atoms: N_8  and  C_9
REMARK    4  A    between atoms: C_9  and  C_10
REMARK    5  A    between atoms: C_10  and  C_13
REMARK    6  A    between atoms: C_17  and  C_18
REMARK                            x       y       z     vdW  Elec       q    Type
REMARK                         _______ _______ _______ _____ _____    ______ ____
ROOT
ATOM      1  C   UNL     1      45.409   6.078  11.526  0.00  0.00    +0.000 C 
ATOM      2  F   UNL     1      46.198   6.179  10.408  0.00  0.00    +0.000 F 
ATOM      3  F   UNL     1      44.720   7.259  11.573  0.00  0.00    +0.000 F 
ENDROOT
BRANCH   1   4
ATOM      4  C   UNL     1      46.230   5.855  12.777  0.00  0.00    +0.000 A 
ATOM      5  C   UNL     1      46.137   4.654  13.487  0.00  0.00    +0.000 A 
ATOM      6  C   UNL     1      46.910   4.454  14.627  0.00  0.00    +0.000 A 
ATOM      7  C   UNL     1      47.801   5.443  15.052  0.00  0.00    +0.000 A 
ATOM      8  C   UNL     1      47.957   6.647  14.341  0.00  0.00    +0.000 A 
ATOM      9  C   UNL     1      47.129   6.840  13.219  0.00  0.00    +0.000 A 
BRANCH   8  10
ATOM     10  C   UNL     1      49.015   7.627  14.682  0.00  0.00    +0.000 A 
ATOM     11  C   UNL     1      50.190   7.713  13.911  0.00  0.00    +0.000 A 
ATOM     12  C   UNL     1      51.136   8.719  14.126  0.00  0.00    +0.000 A 
ATOM     13  C   UNL     1      50.928   9.666  15.121  0.00  0.00    +0.000 A 
ATOM     14  C   UNL     1      49.793   9.588  15.921  0.00  0.00    +0.000 A 
ATOM     15  C   UNL     1      48.855   8.572  15.713  0.00  0.00    +0.000 A 
ENDBRANCH   8  10
ENDBRANCH   1   4
BRANCH   1  16
ATOM     16  C   UNL     1      44.405   4.919  11.284  0.00  0.00    +0.000 C 
BRANCH  16  17
ATOM     17  N   UNL     1      44.037   4.819   9.855  0.00  0.00    +0.000 N 
ATOM     18  H   UNL     1      43.929   5.737   9.427  0.00  0.00    +0.000 HD
BRANCH  17  22
ATOM     19  C   UNL     1      46.431   2.267   7.709  0.00  0.00    +0.000 A 
ATOM     20  C   UNL     1      46.296   3.593   7.327  0.00  0.00    +0.000 A 
ATOM     21  N   UNL     1      45.507   4.470   8.000  0.00  0.00    +0.000 NA
ATOM     22  C   UNL     1      44.834   3.986   9.067  0.00  0.00    +0.000 A 
ATOM     23  C   UNL     1      44.991   2.641   9.439  0.00  0.00    +0.000 A 
ATOM     24  N   UNL     1      45.773   1.747   8.780  0.00  0.00    +0.000 NA
BRANCH  19  26
ATOM     25  N   UNL     1      48.476   1.916   6.463  0.00  0.00    +0.000 N 
ATOM     26  C   UNL     1      47.323   1.355   6.944  0.00  0.00    +0.000 C 
ATOM     27  O   UNL     1      47.048   0.176   6.752  0.00  0.00    +0.000 OA
ATOM     28  H   UNL     1      49.122   1.352   5.930  0.00  0.00    +0.000 HD
ATOM     29  H   UNL     1      48.675   2.894   6.639  0.00  0.00    +0.000 HD
ENDBRANCH  19  26
ENDBRANCH  17  22
ENDBRANCH  16  17
ENDBRANCH   1  16
TORSDOF 6
ENDMDL
MODEL 8
REMARK VINA RESULT:    -7.267      4.809      7.561
REMARK INTER + INTRA:         -10.905
REMARK INTER:                  -9.747
REMARK INTRA:                  -1.159
REMARK UNBOUND:                -1.089
REMARK  Name = 
REMARK  6 active torsions:
REMARK  status: ('A' for Active; 'I' for Inactive)
REMARK    1  A    between atoms: C_2  and  C_4
REMARK    2  A    between atoms: C_7  and  N_8
REMARK    3  A    between atoms: N_8  and  C_9
REMARK    4  A    between atoms: C_9  and  C_10
REMARK    5  A    between atoms: C_10  and  C_13
REMARK    6  A    between atoms: C_17  and  C_18
REMARK                            x       y       z     vdW  Elec       q    Type
REMARK                         _______ _______ _______ _____ _____    ______ ____
ROOT
ATOM      1  C   UNL     1      48.743   8.477  12.367  0.00  0.00    +0.000 C 
ATOM      2  F   UNL     1      48.833   9.589  13.166  0.00  0.00    +0.000 F 
ATOM      3  F   UNL     1      49.412   8.815  11.223  0.00  0.00    +0.000 F 
ENDROOT
BRANCH   1   4
ATOM      4  C   UNL     1      47.305   8.099  12.086  0.00  0.00    +0.000 A 
ATOM      5  C   UNL     1      46.270   9.014  12.307  0.00  0.00    +0.000 A 
ATOM      6  C   UNL     1      44.953   8.661  12.028  0.00  0.00    +0.000 A 
ATOM      7  C   UNL     1      44.663   7.399  11.502  0.00  0.00    +0.000 A 
ATOM      8  C   UNL     1      45.678   6.466  11.224  0.00  0.00    +0.000 A 
ATOM      9  C   UNL     1      46.995   6.834  11.559  0.00  0.00    +0.000 A 
BRANCH   8  10
ATOM     10  C   UNL     1      45.402   5.196  10.512  0.00  0.00    +0.000 A 
ATOM     11  C   UNL     1      44.787   4.119  11.176  0.00  0.00    +0.000 A 
ATOM     12  C   UNL     1      44.391   2.966  10.493  0.00  0.00    +0.000 A 
ATOM     13  C   UNL     1      44.601   2.864   9.123  0.00  0.00    +0.000 A 
ATOM     14  C   UNL     1      45.238   3.897   8.444  0.00  0.00    +0.000 A 
ATOM     15  C   UNL     1      45.647   5.044   9.133  0.00  0.00    +0.000 A 
ENDBRANCH   8  10
ENDBRANCH   1   4
BRANCH   1  16
ATOM     16  C   UNL     1      49.510   7.330  13.077  0.00  0.00    +0.000 C 
BRANCH  16  17
ATOM     17  N   UNL     1      49.547   7.535  14.541  0.00  0.00    +0.000 N 
ATOM     18  H   UNL     1      49.179   8.448  14.804  0.00  0.00    +0.000 HD
BRANCH  17  22
ATOM     19  C   UNL     1      48.087   4.534  16.930  0.00  0.00    +0.000 A 
ATOM     20  C   UNL     1      47.613   4.697  15.637  0.00  0.00    +0.000 A 
ATOM     21  N   UNL     1      48.059   5.683  14.816  0.00  0.00    +0.000 NA
ATOM     22  C   UNL     1      48.988   6.521  15.323  0.00  0.00    +0.000 A 
ATOM     23  C   UNL     1      49.457   6.333  16.633  0.00  0.00    +0.000 A 
ATOM     24  N   UNL     1      49.025   5.357  17.472  0.00  0.00    +0.000 NA
BRANCH  19  26
ATOM     25  N   UNL     1      48.315   3.141  18.897  0.00  0.00    +0.000 N 
ATOM     26  C   UNL     1      47.573   3.427  17.782  0.00  0.00    +0.000 C 
ATOM     27  O   UNL     1      46.554   2.806  17.506  0.00  0.00    +0.000 OA
ATOM     28  H   UNL     1      48.024   2.398  19.514  0.00  0.00    +0.000 HD
ATOM     29  H   UNL     1      49.154   3.675  19.097  0.00  0.00    +0.000 HD
ENDBRANCH  19  26
ENDBRANCH  17  22
ENDBRANCH  16  17
ENDBRANCH   1  16
TORSDOF 6
ENDMDL
MODEL 9
REMARK VINA RESULT:    -6.980      5.631      7.251
REMARK INTER + INTRA:         -10.517
REMARK INTER:                  -9.720
REMARK INTRA:                  -0.797
REMARK UNBOUND:                -1.089
REMARK  Name = 
REMARK  6 active torsions:
REMARK  status: ('A' for Active; 'I' for Inactive)
REMARK    1  A    between atoms: C_2  and  C_4
REMARK    2  A    between atoms: C_7  and  N_8
REMARK    3  A    between atoms: N_8  and  C_9
REMARK    4  A    between atoms: C_9  and  C_10
REMARK    5  A    between atoms: C_10  and  C_13
REMARK    6  A    between atoms: C_17  and  C_18
REMARK                            x       y       z     vdW  Elec       q    Type
REMARK                         _______ _______ _______ _____ _____    ______ ____
ROOT
ATOM      1  C   UNL     1      47.948   3.281  16.975  0.00  0.00    +0.000 C 
ATOM      2  F   UNL     1      46.975   2.494  17.536  0.00  0.00    +0.000 F 
ATOM      3  F   UNL     1      48.812   2.400  16.384  0.00  0.00    +0.000 F 
ENDROOT
BRANCH   1   4
ATOM      4  C   UNL     1      48.643   4.141  18.008  0.00  0.00    +0.000 A 
ATOM      5  C   UNL     1      49.992   3.935  18.317  0.00  0.00    +0.000 A 
ATOM      6  C   UNL     1      50.625   4.743  19.256  0.00  0.00    +0.000 A 
ATOM      7  C   UNL     1      49.922   5.781  19.875  0.00  0.00    +0.000 A 
ATOM      8  C   UNL     1      48.578   6.049  19.560  0.00  0.00    +0.000 A 
ATOM      9  C   UNL     1      47.950   5.187  18.641  0.00  0.00    +0.000 A 
BRANCH   8  10
ATOM     10  C   UNL     1      47.874   7.245  20.081  0.00  0.00    +0.000 A 
ATOM     11  C   UNL     1      47.626   7.389  21.459  0.00  0.00    +0.000 A 
ATOM     12  C   UNL     1      47.093   8.568  21.988  0.00  0.00    +0.000 A 
ATOM     13  C   UNL     1      46.793   9.633  21.148  0.00  0.00    +0.000 A 
ATOM     14  C   UNL     1      46.995   9.508  19.777  0.00  0.00    +0.000 A 
ATOM     15  C   UNL     1      47.516   8.323  19.248  0.00  0.00    +0.000 A 
ENDBRANCH   8  10
ENDBRANCH   1   4
BRANCH   1  16
ATOM     16  C   UNL     1      47.274   4.141  15.872  0.00  0.00    +0.000 C 
BRANCH  16  17
ATOM     17  N   UNL     1      47.300   3.450  14.564  0.00  0.00    +0.000 N 
ATOM     18  H   UNL     1      47.307   2.437  14.671  0.00  0.00    +0.000 HD
BRANCH  17  22
ATOM     19  C   UNL     1      44.416   4.773  11.960  0.00  0.00    +0.000 A 
ATOM     20  C   UNL     1      44.784   3.436  11.983  0.00  0.00    +0.000 A 
ATOM     21  N   UNL     1      45.740   2.956  12.820  0.00  0.00    +0.000 NA
ATOM     22  C   UNL     1      46.341   3.853  13.632  0.00  0.00    +0.000 A 
ATOM     23  C   UNL     1      45.949   5.200  13.596  0.00  0.00    +0.000 A 
ATOM     24  N   UNL     1      44.996   5.702  12.768  0.00  0.00    +0.000 NA
BRANCH  19  26
ATOM     25  N   UNL     1      42.376   6.023  11.595  0.00  0.00    +0.000 N 
ATOM     26  C   UNL     1      43.350   5.241  11.034  0.00  0.00    +0.000 C 
ATOM     27  O   UNL     1      43.339   4.948   9.845  0.00  0.00    +0.000 OA
ATOM     28  H   UNL     1      41.621   6.370  11.022  0.00  0.00    +0.000 HD
ATOM     29  H   UNL     1      42.414   6.249  12.583  0.00  0.00    +0.000 HD
ENDBRANCH  19  26
ENDBRANCH  17  22
ENDBRANCH  16  17
ENDBRANCH   1  16
TORSDOF 6
ENDMDL
