MODEL 1
REMARK VINA RESULT:    -8.610      0.000      0.000
REMARK INTER + INTRA:         -12.968
REMARK INTER:                 -12.133
REMARK INTRA:                  -0.836
REMARK UNBOUND:                -0.836
REMARK  Name = 
REMARK  10 active torsions:
REMARK  status: ('A' for Active; 'I' for Inactive)
REMARK    1  A    between atoms: C_1  and  O_2
REMARK    2  A    between atoms: O_2  and  C_3
REMARK    3  A    between atoms: C_5  and  C_6
REMARK    4  A    between atoms: C_6  and  C_7
REMARK    5  A    between atoms: C_7  and  N_8
REMARK    6  A    between atoms: C_12  and  C_13
REMARK    7  A    between atoms: C_19  and  O_20
REMARK    8  A    between atoms: O_20  and  C_21
REMARK    9  A    between atoms: C_22  and  C_23
REMARK   10  A    between atoms: C_27  and  C_28
REMARK                            x       y       z     vdW  Elec       q    Type
REMARK                         _______ _______ _______ _____ _____    ______ ____
ROOT
ATOM      1  C   UNL     1      46.709   5.525  13.681  0.00  0.00    +0.000 A 
ATOM      2  C   UNL     1      45.487   4.897  13.427  0.00  0.00    +0.000 A 
ATOM      3  C   UNL     1      44.450   5.536  12.739  0.00  0.00    +0.000 A 
ATOM      4  C   UNL     1      44.649   6.860  12.337  0.00  0.00    +0.000 A 
ATOM      5  C   UNL     1      45.859   7.527  12.605  0.00  0.00    +0.000 A 
ATOM      6  C   UNL     1      46.946   6.854  13.233  0.00  0.00    +0.000 A 
ENDROOT
BRANCH   6   7
ATOM      7  C   UNL     1      48.298   7.488  13.374  0.00  0.00    +0.000 A 
ATOM      8  C   UNL     1      48.777   7.970  14.607  0.00  0.00    +0.000 A 
ATOM      9  C   UNL     1      50.085   8.432  14.764  0.00  0.00    +0.000 A 
ATOM     10  C   UNL     1      50.944   8.478  13.674  0.00  0.00    +0.000 A 
ATOM     11  C   UNL     1      50.503   8.050  12.422  0.00  0.00    +0.000 A 
ATOM     12  C   UNL     1      51.410   8.076  11.229  0.00  0.00    +0.000 C 
ATOM     13  C   UNL     1      49.194   7.559  12.288  0.00  0.00    +0.000 A 
ENDBRANCH   6   7
BRANCH   1  15
ATOM     14  C   UNL     1      47.478   4.232  15.567  0.00  0.00    +0.000 C 
ATOM     15  O   UNL     1      47.735   4.869  14.322  0.00  0.00    +0.000 OA
ENDBRANCH   1  15
BRANCH   5  16
ATOM     16  O   UNL     1      46.054   8.836  12.229  0.00  0.00    +0.000 OA
ATOM     17  C   UNL     1      44.899   9.609  11.937  0.00  0.00    +0.000 C 
ENDBRANCH   5  16
BRANCH   3  18
ATOM     18  C   UNL     1      43.138   4.844  12.411  0.00  0.00    +0.000 C 
BRANCH  18  19
ATOM     19  C   UNL     1      43.110   4.181  11.031  0.00  0.00    +0.000 C 
BRANCH  19  20
ATOM     20  N   UNL     1      43.887   4.916  10.033  0.00  0.00    +0.000 N 
ATOM     21  C   UNL     1      44.720   4.040   9.302  0.00  0.00    +0.000 A 
ATOM     22  C   UNL     1      45.531   4.562   8.301  0.00  0.00    +0.000 A 
ATOM     23  C   UNL     1      46.359   3.699   7.575  0.00  0.00    +0.000 A 
ATOM     24  C   UNL     1      46.366   2.334   7.862  0.00  0.00    +0.000 A 
ATOM     25  C   UNL     1      45.516   1.899   8.862  0.00  0.00    +0.000 A 
ATOM     26  N   UNL     1      44.704   2.716   9.572  0.00  0.00    +0.000 NA
ATOM     27  H   UNL     1      44.471   5.636  10.449  0.00  0.00    +0.000 HD
BRANCH  24  28
ATOM     28  C   UNL     1      47.260   1.429   7.107  0.00  0.00    +0.000 C 
ATOM     29  N   UNL     1      48.387   1.942   6.518  0.00  0.00    +0.000 N 
ATOM     30  O   UNL     1      47.009   0.238   6.995  0.00  0.00    +0.000 OA
ATOM     31  H   UNL     1      48.692   2.901   6.535  0.00  0.00    +0.000 HD
ATOM     32  H   UNL     1      48.964   1.281   6.010  0.00  0.00    +0.000 HD
ENDBRANCH  24  28
ENDBRANCH  19  20
ENDBRANCH  18  19
ENDBRANCH   3  18
TORSDOF 7
ENDMDL
MODEL 2
REMARK VINA RESULT:    -8.412      0.614      2.826
REMARK INTER + INTRA:         -12.690
REMARK INTER:                 -11.781
REMARK INTRA:                  -0.909
REMARK UNBOUND:                -0.836
REMARK  Name = 
REMARK  10 active torsions:
REMARK  status: ('A' for Active; 'I' for Inactive)
REMARK    1  A    between atoms: C_1  and  O_2
REMARK    2  A    between atoms: O_2  and  C_3
REMARK    3  A    between atoms: C_5  and  C_6
REMARK    4  A    between atoms: C_6  and  C_7
REMARK    5  A    between atoms: C_7  and  N_8
REMARK    6  A    between atoms: C_12  and  C_13
REMARK    7  A    between atoms: C_19  and  O_20
REMARK    8  A    between atoms: O_20  and  C_21
REMARK    9  A    between atoms: C_22  and  C_23
REMARK   10  A    between atoms: C_27  and  C_28
REMARK                            x       y       z     vdW  Elec       q    Type
REMARK                         _______ _______ _______ _____ _____    ______ ____
ROOT
ATOM      1  C   UNL     1      46.124   7.444  12.685  0.00  0.00    +0.000 A 
ATOM      2  C   UNL     1      44.911   6.838  12.345  0.00  0.00    +0.000 A 
ATOM      3  C   UNL     1      44.599   5.530  12.731  0.00  0.00    +0.000 A 
ATOM      4  C   UNL     1      45.563   4.810  13.444  0.00  0.00    +0.000 A 
ATOM      5  C   UNL     1      46.803   5.386  13.774  0.00  0.00    +0.000 A 
ATOM      6  C   UNL     1      47.092   6.743  13.454  0.00  0.00    +0.000 A 
ENDROOT
BRANCH   6   7
ATOM      7  C   UNL     1      48.333   7.428  13.945  0.00  0.00    +0.000 A 
ATOM      8  C   UNL     1      49.516   7.475  13.183  0.00  0.00    +0.000 A 
ATOM      9  C   UNL     1      50.623   8.229  13.579  0.00  0.00    +0.000 A 
ATOM     10  C   UNL     1      50.601   8.920  14.783  0.00  0.00    +0.000 A 
ATOM     11  C   UNL     1      49.466   8.871  15.593  0.00  0.00    +0.000 A 
ATOM     12  C   UNL     1      49.408   9.617  16.892  0.00  0.00    +0.000 C 
ATOM     13  C   UNL     1      48.350   8.134  15.165  0.00  0.00    +0.000 A 
ENDBRANCH   6   7
BRANCH   1  15
ATOM     14  C   UNL     1      45.322   9.650  12.125  0.00  0.00    +0.000 C 
ATOM     15  O   UNL     1      46.399   8.746  12.334  0.00  0.00    +0.000 OA
ENDBRANCH   1  15
BRANCH   5  16
ATOM     16  O   UNL     1      47.763   4.677  14.460  0.00  0.00    +0.000 OA
ATOM     17  C   UNL     1      47.416   4.188  15.748  0.00  0.00    +0.000 C 
ENDBRANCH   5  16
BRANCH   3  18
ATOM     18  C   UNL     1      43.263   4.879  12.412  0.00  0.00    +0.000 C 
BRANCH  18  19
ATOM     19  C   UNL     1      43.196   4.245  11.020  0.00  0.00    +0.000 C 
BRANCH  19  20
ATOM     20  N   UNL     1      43.991   4.968  10.028  0.00  0.00    +0.000 N 
ATOM     21  C   UNL     1      44.803   4.077   9.290  0.00  0.00    +0.000 A 
ATOM     22  C   UNL     1      45.627   4.587   8.294  0.00  0.00    +0.000 A 
ATOM     23  C   UNL     1      46.433   3.709   7.561  0.00  0.00    +0.000 A 
ATOM     24  C   UNL     1      46.405   2.342   7.837  0.00  0.00    +0.000 A 
ATOM     25  C   UNL     1      45.545   1.921   8.834  0.00  0.00    +0.000 A 
ATOM     26  N   UNL     1      44.752   2.752   9.550  0.00  0.00    +0.000 NA
ATOM     27  H   UNL     1      44.593   5.670  10.450  0.00  0.00    +0.000 HD
BRANCH  24  28
ATOM     28  C   UNL     1      47.276   1.421   7.075  0.00  0.00    +0.000 C 
ATOM     29  N   UNL     1      48.418   1.910   6.492  0.00  0.00    +0.000 N 
ATOM     30  O   UNL     1      46.995   0.238   6.952  0.00  0.00    +0.000 OA
ATOM     31  H   UNL     1      48.747   2.860   6.518  0.00  0.00    +0.000 HD
ATOM     32  H   UNL     1      48.977   1.238   5.979  0.00  0.00    +0.000 HD
ENDBRANCH  24  28
ENDBRANCH  19  20
ENDBRANCH  18  19
ENDBRANCH   3  18
TORSDOF 7
ENDMDL
MODEL 3
REMARK VINA RESULT:    -7.353      1.968      2.569
REMARK INTER + INTRA:         -11.197
REMARK INTER:                 -10.199
REMARK INTRA:                  -0.999
REMARK UNBOUND:                -0.836
REMARK  Name = 
REMARK  10 active torsions:
REMARK  status: ('A' for Active; 'I' for Inactive)
REMARK    1  A    between atoms: C_1  and  O_2
REMARK    2  A    between atoms: O_2  and  C_3
REMARK    3  A    between atoms: C_5  and  C_6
REMARK    4  A    between atoms: C_6  and  C_7
REMARK    5  A    between atoms: C_7  and  N_8
REMARK    6  A    between atoms: C_12  and  C_13
REMARK    7  A    between atoms: C_19  and  O_20
REMARK    8  A    between atoms: O_20  and  C_21
REMARK    9  A    between atoms: C_22  and  C_23
REMARK   10  A    between atoms: C_27  and  C_28
REMARK                            x       y       z     vdW  Elec       q    Type
REMARK                         _______ _______ _______ _____ _____    ______ ____
ROOT
ATOM      1  C   UNL     1      47.342   7.436  12.858  0.00  0.00    +0.000 A 
ATOM      2  C   UNL     1      46.325   6.481  12.779  0.00  0.00    +0.000 A 
ATOM      3  C   UNL     1      45.044   6.794  12.311  0.00  0.00    +0.000 A 
ATOM      4  C   UNL     1      44.783   8.121  11.955  0.00  0.00    +0.000 A 
ATOM      5  C   UNL     1      45.781   9.108  12.051  0.00  0.00    +0.000 A 
ATOM      6  C   UNL     1      47.107   8.778  12.450  0.00  0.00    +0.000 A 
ENDROOT
BRANCH   6   7
ATOM      7  C   UNL     1      48.225   9.777  12.395  0.00  0.00    +0.000 A 
ATOM      8  C   UNL     1      48.958  10.020  11.218  0.00  0.00    +0.000 A 
ATOM      9  C   UNL     1      49.903  11.043  11.131  0.00  0.00    +0.000 A 
ATOM     10  C   UNL     1      50.186  11.827  12.243  0.00  0.00    +0.000 A 
ATOM     11  C   UNL     1      49.516  11.598  13.444  0.00  0.00    +0.000 A 
ATOM     12  C   UNL     1      49.790  12.435  14.657  0.00  0.00    +0.000 C 
ATOM     13  C   UNL     1      48.545  10.585  13.506  0.00  0.00    +0.000 A 
ENDBRANCH   6   7
BRANCH   1  15
ATOM     14  C   UNL     1      48.838   6.873  14.665  0.00  0.00    +0.000 C 
ATOM     15  O   UNL     1      48.609   7.104  13.281  0.00  0.00    +0.000 OA
ENDBRANCH   1  15
BRANCH   5  16
ATOM     16  O   UNL     1      45.526  10.419  11.719  0.00  0.00    +0.000 OA
ATOM     17  C   UNL     1      44.171  10.780  11.482  0.00  0.00    +0.000 C 
ENDBRANCH   5  16
BRANCH   3  18
ATOM     18  C   UNL     1      43.947   5.752  12.172  0.00  0.00    +0.000 C 
BRANCH  18  19
ATOM     19  C   UNL     1      43.748   5.245  10.742  0.00  0.00    +0.000 C 
BRANCH  19  20
ATOM     20  N   UNL     1      43.873   3.791  10.632  0.00  0.00    +0.000 N 
ATOM     21  C   UNL     1      44.758   3.441   9.587  0.00  0.00    +0.000 A 
ATOM     22  C   UNL     1      45.005   2.097   9.338  0.00  0.00    +0.000 A 
ATOM     23  C   UNL     1      45.880   1.745   8.304  0.00  0.00    +0.000 A 
ATOM     24  C   UNL     1      46.488   2.739   7.537  0.00  0.00    +0.000 A 
ATOM     25  C   UNL     1      46.196   4.050   7.864  0.00  0.00    +0.000 A 
ATOM     26  N   UNL     1      45.359   4.411   8.864  0.00  0.00    +0.000 NA
ATOM     27  H   UNL     1      42.980   3.337  10.458  0.00  0.00    +0.000 HD
BRANCH  24  28
ATOM     28  C   UNL     1      47.394   2.362   6.430  0.00  0.00    +0.000 C 
ATOM     29  N   UNL     1      47.397   3.115   5.284  0.00  0.00    +0.000 N 
ATOM     30  O   UNL     1      48.132   1.392   6.517  0.00  0.00    +0.000 OA
ATOM     31  H   UNL     1      46.831   3.926   5.095  0.00  0.00    +0.000 HD
ATOM     32  H   UNL     1      48.033   2.812   4.555  0.00  0.00    +0.000 HD
ENDBRANCH  24  28
ENDBRANCH  19  20
ENDBRANCH  18  19
ENDBRANCH   3  18
TORSDOF 7
ENDMDL
MODEL 4
REMARK VINA RESULT:    -6.775      4.080      8.538
REMARK INTER + INTRA:         -10.383
REMARK INTER:                  -9.256
REMARK INTRA:                  -1.127
REMARK UNBOUND:                -0.836
REMARK  Name = 
REMARK  10 active torsions:
REMARK  status: ('A' for Active; 'I' for Inactive)
REMARK    1  A    between atoms: C_1  and  O_2
REMARK    2  A    between atoms: O_2  and  C_3
REMARK    3  A    between atoms: C_5  and  C_6
REMARK    4  A    between atoms: C_6  and  C_7
REMARK    5  A    between atoms: C_7  and  N_8
REMARK    6  A    between atoms: C_12  and  C_13
REMARK    7  A    between atoms: C_19  and  O_20
REMARK    8  A    between atoms: O_20  and  C_21
REMARK    9  A    between atoms: C_22  and  C_23
REMARK   10  A    between atoms: C_27  and  C_28
REMARK                            x       y       z     vdW  Elec       q    Type
REMARK                         _______ _______ _______ _____ _____    ______ ____
ROOT
ATOM      1  C   UNL     1      45.807   7.798  12.502  0.00  0.00    +0.000 A 
ATOM      2  C   UNL     1      46.606   8.760  13.127  0.00  0.00    +0.000 A 
ATOM      3  C   UNL     1      47.700   8.413  13.927  0.00  0.00    +0.000 A 
ATOM      4  C   UNL     1      47.959   7.054  14.128  0.00  0.00    +0.000 A 
ATOM      5  C   UNL     1      47.154   6.065  13.535  0.00  0.00    +0.000 A 
ATOM      6  C   UNL     1      46.090   6.413  12.655  0.00  0.00    +0.000 A 
ENDROOT
BRANCH   6   7
ATOM      7  C   UNL     1      45.330   5.378  11.879  0.00  0.00    +0.000 A 
ATOM      8  C   UNL     1      44.265   4.650  12.441  0.00  0.00    +0.000 A 
ATOM      9  C   UNL     1      43.471   3.790  11.680  0.00  0.00    +0.000 A 
ATOM     10  C   UNL     1      43.754   3.588  10.335  0.00  0.00    +0.000 A 
ATOM     11  C   UNL     1      44.825   4.256   9.742  0.00  0.00    +0.000 A 
ATOM     12  C   UNL     1      45.147   4.069   8.290  0.00  0.00    +0.000 C 
ATOM     13  C   UNL     1      45.593   5.142  10.514  0.00  0.00    +0.000 A 
ENDBRANCH   6   7
BRANCH   1  15
ATOM     14  C   UNL     1      44.538   9.531  11.403  0.00  0.00    +0.000 C 
ATOM     15  O   UNL     1      44.759   8.155  11.684  0.00  0.00    +0.000 OA
ENDBRANCH   1  15
BRANCH   5  16
ATOM     16  O   UNL     1      47.393   4.726  13.744  0.00  0.00    +0.000 OA
ATOM     17  C   UNL     1      47.206   4.229  15.062  0.00  0.00    +0.000 C 
ENDBRANCH   5  16
BRANCH   3  18
ATOM     18  C   UNL     1      48.606   9.451  14.568  0.00  0.00    +0.000 C 
BRANCH  18  19
ATOM     19  C   UNL     1      49.253   8.991  15.877  0.00  0.00    +0.000 C 
BRANCH  19  20
ATOM     20  N   UNL     1      48.347   9.086  17.022  0.00  0.00    +0.000 N 
ATOM     21  C   UNL     1      48.397   7.907  17.800  0.00  0.00    +0.000 A 
ATOM     22  C   UNL     1      47.603   7.819  18.937  0.00  0.00    +0.000 A 
ATOM     23  C   UNL     1      47.648   6.654  19.710  0.00  0.00    +0.000 A 
ATOM     24  C   UNL     1      48.480   5.599  19.334  0.00  0.00    +0.000 A 
ATOM     25  C   UNL     1      49.246   5.779  18.198  0.00  0.00    +0.000 A 
ATOM     26  N   UNL     1      49.222   6.900  17.440  0.00  0.00    +0.000 NA
ATOM     27  H   UNL     1      47.382   9.240  16.741  0.00  0.00    +0.000 HD
BRANCH  24  28
ATOM     28  C   UNL     1      48.507   4.360  20.142  0.00  0.00    +0.000 C 
ATOM     29  N   UNL     1      48.475   3.146  19.504  0.00  0.00    +0.000 N 
ATOM     30  O   UNL     1      48.552   4.400  21.363  0.00  0.00    +0.000 OA
ATOM     31  H   UNL     1      48.431   2.989  18.511  0.00  0.00    +0.000 HD
ATOM     32  H   UNL     1      48.492   2.328  20.104  0.00  0.00    +0.000 HD
ENDBRANCH  24  28
ENDBRANCH  19  20
ENDBRANCH  18  19
ENDBRANCH   3  18
TORSDOF 7
ENDMDL
MODEL 5
REMARK VINA RESULT:    -6.748      4.143      8.279
REMARK INTER + INTRA:         -10.345
REMARK INTER:                  -9.158
REMARK INTRA:                  -1.187
REMARK UNBOUND:                -0.836
REMARK  Name = 
REMARK  10 active torsions:
REMARK  status: ('A' for Active; 'I' for Inactive)
REMARK    1  A    between atoms: C_1  and  O_2
REMARK    2  A    between atoms: O_2  and  C_3
REMARK    3  A    between atoms: C_5  and  C_6
REMARK    4  A    between atoms: C_6  and  C_7
REMARK    5  A    between atoms: C_7  and  N_8
REMARK    6  A    between atoms: C_12  and  C_13
REMARK    7  A    between atoms: C_19  and  O_20
REMARK    8  A    between atoms: O_20  and  C_21
REMARK    9  A    between atoms: C_22  and  C_23
REMARK   10  A    between atoms: C_27  and  C_28
REMARK                            x       y       z     vdW  Elec       q    Type
REMARK                         _______ _______ _______ _____ _____    ______ ____
ROOT
ATOM      1  C   UNL     1      47.340   6.305  13.502  0.00  0.00    +0.000 A 
ATOM      2  C   UNL     1      48.179   7.229  14.131  0.00  0.00    +0.000 A 
ATOM      3  C   UNL     1      47.989   8.610  14.012  0.00  0.00    +0.000 A 
ATOM      4  C   UNL     1      46.944   9.059  13.199  0.00  0.00    +0.000 A 
ATOM      5  C   UNL     1      46.102   8.152  12.530  0.00  0.00    +0.000 A 
ATOM      6  C   UNL     1      46.242   6.747  12.713  0.00  0.00    +0.000 A 
ENDROOT
BRANCH   6   7
ATOM      7  C   UNL     1      45.253   5.769  12.150  0.00  0.00    +0.000 A 
ATOM      8  C   UNL     1      44.108   5.365  12.863  0.00  0.00    +0.000 A 
ATOM      9  C   UNL     1      43.120   4.565  12.286  0.00  0.00    +0.000 A 
ATOM     10  C   UNL     1      43.272   4.097  10.987  0.00  0.00    +0.000 A 
ATOM     11  C   UNL     1      44.409   4.437  10.254  0.00  0.00    +0.000 A 
ATOM     12  C   UNL     1      44.596   3.957   8.846  0.00  0.00    +0.000 C 
ATOM     13  C   UNL     1      45.379   5.268  10.838  0.00  0.00    +0.000 A 
ENDBRANCH   6   7
BRANCH   1  15
ATOM     14  C   UNL     1      47.141   4.344  14.893  0.00  0.00    +0.000 C 
ATOM     15  O   UNL     1      47.515   4.950  13.662  0.00  0.00    +0.000 OA
ENDBRANCH   1  15
BRANCH   5  16
ATOM     16  O   UNL     1      45.084   8.587  11.714  0.00  0.00    +0.000 OA
ATOM     17  C   UNL     1      44.718   9.958  11.802  0.00  0.00    +0.000 C 
ENDBRANCH   5  16
BRANCH   3  18
ATOM     18  C   UNL     1      48.863   9.621  14.734  0.00  0.00    +0.000 C 
BRANCH  18  19
ATOM     19  C   UNL     1      49.444   9.111  16.056  0.00  0.00    +0.000 C 
BRANCH  19  20
ATOM     20  N   UNL     1      48.492   9.192  17.164  0.00  0.00    +0.000 N 
ATOM     21  C   UNL     1      48.503   7.999  17.922  0.00  0.00    +0.000 A 
ATOM     22  C   UNL     1      47.662   7.895  19.023  0.00  0.00    +0.000 A 
ATOM     23  C   UNL     1      47.668   6.717  19.777  0.00  0.00    +0.000 A 
ATOM     24  C   UNL     1      48.509   5.663  19.416  0.00  0.00    +0.000 A 
ATOM     25  C   UNL     1      49.323   5.859  18.316  0.00  0.00    +0.000 A 
ATOM     26  N   UNL     1      49.337   6.993  17.578  0.00  0.00    +0.000 NA
ATOM     27  H   UNL     1      47.541   9.357  16.846  0.00  0.00    +0.000 HD
BRANCH  24  28
ATOM     28  C   UNL     1      48.496   4.410  20.202  0.00  0.00    +0.000 C 
ATOM     29  N   UNL     1      48.601   3.210  19.547  0.00  0.00    +0.000 N 
ATOM     30  O   UNL     1      48.388   4.426  21.419  0.00  0.00    +0.000 OA
ATOM     31  H   UNL     1      48.686   3.072  18.553  0.00  0.00    +0.000 HD
ATOM     32  H   UNL     1      48.582   2.381  20.131  0.00  0.00    +0.000 HD
ENDBRANCH  24  28
ENDBRANCH  19  20
ENDBRANCH  18  19
ENDBRANCH   3  18
TORSDOF 7
ENDMDL
MODEL 6
REMARK VINA RESULT:    -6.314      3.923      6.154
REMARK INTER + INTRA:          -9.734
REMARK INTER:                  -8.758
REMARK INTRA:                  -0.975
REMARK UNBOUND:                -0.836
REMARK  Name = 
REMARK  10 active torsions:
REMARK  status: ('A' for Active; 'I' for Inactive)
REMARK    1  A    between atoms: C_1  and  O_2
REMARK    2  A    between atoms: O_2  and  C_3
REMARK    3  A    between atoms: C_5  and  C_6
REMARK    4  A    between atoms: C_6  and  C_7
REMARK    5  A    between atoms: C_7  and  N_8
REMARK    6  A    between atoms: C_12  and  C_13
REMARK    7  A    between atoms: C_19  and  O_20
REMARK    8  A    between atoms: O_20  and  C_21
REMARK    9  A    between atoms: C_22  and  C_23
REMARK   10  A    between atoms: C_27  and  C_28
REMARK                            x       y       z     vdW  Elec       q    Type
REMARK                         _______ _______ _______ _____ _____    ______ ____
ROOT
ATOM      1  C   UNL     1      48.505   5.611  17.043  0.00  0.00    +0.000 A 
ATOM      2  C   UNL     1      48.624   5.943  15.691  0.00  0.00    +0.000 A 
ATOM      3  C   UNL     1      48.803   7.262  15.261  0.00  0.00    +0.000 A 
ATOM      4  C   UNL     1      48.820   8.270  16.229  0.00  0.00    +0.000 A 
ATOM      5  C   UNL     1      48.673   7.968  17.595  0.00  0.00    +0.000 A 
ATOM      6  C   UNL     1      48.572   6.620  18.044  0.00  0.00    +0.000 A 
ENDROOT
BRANCH   6   7
ATOM      7  C   UNL     1      48.588   6.264  19.501  0.00  0.00    +0.000 A 
ATOM      8  C   UNL     1      47.416   6.237  20.280  0.00  0.00    +0.000 A 
ATOM      9  C   UNL     1      47.412   5.773  21.597  0.00  0.00    +0.000 A 
ATOM     10  C   UNL     1      48.598   5.369  22.197  0.00  0.00    +0.000 A 
ATOM     11  C   UNL     1      49.792   5.416  21.479  0.00  0.00    +0.000 A 
ATOM     12  C   UNL     1      51.085   4.975  22.095  0.00  0.00    +0.000 C 
ATOM     13  C   UNL     1      49.774   5.856  20.145  0.00  0.00    +0.000 A 
ENDBRANCH   6   7
BRANCH   1  15
ATOM     14  C   UNL     1      47.259   3.546  16.997  0.00  0.00    +0.000 C 
ATOM     15  O   UNL     1      48.371   4.305  17.454  0.00  0.00    +0.000 OA
ENDBRANCH   1  15
BRANCH   5  16
ATOM     16  O   UNL     1      48.670   8.957  18.552  0.00  0.00    +0.000 OA
ATOM     17  C   UNL     1      47.846  10.090  18.315  0.00  0.00    +0.000 C 
ENDBRANCH   5  16
BRANCH   3  18
ATOM     18  C   UNL     1      48.986   7.627  13.797  0.00  0.00    +0.000 C 
BRANCH  18  19
ATOM     19  C   UNL     1      47.722   8.173  13.128  0.00  0.00    +0.000 C 
BRANCH  19  20
ATOM     20  N   UNL     1      46.495   7.593  13.675  0.00  0.00    +0.000 N 
ATOM     21  C   UNL     1      45.908   6.699  12.752  0.00  0.00    +0.000 A 
ATOM     22  C   UNL     1      44.733   6.046  13.103  0.00  0.00    +0.000 A 
ATOM     23  C   UNL     1      44.147   5.160  12.192  0.00  0.00    +0.000 A 
ATOM     24  C   UNL     1      44.742   4.944  10.948  0.00  0.00    +0.000 A 
ATOM     25  C   UNL     1      45.918   5.624  10.689  0.00  0.00    +0.000 A 
ATOM     26  N   UNL     1      46.503   6.480  11.559  0.00  0.00    +0.000 NA
ATOM     27  H   UNL     1      45.805   8.300  13.914  0.00  0.00    +0.000 HD
BRANCH  24  28
ATOM     28  C   UNL     1      44.107   4.024   9.980  0.00  0.00    +0.000 C 
ATOM     29  N   UNL     1      44.080   4.367   8.652  0.00  0.00    +0.000 N 
ATOM     30  O   UNL     1      43.603   2.971  10.341  0.00  0.00    +0.000 OA
ATOM     31  H   UNL     1      44.453   5.206   8.239  0.00  0.00    +0.000 HD
ATOM     32  H   UNL     1      43.630   3.704   8.030  0.00  0.00    +0.000 HD
ENDBRANCH  24  28
ENDBRANCH  19  20
ENDBRANCH  18  19
ENDBRANCH   3  18
TORSDOF 7
ENDMDL
MODEL 7
REMARK VINA RESULT:    -6.258      4.691      6.828
REMARK INTER + INTRA:          -9.655
REMARK INTER:                  -8.840
REMARK INTRA:                  -0.815
REMARK UNBOUND:                -0.836
REMARK  Name = 
REMARK  10 active torsions:
REMARK  status: ('A' for Active; 'I' for Inactive)
REMARK    1  A    between atoms: C_1  and  O_2
REMARK    2  A    between atoms: O_2  and  C_3
REMARK    3  A    between atoms: C_5  and  C_6
REMARK    4  A    between atoms: C_6  and  C_7
REMARK    5  A    between atoms: C_7  and  N_8
REMARK    6  A    between atoms: C_12  and  C_13
REMARK    7  A    between atoms: C_19  and  O_20
REMARK    8  A    between atoms: O_20  and  C_21
REMARK    9  A    between atoms: C_22  and  C_23
REMARK   10  A    between atoms: C_27  and  C_28
REMARK                            x       y       z     vdW  Elec       q    Type
REMARK                         _______ _______ _______ _____ _____    ______ ____
ROOT
ATOM      1  C   UNL     1      48.651   7.857  18.025  0.00  0.00    +0.000 A 
ATOM      2  C   UNL     1      48.766   6.748  17.182  0.00  0.00    +0.000 A 
ATOM      3  C   UNL     1      48.293   5.483  17.547  0.00  0.00    +0.000 A 
ATOM      4  C   UNL     1      47.729   5.337  18.818  0.00  0.00    +0.000 A 
ATOM      5  C   UNL     1      47.627   6.430  19.698  0.00  0.00    +0.000 A 
ATOM      6  C   UNL     1      48.033   7.735  19.300  0.00  0.00    +0.000 A 
ENDROOT
BRANCH   6   7
ATOM      7  C   UNL     1      47.777   8.942  20.153  0.00  0.00    +0.000 A 
ATOM      8  C   UNL     1      48.718   9.414  21.088  0.00  0.00    +0.000 A 
ATOM      9  C   UNL     1      48.538  10.613  21.780  0.00  0.00    +0.000 A 
ATOM     10  C   UNL     1      47.379  11.356  21.598  0.00  0.00    +0.000 A 
ATOM     11  C   UNL     1      46.398  10.909  20.712  0.00  0.00    +0.000 A 
ATOM     12  C   UNL     1      45.142  11.695  20.485  0.00  0.00    +0.000 C 
ATOM     13  C   UNL     1      46.609   9.717  20.000  0.00  0.00    +0.000 A 
ENDBRANCH   6   7
BRANCH   1  15
ATOM     14  C   UNL     1      49.013   9.463  16.261  0.00  0.00    +0.000 C 
ATOM     15  O   UNL     1      49.084   9.104  17.635  0.00  0.00    +0.000 OA
ENDBRANCH   1  15
BRANCH   5  16
ATOM     16  O   UNL     1      47.090   6.289  20.957  0.00  0.00    +0.000 OA
ATOM     17  C   UNL     1      47.770   5.432  21.864  0.00  0.00    +0.000 C 
ENDBRANCH   5  16
BRANCH   3  18
ATOM     18  C   UNL     1      48.364   4.283  16.618  0.00  0.00    +0.000 C 
BRANCH  18  19
ATOM     19  C   UNL     1      47.129   4.109  15.729  0.00  0.00    +0.000 C 
BRANCH  19  20
ATOM     20  N   UNL     1      46.906   5.247  14.837  0.00  0.00    +0.000 N 
ATOM     21  C   UNL     1      46.237   4.839  13.662  0.00  0.00    +0.000 A 
ATOM     22  C   UNL     1      45.934   5.791  12.696  0.00  0.00    +0.000 A 
ATOM     23  C   UNL     1      45.272   5.392  11.530  0.00  0.00    +0.000 A 
ATOM     24  C   UNL     1      44.929   4.052  11.347  0.00  0.00    +0.000 A 
ATOM     25  C   UNL     1      45.255   3.176  12.366  0.00  0.00    +0.000 A 
ATOM     26  N   UNL     1      45.888   3.543  13.504  0.00  0.00    +0.000 NA
ATOM     27  H   UNL     1      47.774   5.703  14.567  0.00  0.00    +0.000 HD
BRANCH  24  28
ATOM     28  C   UNL     1      44.249   3.631  10.102  0.00  0.00    +0.000 C 
ATOM     29  N   UNL     1      43.978   4.569   9.139  0.00  0.00    +0.000 N 
ATOM     30  O   UNL     1      43.922   2.467   9.920  0.00  0.00    +0.000 OA
ATOM     31  H   UNL     1      44.191   5.552   9.179  0.00  0.00    +0.000 HD
ATOM     32  H   UNL     1      43.508   4.229   8.307  0.00  0.00    +0.000 HD
ENDBRANCH  24  28
ENDBRANCH  19  20
ENDBRANCH  18  19
ENDBRANCH   3  18
TORSDOF 7
ENDMDL
MODEL 8
REMARK VINA RESULT:    -6.097      4.748      9.459
REMARK INTER + INTRA:          -9.427
REMARK INTER:                  -8.513
REMARK INTRA:                  -0.914
REMARK UNBOUND:                -0.836
REMARK  Name = 
REMARK  10 active torsions:
REMARK  status: ('A' for Active; 'I' for Inactive)
REMARK    1  A    between atoms: C_1  and  O_2
REMARK    2  A    between atoms: O_2  and  C_3
REMARK    3  A    between atoms: C_5  and  C_6
REMARK    4  A    between atoms: C_6  and  C_7
REMARK    5  A    between atoms: C_7  and  N_8
REMARK    6  A    between atoms: C_12  and  C_13
REMARK    7  A    between atoms: C_19  and  O_20
REMARK    8  A    between atoms: O_20  and  C_21
REMARK    9  A    between atoms: C_22  and  C_23
REMARK   10  A    between atoms: C_27  and  C_28
REMARK                            x       y       z     vdW  Elec       q    Type
REMARK                         _______ _______ _______ _____ _____    ______ ____
ROOT
ATOM      1  C   UNL     1      45.838   7.995  12.282  0.00  0.00    +0.000 A 
ATOM      2  C   UNL     1      46.679   8.981  12.806  0.00  0.00    +0.000 A 
ATOM      3  C   UNL     1      47.801   8.667  13.581  0.00  0.00    +0.000 A 
ATOM      4  C   UNL     1      48.047   7.320  13.863  0.00  0.00    +0.000 A 
ATOM      5  C   UNL     1      47.200   6.309  13.373  0.00  0.00    +0.000 A 
ATOM      6  C   UNL     1      46.105   6.618  12.518  0.00  0.00    +0.000 A 
ENDROOT
BRANCH   6   7
ATOM      7  C   UNL     1      45.294   5.548  11.846  0.00  0.00    +0.000 A 
ATOM      8  C   UNL     1      44.230   4.895  12.494  0.00  0.00    +0.000 A 
ATOM      9  C   UNL     1      43.391   4.001  11.826  0.00  0.00    +0.000 A 
ATOM     10  C   UNL     1      43.626   3.689  10.492  0.00  0.00    +0.000 A 
ATOM     11  C   UNL     1      44.694   4.280   9.818  0.00  0.00    +0.000 A 
ATOM     12  C   UNL     1      44.965   3.974   8.376  0.00  0.00    +0.000 C 
ATOM     13  C   UNL     1      45.509   5.201  10.497  0.00  0.00    +0.000 A 
ENDBRANCH   6   7
BRANCH   1  15
ATOM     14  C   UNL     1      44.351   9.674  11.394  0.00  0.00    +0.000 C 
ATOM     15  O   UNL     1      44.762   8.316  11.487  0.00  0.00    +0.000 OA
ENDBRANCH   1  15
BRANCH   5  16
ATOM     16  O   UNL     1      47.426   4.983  13.662  0.00  0.00    +0.000 OA
ATOM     17  C   UNL     1      47.045   4.523  14.952  0.00  0.00    +0.000 C 
ENDBRANCH   5  16
BRANCH   3  18
ATOM     18  C   UNL     1      48.751   9.728  14.110  0.00  0.00    +0.000 C 
BRANCH  18  19
ATOM     19  C   UNL     1      49.026   9.624  15.613  0.00  0.00    +0.000 C 
BRANCH  19  20
ATOM     20  N   UNL     1      48.305  10.629  16.394  0.00  0.00    +0.000 N 
ATOM     21  C   UNL     1      47.995  10.137  17.681  0.00  0.00    +0.000 A 
ATOM     22  C   UNL     1      47.312  10.959  18.569  0.00  0.00    +0.000 A 
ATOM     23  C   UNL     1      47.002  10.477  19.845  0.00  0.00    +0.000 A 
ATOM     24  C   UNL     1      47.375   9.183  20.210  0.00  0.00    +0.000 A 
ATOM     25  C   UNL     1      48.065   8.440  19.270  0.00  0.00    +0.000 A 
ATOM     26  N   UNL     1      48.380   8.891  18.034  0.00  0.00    +0.000 NA
ATOM     27  H   UNL     1      47.438  10.918  15.947  0.00  0.00    +0.000 HD
BRANCH  24  28
ATOM     28  C   UNL     1      47.026   8.669  21.553  0.00  0.00    +0.000 C 
ATOM     29  N   UNL     1      47.603   7.505  21.993  0.00  0.00    +0.000 N 
ATOM     30  O   UNL     1      46.231   9.257  22.270  0.00  0.00    +0.000 OA
ATOM     31  H   UNL     1      48.261   6.931  21.491  0.00  0.00    +0.000 HD
ATOM     32  H   UNL     1      47.326   7.194  22.918  0.00  0.00    +0.000 HD
ENDBRANCH  24  28
ENDBRANCH  19  20
ENDBRANCH  18  19
ENDBRANCH   3  18
TORSDOF 7
ENDMDL
MODEL 9
REMARK VINA RESULT:    -5.942      3.368      7.006
REMARK INTER + INTRA:          -9.210
REMARK INTER:                  -8.131
REMARK INTRA:                  -1.079
REMARK UNBOUND:                -0.836
REMARK  Name = 
REMARK  10 active torsions:
REMARK  status: ('A' for Active; 'I' for Inactive)
REMARK    1  A    between atoms: C_1  and  O_2
REMARK    2  A    between atoms: O_2  and  C_3
REMARK    3  A    between atoms: C_5  and  C_6
REMARK    4  A    between atoms: C_6  and  C_7
REMARK    5  A    between atoms: C_7  and  N_8
REMARK    6  A    between atoms: C_12  and  C_13
REMARK    7  A    between atoms: C_19  and  O_20
REMARK    8  A    between atoms: O_20  and  C_21
REMARK    9  A    between atoms: C_22  and  C_23
REMARK   10  A    between atoms: C_27  and  C_28
REMARK                            x       y       z     vdW  Elec       q    Type
REMARK                         _______ _______ _______ _____ _____    ______ ____
ROOT
ATOM      1  C   UNL     1      45.539   7.809  12.080  0.00  0.00    +0.000 A 
ATOM      2  C   UNL     1      46.353   8.914  12.347  0.00  0.00    +0.000 A 
ATOM      3  C   UNL     1      47.610   8.785  12.947  0.00  0.00    +0.000 A 
ATOM      4  C   UNL     1      48.029   7.505  13.322  0.00  0.00    +0.000 A 
ATOM      5  C   UNL     1      47.218   6.379  13.092  0.00  0.00    +0.000 A 
ATOM      6  C   UNL     1      45.974   6.495  12.409  0.00  0.00    +0.000 A 
ENDROOT
BRANCH   6   7
ATOM      7  C   UNL     1      45.176   5.293  12.000  0.00  0.00    +0.000 A 
ATOM      8  C   UNL     1      44.232   4.692  12.855  0.00  0.00    +0.000 A 
ATOM      9  C   UNL     1      43.394   3.662  12.426  0.00  0.00    +0.000 A 
ATOM     10  C   UNL     1      43.510   3.159  11.136  0.00  0.00    +0.000 A 
ATOM     11  C   UNL     1      44.458   3.694  10.265  0.00  0.00    +0.000 A 
ATOM     12  C   UNL     1      44.599   3.182   8.863  0.00  0.00    +0.000 C 
ATOM     13  C   UNL     1      45.272   4.752  10.702  0.00  0.00    +0.000 A 
ENDBRANCH   6   7
BRANCH   1  15
ATOM     14  C   UNL     1      43.967   9.209  10.901  0.00  0.00    +0.000 C 
ATOM     15  O   UNL     1      44.324   7.947  11.451  0.00  0.00    +0.000 OA
ENDBRANCH   1  15
BRANCH   5  16
ATOM     16  O   UNL     1      47.616   5.119  13.475  0.00  0.00    +0.000 OA
ATOM     17  C   UNL     1      47.334   4.724  14.811  0.00  0.00    +0.000 C 
ENDBRANCH   5  16
BRANCH   3  18
ATOM     18  C   UNL     1      48.524   9.974  13.194  0.00  0.00    +0.000 C 
BRANCH  18  19
ATOM     19  C   UNL     1      50.010   9.612  13.270  0.00  0.00    +0.000 C 
BRANCH  19  20
ATOM     20  N   UNL     1      50.814  10.299  12.260  0.00  0.00    +0.000 N 
ATOM     21  C   UNL     1      51.352   9.376  11.335  0.00  0.00    +0.000 A 
ATOM     22  C   UNL     1      52.144   9.851  10.295  0.00  0.00    +0.000 A 
ATOM     23  C   UNL     1      52.679   8.942   9.377  0.00  0.00    +0.000 A 
ATOM     24  C   UNL     1      52.420   7.578   9.514  0.00  0.00    +0.000 A 
ATOM     25  C   UNL     1      51.610   7.196  10.567  0.00  0.00    +0.000 A 
ATOM     26  N   UNL     1      51.077   8.060  11.462  0.00  0.00    +0.000 NA
ATOM     27  H   UNL     1      51.583  10.824  12.668  0.00  0.00    +0.000 HD
BRANCH  24  28
ATOM     28  C   UNL     1      53.007   6.618   8.554  0.00  0.00    +0.000 C 
ATOM     29  N   UNL     1      53.551   5.450   9.025  0.00  0.00    +0.000 N 
ATOM     30  O   UNL     1      53.021   6.849   7.354  0.00  0.00    +0.000 OA
ATOM     31  H   UNL     1      53.604   5.156   9.986  0.00  0.00    +0.000 HD
ATOM     32  H   UNL     1      53.943   4.829   8.326  0.00  0.00    +0.000 HD
ENDBRANCH  24  28
ENDBRANCH  19  20
ENDBRANCH  18  19
ENDBRANCH   3  18
TORSDOF 7
ENDMDL
