MODEL 1
REMARK VINA RESULT:    -8.332      0.000      0.000
REMARK INTER + INTRA:         -14.660
REMARK INTER:                 -12.959
REMARK INTRA:                  -1.702
REMARK UNBOUND:                -1.702
REMARK  Name = 
REMARK  10 active torsions:
REMARK  status: ('A' for Active; 'I' for Inactive)
REMARK    1  A    between atoms: C_2  and  C_23
REMARK    2  A    between atoms: N_3  and  C_4
REMARK    3  A    between atoms: C_4  and  C_5
REMARK    4  A    between atoms: C_8  and  C_9
REMARK    5  A    between atoms: C_9  and  N_10
REMARK    6  A    between atoms: N_10  and  C_11
REMARK    7  A    between atoms: N_10  and  C_14
REMARK    8  A    between atoms: C_11  and  C_12
REMARK    9  A    between atoms: C_12  and  O_13
REMARK   10  A    between atoms: C_14  and  C_15
REMARK                            x       y       z     vdW  Elec       q    Type
REMARK                         _______ _______ _______ _____ _____    ______ ____
ROOT
ATOM      1  C   UNL     1      46.521   7.596  12.658  0.00  0.00    +0.000 A 
ATOM      2  C   UNL     1      47.088   6.610  11.841  0.00  0.00    +0.000 A 
ATOM      3  C   UNL     1      46.288   5.860  10.983  0.00  0.00    +0.000 A 
ATOM      4  C   UNL     1      44.905   6.080  10.933  0.00  0.00    +0.000 A 
ATOM      5  C   UNL     1      44.356   7.144  11.661  0.00  0.00    +0.000 A 
ATOM      6  C   UNL     1      45.160   7.900  12.514  0.00  0.00    +0.000 A 
ENDROOT
BRANCH   1   7
ATOM      7  C   UNL     1      47.367   8.305  13.678  0.00  0.00    +0.000 C 
BRANCH   7  10
ATOM      8  O   UNL     1      49.831   7.018  14.107  0.00  0.00    +0.000 OA
ATOM      9  C   UNL     1      48.941   6.907  14.946  0.00  0.00    +0.000 C 
ATOM     10  N   UNL     1      47.692   7.441  14.778  0.00  0.00    +0.000 N 
ATOM     11  H   UNL     1      47.062   7.485  15.569  0.00  0.00    +0.000 HD
BRANCH   9  12
ATOM     12  C   UNL     1      49.141   6.140  16.181  0.00  0.00    +0.000 A 
ATOM     13  C   UNL     1      50.105   6.547  17.094  0.00  0.00    +0.000 A 
ATOM     14  S   UNL     1      50.206   5.538  18.466  0.00  0.00    +0.000 S 
ATOM     15  C   UNL     1      48.936   4.554  17.906  0.00  0.00    +0.000 A 
ATOM     16  N   UNL     1      48.491   3.504  18.642  0.00  0.00    +0.000 NA
ATOM     17  C   UNL     1      47.496   2.866  18.120  0.00  0.00    +0.000 A 
ATOM     18  N   UNL     1      46.918   3.178  16.913  0.00  0.00    +0.000 N 
ATOM     19  C   UNL     1      47.389   4.176  16.099  0.00  0.00    +0.000 A 
ATOM     20  O   UNL     1      46.943   4.327  14.962  0.00  0.00    +0.000 OA
ATOM     21  C   UNL     1      48.466   4.964  16.673  0.00  0.00    +0.000 A 
ATOM     22  H   UNL     1      46.166   2.613  16.539  0.00  0.00    +0.000 HD
ENDBRANCH   9  12
ENDBRANCH   7  10
ENDBRANCH   1   7
BRANCH   4  23
ATOM     23  C   UNL     1      44.012   5.140  10.151  0.00  0.00    +0.000 C 
BRANCH  23  24
ATOM     24  N   UNL     1      44.629   3.806   9.915  0.00  0.00    +0.000 NA
BRANCH  24  25
ATOM     25  C   UNL     1      43.969   2.771  10.748  0.00  0.00    +0.000 C 
BRANCH  25  26
ATOM     26  C   UNL     1      44.020   3.015  12.268  0.00  0.00    +0.000 C 
BRANCH  26  27
ATOM     27  O   UNL     1      45.345   2.820  12.761  0.00  0.00    +0.000 OA
ATOM     28  H   UNL     1      45.425   3.339  13.580  0.00  0.00    +0.000 HD
ENDBRANCH  26  27
ENDBRANCH  25  26
ENDBRANCH  24  25
BRANCH  24  29
ATOM     29  C   UNL     1      44.550   3.454   8.483  0.00  0.00    +0.000 C 
BRANCH  29  30
ATOM     30  C   UNL     1      45.777   2.739   7.967  0.00  0.00    +0.000 A 
ATOM     31  C   UNL     1      46.759   3.427   7.249  0.00  0.00    +0.000 A 
ATOM     32  C   UNL     1      47.843   2.717   6.758  0.00  0.00    +0.000 A 
ATOM     33  N   UNL     1      48.014   1.389   6.937  0.00  0.00    +0.000 NA
ATOM     34  C   UNL     1      47.062   0.746   7.644  0.00  0.00    +0.000 A 
ATOM     35  C   UNL     1      45.944   1.366   8.178  0.00  0.00    +0.000 A 
ENDBRANCH  29  30
ENDBRANCH  24  29
ENDBRANCH  23  24
ENDBRANCH   4  23
TORSDOF 10
ENDMDL
MODEL 2
REMARK VINA RESULT:    -7.316      2.275      2.811
REMARK INTER + INTRA:         -13.081
REMARK INTER:                 -11.752
REMARK INTRA:                  -1.329
REMARK UNBOUND:                -1.702
REMARK  Name = 
REMARK  10 active torsions:
REMARK  status: ('A' for Active; 'I' for Inactive)
REMARK    1  A    between atoms: C_2  and  C_23
REMARK    2  A    between atoms: N_3  and  C_4
REMARK    3  A    between atoms: C_4  and  C_5
REMARK    4  A    between atoms: C_8  and  C_9
REMARK    5  A    between atoms: C_9  and  N_10
REMARK    6  A    between atoms: N_10  and  C_11
REMARK    7  A    between atoms: N_10  and  C_14
REMARK    8  A    between atoms: C_11  and  C_12
REMARK    9  A    between atoms: C_12  and  O_13
REMARK   10  A    between atoms: C_14  and  C_15
REMARK                            x       y       z     vdW  Elec       q    Type
REMARK                         _______ _______ _______ _____ _____    ______ ____
ROOT
ATOM      1  C   UNL     1      48.154   6.659  13.495  0.00  0.00    +0.000 A 
ATOM      2  C   UNL     1      47.174   5.722  13.847  0.00  0.00    +0.000 A 
ATOM      3  C   UNL     1      46.140   5.420  12.965  0.00  0.00    +0.000 A 
ATOM      4  C   UNL     1      46.066   6.056  11.718  0.00  0.00    +0.000 A 
ATOM      5  C   UNL     1      47.109   6.901  11.319  0.00  0.00    +0.000 A 
ATOM      6  C   UNL     1      48.150   7.196  12.201  0.00  0.00    +0.000 A 
ENDROOT
BRANCH   1   7
ATOM      7  C   UNL     1      49.188   7.080  14.503  0.00  0.00    +0.000 C 
BRANCH   7  10
ATOM      8  O   UNL     1      50.876   5.863  16.394  0.00  0.00    +0.000 OA
ATOM      9  C   UNL     1      49.724   6.145  16.711  0.00  0.00    +0.000 C 
ATOM     10  N   UNL     1      48.819   6.671  15.828  0.00  0.00    +0.000 N 
ATOM     11  H   UNL     1      47.953   7.057  16.181  0.00  0.00    +0.000 HD
BRANCH   9  12
ATOM     12  C   UNL     1      49.214   5.886  18.062  0.00  0.00    +0.000 A 
ATOM     13  C   UNL     1      49.376   4.628  18.629  0.00  0.00    +0.000 A 
ATOM     14  S   UNL     1      48.720   4.502  20.198  0.00  0.00    +0.000 S 
ATOM     15  C   UNL     1      48.240   6.134  20.188  0.00  0.00    +0.000 A 
ATOM     16  N   UNL     1      47.635   6.689  21.271  0.00  0.00    +0.000 NA
ATOM     17  C   UNL     1      47.360   7.945  21.145  0.00  0.00    +0.000 A 
ATOM     18  N   UNL     1      47.622   8.692  20.022  0.00  0.00    +0.000 N 
ATOM     19  C   UNL     1      48.153   8.153  18.878  0.00  0.00    +0.000 A 
ATOM     20  O   UNL     1      48.232   8.816  17.845  0.00  0.00    +0.000 OA
ATOM     21  C   UNL     1      48.539   6.758  18.993  0.00  0.00    +0.000 A 
ATOM     22  H   UNL     1      47.344   9.663  19.972  0.00  0.00    +0.000 HD
ENDBRANCH   9  12
ENDBRANCH   7  10
ENDBRANCH   1   7
BRANCH   4  23
ATOM     23  C   UNL     1      44.843   5.876  10.843  0.00  0.00    +0.000 C 
BRANCH  23  24
ATOM     24  N   UNL     1      44.548   4.451  10.533  0.00  0.00    +0.000 NA
BRANCH  24  25
ATOM     25  C   UNL     1      43.342   3.996  11.265  0.00  0.00    +0.000 C 
BRANCH  25  26
ATOM     26  C   UNL     1      43.550   2.782  12.191  0.00  0.00    +0.000 C 
BRANCH  26  27
ATOM     27  O   UNL     1      42.824   1.653  11.707  0.00  0.00    +0.000 OA
ATOM     28  H   UNL     1      43.063   0.896  12.269  0.00  0.00    +0.000 HD
ENDBRANCH  26  27
ENDBRANCH  25  26
ENDBRANCH  24  25
BRANCH  24  29
ATOM     29  C   UNL     1      44.375   4.271   9.077  0.00  0.00    +0.000 C 
BRANCH  29  30
ATOM     30  C   UNL     1      45.406   3.358   8.454  0.00  0.00    +0.000 A 
ATOM     31  C   UNL     1      46.362   3.858   7.564  0.00  0.00    +0.000 A 
ATOM     32  C   UNL     1      47.255   2.972   6.984  0.00  0.00    +0.000 A 
ATOM     33  N   UNL     1      47.265   1.644   7.231  0.00  0.00    +0.000 NA
ATOM     34  C   UNL     1      46.343   1.184   8.103  0.00  0.00    +0.000 A 
ATOM     35  C   UNL     1      45.409   1.989   8.737  0.00  0.00    +0.000 A 
ENDBRANCH  29  30
ENDBRANCH  24  29
ENDBRANCH  23  24
ENDBRANCH   4  23
TORSDOF 10
ENDMDL
MODEL 3
REMARK VINA RESULT:    -7.266      1.202      1.755
REMARK INTER + INTRA:         -13.003
REMARK INTER:                 -12.298
REMARK INTRA:                  -0.706
REMARK UNBOUND:                -1.702
REMARK  Name = 
REMARK  10 active torsions:
REMARK  status: ('A' for Active; 'I' for Inactive)
REMARK    1  A    between atoms: C_2  and  C_23
REMARK    2  A    between atoms: N_3  and  C_4
REMARK    3  A    between atoms: C_4  and  C_5
REMARK    4  A    between atoms: C_8  and  C_9
REMARK    5  A    between atoms: C_9  and  N_10
REMARK    6  A    between atoms: N_10  and  C_11
REMARK    7  A    between atoms: N_10  and  C_14
REMARK    8  A    between atoms: C_11  and  C_12
REMARK    9  A    between atoms: C_12  and  O_13
REMARK   10  A    between atoms: C_14  and  C_15
REMARK                            x       y       z     vdW  Elec       q    Type
REMARK                         _______ _______ _______ _____ _____    ______ ____
ROOT
ATOM      1  C   UNL     1      46.842   7.872  13.130  0.00  0.00    +0.000 A 
ATOM      2  C   UNL     1      45.647   8.372  12.598  0.00  0.00    +0.000 A 
ATOM      3  C   UNL     1      44.853   7.572  11.781  0.00  0.00    +0.000 A 
ATOM      4  C   UNL     1      45.245   6.262  11.476  0.00  0.00    +0.000 A 
ATOM      5  C   UNL     1      46.377   5.725  12.103  0.00  0.00    +0.000 A 
ATOM      6  C   UNL     1      47.167   6.524  12.930  0.00  0.00    +0.000 A 
ENDROOT
BRANCH   1   7
ATOM      7  C   UNL     1      47.761   8.782  13.899  0.00  0.00    +0.000 C 
BRANCH   7  10
ATOM      8  O   UNL     1      50.096   7.456  14.735  0.00  0.00    +0.000 OA
ATOM      9  C   UNL     1      49.214   7.695  15.556  0.00  0.00    +0.000 C 
ATOM     10  N   UNL     1      48.020   8.270  15.215  0.00  0.00    +0.000 N 
ATOM     11  H   UNL     1      47.411   8.615  15.946  0.00  0.00    +0.000 HD
BRANCH   9  12
ATOM     12  C   UNL     1      49.361   7.328  16.968  0.00  0.00    +0.000 A 
ATOM     13  C   UNL     1      49.838   8.265  17.877  0.00  0.00    +0.000 A 
ATOM     14  S   UNL     1      49.950   7.667  19.470  0.00  0.00    +0.000 S 
ATOM     15  C   UNL     1      49.323   6.155  19.007  0.00  0.00    +0.000 A 
ATOM     16  N   UNL     1      49.126   5.172  19.923  0.00  0.00    +0.000 NA
ATOM     17  C   UNL     1      48.607   4.090  19.445  0.00  0.00    +0.000 A 
ATOM     18  N   UNL     1      48.284   3.899  18.123  0.00  0.00    +0.000 N 
ATOM     19  C   UNL     1      48.544   4.831  17.152  0.00  0.00    +0.000 A 
ATOM     20  O   UNL     1      48.381   4.566  15.962  0.00  0.00    +0.000 OA
ATOM     21  C   UNL     1      49.067   6.091  17.651  0.00  0.00    +0.000 A 
ATOM     22  H   UNL     1      47.917   3.011  17.805  0.00  0.00    +0.000 HD
ENDBRANCH   9  12
ENDBRANCH   7  10
ENDBRANCH   1   7
BRANCH   4  23
ATOM     23  C   UNL     1      44.488   5.463  10.437  0.00  0.00    +0.000 C 
BRANCH  23  24
ATOM     24  N   UNL     1      45.157   4.182  10.080  0.00  0.00    +0.000 NA
BRANCH  24  25
ATOM     25  C   UNL     1      44.774   3.110  11.030  0.00  0.00    +0.000 C 
BRANCH  25  26
ATOM     26  C   UNL     1      43.290   3.093  11.443  0.00  0.00    +0.000 C 
BRANCH  26  27
ATOM     27  O   UNL     1      42.862   1.759  11.712  0.00  0.00    +0.000 OA
ATOM     28  H   UNL     1      43.480   1.385  12.364  0.00  0.00    +0.000 HD
ENDBRANCH  26  27
ENDBRANCH  25  26
ENDBRANCH  24  25
BRANCH  24  29
ATOM     29  C   UNL     1      44.818   3.799   8.694  0.00  0.00    +0.000 C 
BRANCH  29  30
ATOM     30  C   UNL     1      45.875   2.950   8.026  0.00  0.00    +0.000 A 
ATOM     31  C   UNL     1      45.952   1.576   8.273  0.00  0.00    +0.000 A 
ATOM     32  C   UNL     1      46.967   0.850   7.672  0.00  0.00    +0.000 A 
ATOM     33  N   UNL     1      47.893   1.390   6.850  0.00  0.00    +0.000 NA
ATOM     34  C   UNL     1      47.793   2.715   6.614  0.00  0.00    +0.000 A 
ATOM     35  C   UNL     1      46.813   3.526   7.164  0.00  0.00    +0.000 A 
ENDBRANCH  29  30
ENDBRANCH  24  29
ENDBRANCH  23  24
ENDBRANCH   4  23
TORSDOF 10
ENDMDL
MODEL 4
REMARK VINA RESULT:    -6.909      2.076      2.598
REMARK INTER + INTRA:         -12.447
REMARK INTER:                 -11.716
REMARK INTRA:                  -0.731
REMARK UNBOUND:                -1.702
REMARK  Name = 
REMARK  10 active torsions:
REMARK  status: ('A' for Active; 'I' for Inactive)
REMARK    1  A    between atoms: C_2  and  C_23
REMARK    2  A    between atoms: N_3  and  C_4
REMARK    3  A    between atoms: C_4  and  C_5
REMARK    4  A    between atoms: C_8  and  C_9
REMARK    5  A    between atoms: C_9  and  N_10
REMARK    6  A    between atoms: N_10  and  C_11
REMARK    7  A    between atoms: N_10  and  C_14
REMARK    8  A    between atoms: C_11  and  C_12
REMARK    9  A    between atoms: C_12  and  O_13
REMARK   10  A    between atoms: C_14  and  C_15
REMARK                            x       y       z     vdW  Elec       q    Type
REMARK                         _______ _______ _______ _____ _____    ______ ____
ROOT
ATOM      1  C   UNL     1      47.882   6.914  14.225  0.00  0.00    +0.000 A 
ATOM      2  C   UNL     1      47.360   5.628  14.039  0.00  0.00    +0.000 A 
ATOM      3  C   UNL     1      46.753   5.283  12.834  0.00  0.00    +0.000 A 
ATOM      4  C   UNL     1      46.653   6.221  11.798  0.00  0.00    +0.000 A 
ATOM      5  C   UNL     1      47.280   7.465  11.941  0.00  0.00    +0.000 A 
ATOM      6  C   UNL     1      47.896   7.807  13.146  0.00  0.00    +0.000 A 
ENDROOT
BRANCH   1   7
ATOM      7  C   UNL     1      48.412   7.322  15.572  0.00  0.00    +0.000 C 
BRANCH   7  10
ATOM      8  O   UNL     1      49.314   6.927  18.207  0.00  0.00    +0.000 OA
ATOM      9  C   UNL     1      49.836   6.295  17.292  0.00  0.00    +0.000 C 
ATOM     10  N   UNL     1      49.505   6.483  15.977  0.00  0.00    +0.000 N 
ATOM     11  H   UNL     1      49.821   5.813  15.288  0.00  0.00    +0.000 HD
BRANCH   9  12
ATOM     12  C   UNL     1      50.901   5.319  17.544  0.00  0.00    +0.000 A 
ATOM     13  C   UNL     1      52.140   5.754  17.998  0.00  0.00    +0.000 A 
ATOM     14  S   UNL     1      53.259   4.489  18.232  0.00  0.00    +0.000 S 
ATOM     15  C   UNL     1      52.113   3.316  17.779  0.00  0.00    +0.000 A 
ATOM     16  N   UNL     1      52.424   1.994  17.796  0.00  0.00    +0.000 NA
ATOM     17  C   UNL     1      51.450   1.211  17.469  0.00  0.00    +0.000 A 
ATOM     18  N   UNL     1      50.194   1.636  17.109  0.00  0.00    +0.000 N 
ATOM     19  C   UNL     1      49.862   2.962  16.997  0.00  0.00    +0.000 A 
ATOM     20  O   UNL     1      48.778   3.305  16.528  0.00  0.00    +0.000 OA
ATOM     21  C   UNL     1      50.905   3.882  17.417  0.00  0.00    +0.000 A 
ATOM     22  H   UNL     1      49.486   0.972  16.824  0.00  0.00    +0.000 HD
ENDBRANCH   9  12
ENDBRANCH   7  10
ENDBRANCH   1   7
BRANCH   4  23
ATOM     23  C   UNL     1      45.826   5.912  10.568  0.00  0.00    +0.000 C 
BRANCH  23  24
ATOM     24  N   UNL     1      45.224   4.551  10.593  0.00  0.00    +0.000 NA
BRANCH  24  25
ATOM     25  C   UNL     1      44.159   4.469  11.622  0.00  0.00    +0.000 C 
BRANCH  25  26
ATOM     26  C   UNL     1      43.305   3.188  11.589  0.00  0.00    +0.000 C 
BRANCH  26  27
ATOM     27  O   UNL     1      43.740   2.271  12.592  0.00  0.00    +0.000 OA
ATOM     28  H   UNL     1      42.964   2.055  13.138  0.00  0.00    +0.000 HD
ENDBRANCH  26  27
ENDBRANCH  25  26
ENDBRANCH  24  25
BRANCH  24  29
ATOM     29  C   UNL     1      44.690   4.206   9.259  0.00  0.00    +0.000 C 
BRANCH  29  30
ATOM     30  C   UNL     1      45.582   3.271   8.474  0.00  0.00    +0.000 A 
ATOM     31  C   UNL     1      45.570   1.895   8.721  0.00  0.00    +0.000 A 
ATOM     32  C   UNL     1      46.440   1.087   8.007  0.00  0.00    +0.000 A 
ATOM     33  N   UNL     1      47.302   1.549   7.075  0.00  0.00    +0.000 NA
ATOM     34  C   UNL     1      47.288   2.878   6.843  0.00  0.00    +0.000 A 
ATOM     35  C   UNL     1      46.455   3.768   7.502  0.00  0.00    +0.000 A 
ENDBRANCH  29  30
ENDBRANCH  24  29
ENDBRANCH  23  24
ENDBRANCH   4  23
TORSDOF 10
ENDMDL
MODEL 5
REMARK VINA RESULT:    -5.873      1.869      2.568
REMARK INTER + INTRA:         -10.837
REMARK INTER:                  -9.448
REMARK INTRA:                  -1.389
REMARK UNBOUND:                -1.702
REMARK  Name = 
REMARK  10 active torsions:
REMARK  status: ('A' for Active; 'I' for Inactive)
REMARK    1  A    between atoms: C_2  and  C_23
REMARK    2  A    between atoms: N_3  and  C_4
REMARK    3  A    between atoms: C_4  and  C_5
REMARK    4  A    between atoms: C_8  and  C_9
REMARK    5  A    between atoms: C_9  and  N_10
REMARK    6  A    between atoms: N_10  and  C_11
REMARK    7  A    between atoms: N_10  and  C_14
REMARK    8  A    between atoms: C_11  and  C_12
REMARK    9  A    between atoms: C_12  and  O_13
REMARK   10  A    between atoms: C_14  and  C_15
REMARK                            x       y       z     vdW  Elec       q    Type
REMARK                         _______ _______ _______ _____ _____    ______ ____
ROOT
ATOM      1  C   UNL     1      48.916   8.059  13.565  0.00  0.00    +0.000 A 
ATOM      2  C   UNL     1      48.990   7.336  12.368  0.00  0.00    +0.000 A 
ATOM      3  C   UNL     1      47.835   7.061  11.640  0.00  0.00    +0.000 A 
ATOM      4  C   UNL     1      46.587   7.499  12.102  0.00  0.00    +0.000 A 
ATOM      5  C   UNL     1      46.527   8.321  13.234  0.00  0.00    +0.000 A 
ATOM      6  C   UNL     1      47.686   8.605  13.958  0.00  0.00    +0.000 A 
ENDROOT
BRANCH   1   7
ATOM      7  C   UNL     1      50.145   8.235  14.414  0.00  0.00    +0.000 C 
BRANCH   7  10
ATOM      8  O   UNL     1      51.338   6.228  15.982  0.00  0.00    +0.000 OA
ATOM      9  C   UNL     1      50.544   7.006  16.505  0.00  0.00    +0.000 C 
ATOM     10  N   UNL     1      49.866   7.961  15.796  0.00  0.00    +0.000 N 
ATOM     11  H   UNL     1      49.374   8.690  16.296  0.00  0.00    +0.000 HD
BRANCH   9  12
ATOM     12  C   UNL     1      50.222   6.929  17.933  0.00  0.00    +0.000 A 
ATOM     13  C   UNL     1      50.438   8.033  18.748  0.00  0.00    +0.000 A 
ATOM     14  S   UNL     1      50.015   7.766  20.379  0.00  0.00    +0.000 S 
ATOM     15  C   UNL     1      49.487   6.184  20.040  0.00  0.00    +0.000 A 
ATOM     16  N   UNL     1      48.962   5.400  21.018  0.00  0.00    +0.000 NA
ATOM     17  C   UNL     1      48.564   4.239  20.617  0.00  0.00    +0.000 A 
ATOM     18  N   UNL     1      48.662   3.785  19.324  0.00  0.00    +0.000 N 
ATOM     19  C   UNL     1      49.260   4.508  18.325  0.00  0.00    +0.000 A 
ATOM     20  O   UNL     1      49.465   4.011  17.219  0.00  0.00    +0.000 OA
ATOM     21  C   UNL     1      49.666   5.849  18.712  0.00  0.00    +0.000 A 
ATOM     22  H   UNL     1      48.368   2.847  19.083  0.00  0.00    +0.000 HD
ENDBRANCH   9  12
ENDBRANCH   7  10
ENDBRANCH   1   7
BRANCH   4  23
ATOM     23  C   UNL     1      45.317   7.035  11.419  0.00  0.00    +0.000 C 
BRANCH  23  24
ATOM     24  N   UNL     1      45.104   5.565  11.512  0.00  0.00    +0.000 NA
BRANCH  24  25
ATOM     25  C   UNL     1      44.479   5.210  12.810  0.00  0.00    +0.000 C 
BRANCH  25  26
ATOM     26  C   UNL     1      45.272   4.209  13.672  0.00  0.00    +0.000 C 
BRANCH  26  27
ATOM     27  O   UNL     1      46.636   4.163  13.257  0.00  0.00    +0.000 OA
ATOM     28  H   UNL     1      46.716   3.434  12.618  0.00  0.00    +0.000 HD
ENDBRANCH  26  27
ENDBRANCH  25  26
ENDBRANCH  24  25
BRANCH  24  29
ATOM     29  C   UNL     1      44.272   5.098  10.385  0.00  0.00    +0.000 C 
BRANCH  29  30
ATOM     30  C   UNL     1      44.978   4.116   9.478  0.00  0.00    +0.000 A 
ATOM     31  C   UNL     1      45.772   4.564   8.418  0.00  0.00    +0.000 A 
ATOM     32  C   UNL     1      46.360   3.624   7.588  0.00  0.00    +0.000 A 
ATOM     33  N   UNL     1      46.218   2.289   7.744  0.00  0.00    +0.000 NA
ATOM     34  C   UNL     1      45.458   1.879   8.781  0.00  0.00    +0.000 A 
ATOM     35  C   UNL     1      44.831   2.739   9.668  0.00  0.00    +0.000 A 
ENDBRANCH  29  30
ENDBRANCH  24  29
ENDBRANCH  23  24
ENDBRANCH   4  23
TORSDOF 10
ENDMDL
MODEL 6
REMARK VINA RESULT:    -5.856      3.923      8.445
REMARK INTER + INTRA:         -10.810
REMARK INTER:                  -9.179
REMARK INTRA:                  -1.631
REMARK UNBOUND:                -1.702
REMARK  Name = 
REMARK  10 active torsions:
REMARK  status: ('A' for Active; 'I' for Inactive)
REMARK    1  A    between atoms: C_2  and  C_23
REMARK    2  A    between atoms: N_3  and  C_4
REMARK    3  A    between atoms: C_4  and  C_5
REMARK    4  A    between atoms: C_8  and  C_9
REMARK    5  A    between atoms: C_9  and  N_10
REMARK    6  A    between atoms: N_10  and  C_11
REMARK    7  A    between atoms: N_10  and  C_14
REMARK    8  A    between atoms: C_11  and  C_12
REMARK    9  A    between atoms: C_12  and  O_13
REMARK   10  A    between atoms: C_14  and  C_15
REMARK                            x       y       z     vdW  Elec       q    Type
REMARK                         _______ _______ _______ _____ _____    ______ ____
ROOT
ATOM      1  C   UNL     1      47.372   8.559  12.203  0.00  0.00    +0.000 A 
ATOM      2  C   UNL     1      48.185   7.485  11.818  0.00  0.00    +0.000 A 
ATOM      3  C   UNL     1      49.530   7.691  11.525  0.00  0.00    +0.000 A 
ATOM      4  C   UNL     1      50.083   8.976  11.605  0.00  0.00    +0.000 A 
ATOM      5  C   UNL     1      49.302  10.026  12.104  0.00  0.00    +0.000 A 
ATOM      6  C   UNL     1      47.956   9.817  12.407  0.00  0.00    +0.000 A 
ENDROOT
BRANCH   1   7
ATOM      7  C   UNL     1      45.894   8.355  12.386  0.00  0.00    +0.000 C 
BRANCH   7  10
ATOM      8  O   UNL     1      43.556   7.433  11.122  0.00  0.00    +0.000 OA
ATOM      9  C   UNL     1      44.400   6.620  11.491  0.00  0.00    +0.000 C 
ATOM     10  N   UNL     1      45.528   6.982  12.177  0.00  0.00    +0.000 N 
ATOM     11  H   UNL     1      46.274   6.309  12.291  0.00  0.00    +0.000 HD
BRANCH   9  12
ATOM     12  C   UNL     1      44.230   5.181  11.265  0.00  0.00    +0.000 A 
ATOM     13  C   UNL     1      43.468   4.431  12.151  0.00  0.00    +0.000 A 
ATOM     14  S   UNL     1      43.382   2.778  11.740  0.00  0.00    +0.000 S 
ATOM     15  C   UNL     1      44.320   3.019  10.342  0.00  0.00    +0.000 A 
ATOM     16  N   UNL     1      44.597   1.989   9.501  0.00  0.00    +0.000 NA
ATOM     17  C   UNL     1      45.284   2.319   8.458  0.00  0.00    +0.000 A 
ATOM     18  N   UNL     1      45.734   3.588   8.191  0.00  0.00    +0.000 N 
ATOM     19  C   UNL     1      45.551   4.639   9.052  0.00  0.00    +0.000 A 
ATOM     20  O   UNL     1      46.097   5.724   8.852  0.00  0.00    +0.000 OA
ATOM     21  C   UNL     1      44.727   4.333  10.209  0.00  0.00    +0.000 A 
ATOM     22  H   UNL     1      46.304   3.773   7.375  0.00  0.00    +0.000 HD
ENDBRANCH   9  12
ENDBRANCH   7  10
ENDBRANCH   1   7
BRANCH   4  23
ATOM     23  C   UNL     1      51.488   9.233  11.101  0.00  0.00    +0.000 C 
BRANCH  23  24
ATOM     24  N   UNL     1      52.522   8.430  11.808  0.00  0.00    +0.000 NA
BRANCH  24  25
ATOM     25  C   UNL     1      53.741   8.297  10.974  0.00  0.00    +0.000 C 
BRANCH  25  26
ATOM     26  C   UNL     1      54.178   6.852  10.668  0.00  0.00    +0.000 C 
BRANCH  26  27
ATOM     27  O   UNL     1      53.041   6.032  10.401  0.00  0.00    +0.000 OA
ATOM     28  H   UNL     1      52.393   6.203  11.105  0.00  0.00    +0.000 HD
ENDBRANCH  26  27
ENDBRANCH  25  26
ENDBRANCH  24  25
BRANCH  24  29
ATOM     29  C   UNL     1      52.843   9.045  13.112  0.00  0.00    +0.000 C 
BRANCH  29  30
ATOM     30  C   UNL     1      52.659   8.109  14.284  0.00  0.00    +0.000 A 
ATOM     31  C   UNL     1      51.399   7.924  14.862  0.00  0.00    +0.000 A 
ATOM     32  C   UNL     1      51.291   7.092  15.964  0.00  0.00    +0.000 A 
ATOM     33  N   UNL     1      52.335   6.437  16.517  0.00  0.00    +0.000 NA
ATOM     34  C   UNL     1      53.540   6.619  15.936  0.00  0.00    +0.000 A 
ATOM     35  C   UNL     1      53.750   7.427  14.831  0.00  0.00    +0.000 A 
ENDBRANCH  29  30
ENDBRANCH  24  29
ENDBRANCH  23  24
ENDBRANCH   4  23
TORSDOF 10
ENDMDL
MODEL 7
REMARK VINA RESULT:    -5.531      2.895      8.793
REMARK INTER + INTRA:         -10.304
REMARK INTER:                  -9.587
REMARK INTRA:                  -0.717
REMARK UNBOUND:                -1.702
REMARK  Name = 
REMARK  10 active torsions:
REMARK  status: ('A' for Active; 'I' for Inactive)
REMARK    1  A    between atoms: C_2  and  C_23
REMARK    2  A    between atoms: N_3  and  C_4
REMARK    3  A    between atoms: C_4  and  C_5
REMARK    4  A    between atoms: C_8  and  C_9
REMARK    5  A    between atoms: C_9  and  N_10
REMARK    6  A    between atoms: N_10  and  C_11
REMARK    7  A    between atoms: N_10  and  C_14
REMARK    8  A    between atoms: C_11  and  C_12
REMARK    9  A    between atoms: C_12  and  O_13
REMARK   10  A    between atoms: C_14  and  C_15
REMARK                            x       y       z     vdW  Elec       q    Type
REMARK                         _______ _______ _______ _____ _____    ______ ____
ROOT
ATOM      1  C   UNL     1      45.059   5.706  11.635  0.00  0.00    +0.000 A 
ATOM      2  C   UNL     1      45.833   5.017  12.577  0.00  0.00    +0.000 A 
ATOM      3  C   UNL     1      46.707   5.709  13.411  0.00  0.00    +0.000 A 
ATOM      4  C   UNL     1      46.827   7.101  13.311  0.00  0.00    +0.000 A 
ATOM      5  C   UNL     1      45.969   7.801  12.453  0.00  0.00    +0.000 A 
ATOM      6  C   UNL     1      45.085   7.107  11.625  0.00  0.00    +0.000 A 
ENDROOT
BRANCH   1   7
ATOM      7  C   UNL     1      44.219   4.943  10.648  0.00  0.00    +0.000 C 
BRANCH   7  10
ATOM      8  O   UNL     1      43.646   2.242  10.113  0.00  0.00    +0.000 OA
ATOM      9  C   UNL     1      44.635   2.759   9.600  0.00  0.00    +0.000 C 
ATOM     10  N   UNL     1      45.022   4.044   9.868  0.00  0.00    +0.000 N 
ATOM     11  H   UNL     1      45.724   4.480   9.283  0.00  0.00    +0.000 HD
BRANCH   9  12
ATOM     12  C   UNL     1      45.510   2.009   8.693  0.00  0.00    +0.000 A 
ATOM     13  C   UNL     1      45.555   0.623   8.771  0.00  0.00    +0.000 A 
ATOM     14  S   UNL     1      46.628  -0.084   7.649  0.00  0.00    +0.000 S 
ATOM     15  C   UNL     1      47.031   1.433   6.994  0.00  0.00    +0.000 A 
ATOM     16  N   UNL     1      47.895   1.535   5.950  0.00  0.00    +0.000 NA
ATOM     17  C   UNL     1      48.082   2.740   5.525  0.00  0.00    +0.000 A 
ATOM     18  N   UNL     1      47.491   3.857   6.064  0.00  0.00    +0.000 N 
ATOM     19  C   UNL     1      46.680   3.810   7.169  0.00  0.00    +0.000 A 
ATOM     20  O   UNL     1      46.292   4.842   7.713  0.00  0.00    +0.000 OA
ATOM     21  C   UNL     1      46.388   2.468   7.644  0.00  0.00    +0.000 A 
ATOM     22  H   UNL     1      47.711   4.779   5.710  0.00  0.00    +0.000 HD
ENDBRANCH   9  12
ENDBRANCH   7  10
ENDBRANCH   1   7
BRANCH   4  23
ATOM     23  C   UNL     1      47.913   7.829  14.075  0.00  0.00    +0.000 C 
BRANCH  23  24
ATOM     24  N   UNL     1      49.139   7.009  14.276  0.00  0.00    +0.000 NA
BRANCH  24  25
ATOM     25  C   UNL     1      50.242   7.498  13.414  0.00  0.00    +0.000 C 
BRANCH  25  26
ATOM     26  C   UNL     1      49.898   7.642  11.919  0.00  0.00    +0.000 C 
BRANCH  26  27
ATOM     27  O   UNL     1      50.972   7.167  11.110  0.00  0.00    +0.000 OA
ATOM     28  H   UNL     1      51.092   6.224  11.318  0.00  0.00    +0.000 HD
ENDBRANCH  26  27
ENDBRANCH  25  26
ENDBRANCH  24  25
BRANCH  24  29
ATOM     29  C   UNL     1      49.538   7.029  15.698  0.00  0.00    +0.000 C 
BRANCH  29  30
ATOM     30  C   UNL     1      48.651   6.187  16.587  0.00  0.00    +0.000 A 
ATOM     31  C   UNL     1      48.119   4.978  16.129  0.00  0.00    +0.000 A 
ATOM     32  C   UNL     1      47.275   4.266  16.965  0.00  0.00    +0.000 A 
ATOM     33  N   UNL     1      46.935   4.668  18.209  0.00  0.00    +0.000 NA
ATOM     34  C   UNL     1      47.469   5.831  18.636  0.00  0.00    +0.000 A 
ATOM     35  C   UNL     1      48.325   6.613  17.878  0.00  0.00    +0.000 A 
ENDBRANCH  29  30
ENDBRANCH  24  29
ENDBRANCH  23  24
ENDBRANCH   4  23
TORSDOF 10
ENDMDL
MODEL 8
REMARK VINA RESULT:    -5.491      2.167      2.843
REMARK INTER + INTRA:         -10.242
REMARK INTER:                  -9.562
REMARK INTRA:                  -0.680
REMARK UNBOUND:                -1.702
REMARK  Name = 
REMARK  10 active torsions:
REMARK  status: ('A' for Active; 'I' for Inactive)
REMARK    1  A    between atoms: C_2  and  C_23
REMARK    2  A    between atoms: N_3  and  C_4
REMARK    3  A    between atoms: C_4  and  C_5
REMARK    4  A    between atoms: C_8  and  C_9
REMARK    5  A    between atoms: C_9  and  N_10
REMARK    6  A    between atoms: N_10  and  C_11
REMARK    7  A    between atoms: N_10  and  C_14
REMARK    8  A    between atoms: C_11  and  C_12
REMARK    9  A    between atoms: C_12  and  O_13
REMARK   10  A    between atoms: C_14  and  C_15
REMARK                            x       y       z     vdW  Elec       q    Type
REMARK                         _______ _______ _______ _____ _____    ______ ____
ROOT
ATOM      1  C   UNL     1      48.355   7.811  12.780  0.00  0.00    +0.000 A 
ATOM      2  C   UNL     1      48.406   6.413  12.844  0.00  0.00    +0.000 A 
ATOM      3  C   UNL     1      47.235   5.662  12.780  0.00  0.00    +0.000 A 
ATOM      4  C   UNL     1      45.993   6.299  12.659  0.00  0.00    +0.000 A 
ATOM      5  C   UNL     1      45.952   7.687  12.476  0.00  0.00    +0.000 A 
ATOM      6  C   UNL     1      47.127   8.438  12.531  0.00  0.00    +0.000 A 
ENDROOT
BRANCH   1   7
ATOM      7  C   UNL     1      49.607   8.619  12.986  0.00  0.00    +0.000 C 
BRANCH   7  10
ATOM      8  O   UNL     1      48.951   9.700  15.498  0.00  0.00    +0.000 OA
ATOM      9  C   UNL     1      49.807   8.822  15.427  0.00  0.00    +0.000 C 
ATOM     10  N   UNL     1      50.234   8.297  14.236  0.00  0.00    +0.000 N 
ATOM     11  H   UNL     1      50.795   7.455  14.241  0.00  0.00    +0.000 HD
BRANCH   9  12
ATOM     12  C   UNL     1      50.478   8.305  16.624  0.00  0.00    +0.000 A 
ATOM     13  C   UNL     1      51.295   9.144  17.371  0.00  0.00    +0.000 A 
ATOM     14  S   UNL     1      51.998   8.377  18.724  0.00  0.00    +0.000 S 
ATOM     15  C   UNL     1      51.198   6.915  18.380  0.00  0.00    +0.000 A 
ATOM     16  N   UNL     1      51.343   5.835  19.191  0.00  0.00    +0.000 NA
ATOM     17  C   UNL     1      50.649   4.804  18.837  0.00  0.00    +0.000 A 
ATOM     18  N   UNL     1      49.836   4.754  17.732  0.00  0.00    +0.000 N 
ATOM     19  C   UNL     1      49.726   5.790  16.842  0.00  0.00    +0.000 A 
ATOM     20  O   UNL     1      49.108   5.655  15.786  0.00  0.00    +0.000 OA
ATOM     21  C   UNL     1      50.437   6.996  17.231  0.00  0.00    +0.000 A 
ATOM     22  H   UNL     1      49.349   3.900  17.487  0.00  0.00    +0.000 HD
ENDBRANCH   9  12
ENDBRANCH   7  10
ENDBRANCH   1   7
BRANCH   4  23
ATOM     23  C   UNL     1      44.713   5.501  12.787  0.00  0.00    +0.000 C 
BRANCH  23  24
ATOM     24  N   UNL     1      44.407   4.685  11.580  0.00  0.00    +0.000 NA
BRANCH  24  25
ATOM     25  C   UNL     1      42.944   4.632  11.343  0.00  0.00    +0.000 C 
BRANCH  25  26
ATOM     26  C   UNL     1      42.145   5.839  11.871  0.00  0.00    +0.000 C 
BRANCH  26  27
ATOM     27  O   UNL     1      42.461   7.013  11.125  0.00  0.00    +0.000 OA
ATOM     28  H   UNL     1      43.428   7.031  11.016  0.00  0.00    +0.000 HD
ENDBRANCH  26  27
ENDBRANCH  25  26
ENDBRANCH  24  25
BRANCH  24  29
ATOM     29  C   UNL     1      45.108   5.235  10.402  0.00  0.00    +0.000 C 
BRANCH  29  30
ATOM     30  C   UNL     1      45.480   4.188   9.377  0.00  0.00    +0.000 A 
ATOM     31  C   UNL     1      45.239   2.832   9.617  0.00  0.00    +0.000 A 
ATOM     32  C   UNL     1      45.640   1.908   8.666  0.00  0.00    +0.000 A 
ATOM     33  N   UNL     1      46.250   2.239   7.507  0.00  0.00    +0.000 NA
ATOM     34  C   UNL     1      46.462   3.554   7.289  0.00  0.00    +0.000 A 
ATOM     35  C   UNL     1      46.095   4.554   8.175  0.00  0.00    +0.000 A 
ENDBRANCH  29  30
ENDBRANCH  24  29
ENDBRANCH  23  24
ENDBRANCH   4  23
TORSDOF 10
ENDMDL
