MODEL 1
REMARK VINA RESULT:    -8.019      0.000      0.000
REMARK INTER + INTRA:         -12.047
REMARK INTER:                 -11.301
REMARK INTRA:                  -0.746
REMARK UNBOUND:                -0.746
REMARK  Name = 
REMARK  8 active torsions:
REMARK  status: ('A' for Active; 'I' for Inactive)
REMARK    1  A    between atoms: C_1  and  O_2
REMARK    2  A    between atoms: O_2  and  C_3
REMARK    3  A    between atoms: C_8  and  C_9
REMARK    4  A    between atoms: C_9  and  N_10
REMARK    5  A    between atoms: N_10  and  C_11
REMARK    6  A    between atoms: C_14  and  C_15
REMARK    7  A    between atoms: C_15  and  N_16
REMARK    8  A    between atoms: C_17  and  C_19
REMARK                            x       y       z     vdW  Elec       q    Type
REMARK                         _______ _______ _______ _____ _____    ______ ____
ROOT
ATOM      1  C   UNL     1      44.693   4.576  10.134  0.00  0.00    +0.000 A 
ATOM      2  C   UNL     1      44.238   4.649  11.460  0.00  0.00    +0.000 A 
ATOM      3  C   UNL     1      44.735   5.614  12.350  0.00  0.00    +0.000 A 
ATOM      4  C   UNL     1      45.718   6.518  11.937  0.00  0.00    +0.000 A 
ATOM      5  C   UNL     1      46.251   6.378  10.654  0.00  0.00    +0.000 A 
ATOM      6  C   UNL     1      45.752   5.414   9.774  0.00  0.00    +0.000 A 
ENDROOT
BRANCH   1   7
ATOM      7  N   UNL     1      44.176   3.591   9.278  0.00  0.00    +0.000 N 
ATOM      8  H   UNL     1      43.985   3.972   8.354  0.00  0.00    +0.000 HD
BRANCH   7   9
ATOM      9  C   UNL     1      44.926   2.332   9.166  0.00  0.00    +0.000 C 
BRANCH   9  15
ATOM     10  C   UNL     1      46.601   1.275   7.544  0.00  0.00    +0.000 A 
ATOM     11  C   UNL     1      47.448   1.399   6.437  0.00  0.00    +0.000 A 
ATOM     12  C   UNL     1      47.526   2.602   5.730  0.00  0.00    +0.000 A 
ATOM     13  C   UNL     1      46.751   3.690   6.116  0.00  0.00    +0.000 A 
ATOM     14  C   UNL     1      45.917   3.582   7.225  0.00  0.00    +0.000 A 
ATOM     15  C   UNL     1      45.844   2.385   7.962  0.00  0.00    +0.000 A 
BRANCH  10  17
ATOM     16  C   UNL     1      46.743  -1.107   7.588  0.00  0.00    +0.000 C 
ATOM     17  O   UNL     1      46.413   0.111   8.243  0.00  0.00    +0.000 OA
ENDBRANCH  10  17
ENDBRANCH   9  15
ENDBRANCH   7   9
ENDBRANCH   1   7
BRANCH   4  18
ATOM     18  C   UNL     1      46.226   7.604  12.847  0.00  0.00    +0.000 C 
BRANCH  18  19
ATOM     19  N   UNL     1      46.831   7.066  14.037  0.00  0.00    +0.000 N 
ATOM     20  C   UNL     1      48.189   6.885  14.112  0.00  0.00    +0.000 C 
ATOM     21  O   UNL     1      48.941   7.218  13.200  0.00  0.00    +0.000 OA
ATOM     22  H   UNL     1      46.223   6.573  14.683  0.00  0.00    +0.000 HD
BRANCH  20  23
ATOM     23  C   UNL     1      48.710   6.328  15.366  0.00  0.00    +0.000 A 
ATOM     24  C   UNL     1      49.795   6.932  15.987  0.00  0.00    +0.000 A 
ATOM     25  S   UNL     1      50.236   6.199  17.462  0.00  0.00    +0.000 S 
ATOM     26  C   UNL     1      49.028   5.012  17.294  0.00  0.00    +0.000 A 
ATOM     27  N   UNL     1      48.869   4.038  18.231  0.00  0.00    +0.000 NA
ATOM     28  C   UNL     1      47.933   3.190  17.965  0.00  0.00    +0.000 A 
ATOM     29  N   UNL     1      47.138   3.228  16.849  0.00  0.00    +0.000 N 
ATOM     30  C   UNL     1      47.243   4.205  15.889  0.00  0.00    +0.000 A 
ATOM     31  O   UNL     1      46.498   4.229  14.917  0.00  0.00    +0.000 OA
ATOM     32  C   UNL     1      48.286   5.184  16.138  0.00  0.00    +0.000 A 
ATOM     33  H   UNL     1      46.419   2.536  16.700  0.00  0.00    +0.000 HD
ENDBRANCH  20  23
ENDBRANCH  18  19
ENDBRANCH   4  18
TORSDOF 7
ENDMDL
MODEL 2
REMARK VINA RESULT:    -7.878      1.907      2.963
REMARK INTER + INTRA:         -11.848
REMARK INTER:                 -10.580
REMARK INTRA:                  -1.268
REMARK UNBOUND:                -0.746
REMARK  Name = 
REMARK  8 active torsions:
REMARK  status: ('A' for Active; 'I' for Inactive)
REMARK    1  A    between atoms: C_1  and  O_2
REMARK    2  A    between atoms: O_2  and  C_3
REMARK    3  A    between atoms: C_8  and  C_9
REMARK    4  A    between atoms: C_9  and  N_10
REMARK    5  A    between atoms: N_10  and  C_11
REMARK    6  A    between atoms: C_14  and  C_15
REMARK    7  A    between atoms: C_15  and  N_16
REMARK    8  A    between atoms: C_17  and  C_19
REMARK                            x       y       z     vdW  Elec       q    Type
REMARK                         _______ _______ _______ _____ _____    ______ ____
ROOT
ATOM      1  C   UNL     1      45.573   7.200  11.469  0.00  0.00    +0.000 A 
ATOM      2  C   UNL     1      46.848   6.634  11.617  0.00  0.00    +0.000 A 
ATOM      3  C   UNL     1      47.739   7.087  12.601  0.00  0.00    +0.000 A 
ATOM      4  C   UNL     1      47.380   8.138  13.450  0.00  0.00    +0.000 A 
ATOM      5  C   UNL     1      46.157   8.777  13.235  0.00  0.00    +0.000 A 
ATOM      6  C   UNL     1      45.275   8.319  12.252  0.00  0.00    +0.000 A 
ENDROOT
BRANCH   1   7
ATOM      7  N   UNL     1      44.715   6.722  10.466  0.00  0.00    +0.000 N 
ATOM      8  H   UNL     1      45.197   6.658   9.571  0.00  0.00    +0.000 HD
BRANCH   7   9
ATOM      9  C   UNL     1      43.981   5.480  10.740  0.00  0.00    +0.000 C 
BRANCH   9  15
ATOM     10  C   UNL     1      44.149   3.015  10.068  0.00  0.00    +0.000 A 
ATOM     11  C   UNL     1      44.710   2.024   9.254  0.00  0.00    +0.000 A 
ATOM     12  C   UNL     1      45.616   2.360   8.244  0.00  0.00    +0.000 A 
ATOM     13  C   UNL     1      45.962   3.689   8.030  0.00  0.00    +0.000 A 
ATOM     14  C   UNL     1      45.422   4.681   8.844  0.00  0.00    +0.000 A 
ATOM     15  C   UNL     1      44.527   4.358   9.881  0.00  0.00    +0.000 A 
BRANCH  10  17
ATOM     16  C   UNL     1      43.659   2.441  12.332  0.00  0.00    +0.000 C 
ATOM     17  O   UNL     1      43.201   2.777  11.028  0.00  0.00    +0.000 OA
ENDBRANCH  10  17
ENDBRANCH   9  15
ENDBRANCH   7   9
ENDBRANCH   1   7
BRANCH   4  18
ATOM     18  C   UNL     1      48.287   8.607  14.557  0.00  0.00    +0.000 C 
BRANCH  18  19
ATOM     19  N   UNL     1      48.417   7.620  15.596  0.00  0.00    +0.000 N 
ATOM     20  C   UNL     1      49.595   6.939  15.772  0.00  0.00    +0.000 C 
ATOM     21  O   UNL     1      50.591   7.178  15.094  0.00  0.00    +0.000 OA
ATOM     22  H   UNL     1      47.559   7.248  15.992  0.00  0.00    +0.000 HD
BRANCH  20  23
ATOM     23  C   UNL     1      49.629   5.951  16.857  0.00  0.00    +0.000 A 
ATOM     24  C   UNL     1      50.620   6.029  17.825  0.00  0.00    +0.000 A 
ATOM     25  S   UNL     1      50.480   4.844  19.044  0.00  0.00    +0.000 S 
ATOM     26  C   UNL     1      49.123   4.150  18.288  0.00  0.00    +0.000 A 
ATOM     27  N   UNL     1      48.507   3.059  18.820  0.00  0.00    +0.000 NA
ATOM     28  C   UNL     1      47.507   2.623  18.130  0.00  0.00    +0.000 A 
ATOM     29  N   UNL     1      47.063   3.178  16.959  0.00  0.00    +0.000 N 
ATOM     30  C   UNL     1      47.635   4.294  16.397  0.00  0.00    +0.000 A 
ATOM     31  O   UNL     1      47.197   4.785  15.364  0.00  0.00    +0.000 OA
ATOM     32  C   UNL     1      48.769   4.824  17.132  0.00  0.00    +0.000 A 
ATOM     33  H   UNL     1      46.272   2.791  16.467  0.00  0.00    +0.000 HD
ENDBRANCH  20  23
ENDBRANCH  18  19
ENDBRANCH   4  18
TORSDOF 7
ENDMDL
MODEL 3
REMARK VINA RESULT:    -7.484      2.516      3.709
REMARK INTER + INTRA:         -11.293
REMARK INTER:                 -10.608
REMARK INTRA:                  -0.685
REMARK UNBOUND:                -0.746
REMARK  Name = 
REMARK  8 active torsions:
REMARK  status: ('A' for Active; 'I' for Inactive)
REMARK    1  A    between atoms: C_1  and  O_2
REMARK    2  A    between atoms: O_2  and  C_3
REMARK    3  A    between atoms: C_8  and  C_9
REMARK    4  A    between atoms: C_9  and  N_10
REMARK    5  A    between atoms: N_10  and  C_11
REMARK    6  A    between atoms: C_14  and  C_15
REMARK    7  A    between atoms: C_15  and  N_16
REMARK    8  A    between atoms: C_17  and  C_19
REMARK                            x       y       z     vdW  Elec       q    Type
REMARK                         _______ _______ _______ _____ _____    ______ ____
ROOT
ATOM      1  C   UNL     1      45.595   7.145  11.551  0.00  0.00    +0.000 A 
ATOM      2  C   UNL     1      46.861   6.556  11.693  0.00  0.00    +0.000 A 
ATOM      3  C   UNL     1      47.768   7.000  12.666  0.00  0.00    +0.000 A 
ATOM      4  C   UNL     1      47.436   8.064  13.510  0.00  0.00    +0.000 A 
ATOM      5  C   UNL     1      46.223   8.724  13.301  0.00  0.00    +0.000 A 
ATOM      6  C   UNL     1      45.325   8.276  12.328  0.00  0.00    +0.000 A 
ENDROOT
BRANCH   1   7
ATOM      7  N   UNL     1      44.719   6.676  10.559  0.00  0.00    +0.000 N 
ATOM      8  H   UNL     1      45.179   6.642   9.651  0.00  0.00    +0.000 HD
BRANCH   7   9
ATOM      9  C   UNL     1      44.014   5.415  10.822  0.00  0.00    +0.000 C 
BRANCH   9  15
ATOM     10  C   UNL     1      44.190   2.973  10.071  0.00  0.00    +0.000 A 
ATOM     11  C   UNL     1      44.745   2.012   9.219  0.00  0.00    +0.000 A 
ATOM     12  C   UNL     1      45.632   2.386   8.205  0.00  0.00    +0.000 A 
ATOM     13  C   UNL     1      45.965   3.724   8.027  0.00  0.00    +0.000 A 
ATOM     14  C   UNL     1      45.431   4.686   8.880  0.00  0.00    +0.000 A 
ATOM     15  C   UNL     1      44.554   4.325   9.920  0.00  0.00    +0.000 A 
BRANCH  10  17
ATOM     16  C   UNL     1      43.691   2.739  12.393  0.00  0.00    +0.000 C 
ATOM     17  O   UNL     1      43.259   2.699  11.039  0.00  0.00    +0.000 OA
ENDBRANCH  10  17
ENDBRANCH   9  15
ENDBRANCH   7   9
ENDBRANCH   1   7
BRANCH   4  18
ATOM     18  C   UNL     1      48.360   8.524  14.606  0.00  0.00    +0.000 C 
BRANCH  18  19
ATOM     19  N   UNL     1      48.184   7.758  15.811  0.00  0.00    +0.000 N 
ATOM     20  C   UNL     1      49.075   6.772  16.153  0.00  0.00    +0.000 C 
ATOM     21  O   UNL     1      50.076   6.540  15.480  0.00  0.00    +0.000 OA
ATOM     22  H   UNL     1      47.261   7.768  16.236  0.00  0.00    +0.000 HD
BRANCH  20  23
ATOM     23  C   UNL     1      48.807   6.045  17.400  0.00  0.00    +0.000 A 
ATOM     24  C   UNL     1      48.998   4.671  17.447  0.00  0.00    +0.000 A 
ATOM     25  S   UNL     1      48.701   3.992  18.983  0.00  0.00    +0.000 S 
ATOM     26  C   UNL     1      48.252   5.503  19.623  0.00  0.00    +0.000 A 
ATOM     27  N   UNL     1      47.860   5.625  20.920  0.00  0.00    +0.000 NA
ATOM     28  C   UNL     1      47.523   6.822  21.266  0.00  0.00    +0.000 A 
ATOM     29  N   UNL     1      47.546   7.911  20.435  0.00  0.00    +0.000 N 
ATOM     30  C   UNL     1      47.960   7.843  19.126  0.00  0.00    +0.000 A 
ATOM     31  O   UNL     1      47.997   8.841  18.415  0.00  0.00    +0.000 OA
ATOM     32  C   UNL     1      48.345   6.516  18.684  0.00  0.00    +0.000 A 
ATOM     33  H   UNL     1      47.274   8.824  20.766  0.00  0.00    +0.000 HD
ENDBRANCH  20  23
ENDBRANCH  18  19
ENDBRANCH   4  18
TORSDOF 7
ENDMDL
MODEL 4
REMARK VINA RESULT:    -7.437      2.430      3.489
REMARK INTER + INTRA:         -11.226
REMARK INTER:                 -10.087
REMARK INTRA:                  -1.139
REMARK UNBOUND:                -0.746
REMARK  Name = 
REMARK  8 active torsions:
REMARK  status: ('A' for Active; 'I' for Inactive)
REMARK    1  A    between atoms: C_1  and  O_2
REMARK    2  A    between atoms: O_2  and  C_3
REMARK    3  A    between atoms: C_8  and  C_9
REMARK    4  A    between atoms: C_9  and  N_10
REMARK    5  A    between atoms: N_10  and  C_11
REMARK    6  A    between atoms: C_14  and  C_15
REMARK    7  A    between atoms: C_15  and  N_16
REMARK    8  A    between atoms: C_17  and  C_19
REMARK                            x       y       z     vdW  Elec       q    Type
REMARK                         _______ _______ _______ _____ _____    ______ ____
ROOT
ATOM      1  C   UNL     1      45.062   5.678  12.504  0.00  0.00    +0.000 A 
ATOM      2  C   UNL     1      45.451   7.025  12.451  0.00  0.00    +0.000 A 
ATOM      3  C   UNL     1      46.638   7.467  13.054  0.00  0.00    +0.000 A 
ATOM      4  C   UNL     1      47.457   6.570  13.747  0.00  0.00    +0.000 A 
ATOM      5  C   UNL     1      47.020   5.252  13.895  0.00  0.00    +0.000 A 
ATOM      6  C   UNL     1      45.835   4.820  13.292  0.00  0.00    +0.000 A 
ENDROOT
BRANCH   1   7
ATOM      7  N   UNL     1      43.863   5.278  11.894  0.00  0.00    +0.000 N 
ATOM      8  H   UNL     1      43.058   5.682  12.369  0.00  0.00    +0.000 HD
BRANCH   7   9
ATOM      9  C   UNL     1      43.747   5.469  10.442  0.00  0.00    +0.000 C 
BRANCH   9  15
ATOM     10  C   UNL     1      44.161   2.981  10.002  0.00  0.00    +0.000 A 
ATOM     11  C   UNL     1      44.851   1.978   9.311  0.00  0.00    +0.000 A 
ATOM     12  C   UNL     1      45.784   2.306   8.324  0.00  0.00    +0.000 A 
ATOM     13  C   UNL     1      46.030   3.638   8.010  0.00  0.00    +0.000 A 
ATOM     14  C   UNL     1      45.362   4.643   8.703  0.00  0.00    +0.000 A 
ATOM     15  C   UNL     1      44.435   4.331   9.716  0.00  0.00    +0.000 A 
BRANCH  10  17
ATOM     16  C   UNL     1      43.565   2.102  12.140  0.00  0.00    +0.000 C 
ATOM     17  O   UNL     1      43.181   2.742  10.929  0.00  0.00    +0.000 OA
ENDBRANCH  10  17
ENDBRANCH   9  15
ENDBRANCH   7   9
ENDBRANCH   1   7
BRANCH   4  18
ATOM     18  C   UNL     1      48.767   6.998  14.351  0.00  0.00    +0.000 C 
BRANCH  18  19
ATOM     19  N   UNL     1      48.657   7.213  15.770  0.00  0.00    +0.000 N 
ATOM     20  C   UNL     1      49.464   6.533  16.646  0.00  0.00    +0.000 C 
ATOM     21  O   UNL     1      50.338   5.761  16.260  0.00  0.00    +0.000 OA
ATOM     22  H   UNL     1      47.804   7.648  16.107  0.00  0.00    +0.000 HD
BRANCH  20  23
ATOM     23  C   UNL     1      49.274   6.820  18.074  0.00  0.00    +0.000 A 
ATOM     24  C   UNL     1      49.402   8.122  18.535  0.00  0.00    +0.000 A 
ATOM     25  S   UNL     1      49.092   8.292  20.203  0.00  0.00    +0.000 S 
ATOM     26  C   UNL     1      48.831   6.619  20.378  0.00  0.00    +0.000 A 
ATOM     27  N   UNL     1      48.532   6.081  21.591  0.00  0.00    +0.000 NA
ATOM     28  C   UNL     1      48.384   4.799  21.584  0.00  0.00    +0.000 A 
ATOM     29  N   UNL     1      48.505   4.004  20.475  0.00  0.00    +0.000 N 
ATOM     30  C   UNL     1      48.781   4.504  19.224  0.00  0.00    +0.000 A 
ATOM     31  O   UNL     1      48.853   3.771  18.245  0.00  0.00    +0.000 OA
ATOM     32  C   UNL     1      48.960   5.943  19.177  0.00  0.00    +0.000 A 
ATOM     33  H   UNL     1      48.375   3.005  20.533  0.00  0.00    +0.000 HD
ENDBRANCH  20  23
ENDBRANCH  18  19
ENDBRANCH   4  18
TORSDOF 7
ENDMDL
MODEL 5
REMARK VINA RESULT:    -7.356      3.612      8.252
REMARK INTER + INTRA:         -11.112
REMARK INTER:                  -9.895
REMARK INTRA:                  -1.217
REMARK UNBOUND:                -0.746
REMARK  Name = 
REMARK  8 active torsions:
REMARK  status: ('A' for Active; 'I' for Inactive)
REMARK    1  A    between atoms: C_1  and  O_2
REMARK    2  A    between atoms: O_2  and  C_3
REMARK    3  A    between atoms: C_8  and  C_9
REMARK    4  A    between atoms: C_9  and  N_10
REMARK    5  A    between atoms: N_10  and  C_11
REMARK    6  A    between atoms: C_14  and  C_15
REMARK    7  A    between atoms: C_15  and  N_16
REMARK    8  A    between atoms: C_17  and  C_19
REMARK                            x       y       z     vdW  Elec       q    Type
REMARK                         _______ _______ _______ _____ _____    ______ ____
ROOT
ATOM      1  C   UNL     1      50.020   6.985  15.995  0.00  0.00    +0.000 A 
ATOM      2  C   UNL     1      50.831   7.567  15.009  0.00  0.00    +0.000 A 
ATOM      3  C   UNL     1      50.324   7.883  13.740  0.00  0.00    +0.000 A 
ATOM      4  C   UNL     1      48.992   7.602  13.420  0.00  0.00    +0.000 A 
ATOM      5  C   UNL     1      48.213   6.923  14.359  0.00  0.00    +0.000 A 
ATOM      6  C   UNL     1      48.726   6.611  15.621  0.00  0.00    +0.000 A 
ENDROOT
BRANCH   1   7
ATOM      7  N   UNL     1      50.569   6.677  17.250  0.00  0.00    +0.000 N 
ATOM      8  H   UNL     1      50.743   7.521  17.791  0.00  0.00    +0.000 HD
BRANCH   7   9
ATOM      9  C   UNL     1      49.864   5.682  18.070  0.00  0.00    +0.000 C 
BRANCH   9  15
ATOM     10  C   UNL     1      49.692   3.261  17.253  0.00  0.00    +0.000 A 
ATOM     11  C   UNL     1      50.283   2.006  17.073  0.00  0.00    +0.000 A 
ATOM     12  C   UNL     1      51.618   1.789  17.428  0.00  0.00    +0.000 A 
ATOM     13  C   UNL     1      52.378   2.828  17.954  0.00  0.00    +0.000 A 
ATOM     14  C   UNL     1      51.794   4.076  18.152  0.00  0.00    +0.000 A 
ATOM     15  C   UNL     1      50.445   4.305  17.822  0.00  0.00    +0.000 A 
BRANCH  10  17
ATOM     16  C   UNL     1      47.350   2.867  17.486  0.00  0.00    +0.000 C 
ATOM     17  O   UNL     1      48.415   3.574  16.864  0.00  0.00    +0.000 OA
ENDBRANCH  10  17
ENDBRANCH   9  15
ENDBRANCH   7   9
ENDBRANCH   1   7
BRANCH   4  18
ATOM     18  C   UNL     1      48.400   7.985  12.090  0.00  0.00    +0.000 C 
BRANCH  18  19
ATOM     19  N   UNL     1      47.682   6.892  11.489  0.00  0.00    +0.000 N 
ATOM     20  C   UNL     1      46.311   6.879  11.472  0.00  0.00    +0.000 C 
ATOM     21  O   UNL     1      45.646   7.812  11.916  0.00  0.00    +0.000 OA
ATOM     22  H   UNL     1      48.194   6.027  11.343  0.00  0.00    +0.000 HD
BRANCH  20  23
ATOM     23  C   UNL     1      45.671   5.719  10.838  0.00  0.00    +0.000 A 
ATOM     24  C   UNL     1      45.798   5.529   9.469  0.00  0.00    +0.000 A 
ATOM     25  S   UNL     1      45.048   4.106   8.904  0.00  0.00    +0.000 S 
ATOM     26  C   UNL     1      44.478   3.724  10.461  0.00  0.00    +0.000 A 
ATOM     27  N   UNL     1      43.729   2.609  10.679  0.00  0.00    +0.000 NA
ATOM     28  C   UNL     1      43.344   2.455  11.901  0.00  0.00    +0.000 A 
ATOM     29  N   UNL     1      43.640   3.312  12.927  0.00  0.00    +0.000 N 
ATOM     30  C   UNL     1      44.414   4.437  12.763  0.00  0.00    +0.000 A 
ATOM     31  O   UNL     1      44.686   5.169  13.707  0.00  0.00    +0.000 OA
ATOM     32  C   UNL     1      44.870   4.659  11.403  0.00  0.00    +0.000 A 
ATOM     33  H   UNL     1      43.311   3.135  13.865  0.00  0.00    +0.000 HD
ENDBRANCH  20  23
ENDBRANCH  18  19
ENDBRANCH   4  18
TORSDOF 7
ENDMDL
MODEL 6
REMARK VINA RESULT:    -7.194      3.168      8.684
REMARK INTER + INTRA:         -10.884
REMARK INTER:                  -9.114
REMARK INTRA:                  -1.770
REMARK UNBOUND:                -0.746
REMARK  Name = 
REMARK  8 active torsions:
REMARK  status: ('A' for Active; 'I' for Inactive)
REMARK    1  A    between atoms: C_1  and  O_2
REMARK    2  A    between atoms: O_2  and  C_3
REMARK    3  A    between atoms: C_8  and  C_9
REMARK    4  A    between atoms: C_9  and  N_10
REMARK    5  A    between atoms: N_10  and  C_11
REMARK    6  A    between atoms: C_14  and  C_15
REMARK    7  A    between atoms: C_15  and  N_16
REMARK    8  A    between atoms: C_17  and  C_19
REMARK                            x       y       z     vdW  Elec       q    Type
REMARK                         _______ _______ _______ _____ _____    ______ ____
ROOT
ATOM      1  C   UNL     1      49.440   7.940  15.915  0.00  0.00    +0.000 A 
ATOM      2  C   UNL     1      48.325   8.744  15.632  0.00  0.00    +0.000 A 
ATOM      3  C   UNL     1      47.736   8.754  14.358  0.00  0.00    +0.000 A 
ATOM      4  C   UNL     1      48.266   7.972  13.328  0.00  0.00    +0.000 A 
ATOM      5  C   UNL     1      49.439   7.256  13.574  0.00  0.00    +0.000 A 
ATOM      6  C   UNL     1      50.020   7.252  14.845  0.00  0.00    +0.000 A 
ENDROOT
BRANCH   1   7
ATOM      7  N   UNL     1      50.004   7.966  17.200  0.00  0.00    +0.000 N 
ATOM      8  H   UNL     1      50.256   8.914  17.471  0.00  0.00    +0.000 HD
BRANCH   7   9
ATOM      9  C   UNL     1      49.255   7.308  18.279  0.00  0.00    +0.000 C 
BRANCH   9  15
ATOM     10  C   UNL     1      50.136   4.932  17.912  0.00  0.00    +0.000 A 
ATOM     11  C   UNL     1      49.891   3.595  17.580  0.00  0.00    +0.000 A 
ATOM     12  C   UNL     1      48.591   3.151  17.319  0.00  0.00    +0.000 A 
ATOM     13  C   UNL     1      47.522   4.037  17.396  0.00  0.00    +0.000 A 
ATOM     14  C   UNL     1      47.757   5.373  17.710  0.00  0.00    +0.000 A 
ATOM     15  C   UNL     1      49.062   5.841  17.953  0.00  0.00    +0.000 A 
BRANCH  10  17
ATOM     16  C   UNL     1      52.042   4.813  19.343  0.00  0.00    +0.000 C 
ATOM     17  O   UNL     1      51.367   5.428  18.253  0.00  0.00    +0.000 OA
ENDBRANCH  10  17
ENDBRANCH   9  15
ENDBRANCH   7   9
ENDBRANCH   1   7
BRANCH   4  18
ATOM     18  C   UNL     1      47.621   7.911  11.969  0.00  0.00    +0.000 C 
BRANCH  18  19
ATOM     19  N   UNL     1      46.945   6.659  11.753  0.00  0.00    +0.000 N 
ATOM     20  C   UNL     1      45.577   6.579  11.829  0.00  0.00    +0.000 C 
ATOM     21  O   UNL     1      44.879   7.570  12.030  0.00  0.00    +0.000 OA
ATOM     22  H   UNL     1      47.501   5.813  11.827  0.00  0.00    +0.000 HD
BRANCH  20  23
ATOM     23  C   UNL     1      44.981   5.258  11.595  0.00  0.00    +0.000 A 
ATOM     24  C   UNL     1      44.301   4.621  12.624  0.00  0.00    +0.000 A 
ATOM     25  S   UNL     1      43.619   3.126  12.171  0.00  0.00    +0.000 S 
ATOM     26  C   UNL     1      44.257   3.251  10.599  0.00  0.00    +0.000 A 
ATOM     27  N   UNL     1      44.052   2.269   9.679  0.00  0.00    +0.000 NA
ATOM     28  C   UNL     1      44.613   2.482   8.537  0.00  0.00    +0.000 A 
ATOM     29  N   UNL     1      45.358   3.589   8.226  0.00  0.00    +0.000 N 
ATOM     30  C   UNL     1      45.572   4.618   9.111  0.00  0.00    +0.000 A 
ATOM     31  O   UNL     1      46.219   5.609   8.795  0.00  0.00    +0.000 OA
ATOM     32  C   UNL     1      44.965   4.426  10.415  0.00  0.00    +0.000 A 
ATOM     33  H   UNL     1      45.770   3.699   7.311  0.00  0.00    +0.000 HD
ENDBRANCH  20  23
ENDBRANCH  18  19
ENDBRANCH   4  18
TORSDOF 7
ENDMDL
MODEL 7
REMARK VINA RESULT:    -7.159      3.151      5.532
REMARK INTER + INTRA:         -10.835
REMARK INTER:                  -9.747
REMARK INTRA:                  -1.088
REMARK UNBOUND:                -0.746
REMARK  Name = 
REMARK  8 active torsions:
REMARK  status: ('A' for Active; 'I' for Inactive)
REMARK    1  A    between atoms: C_1  and  O_2
REMARK    2  A    between atoms: O_2  and  C_3
REMARK    3  A    between atoms: C_8  and  C_9
REMARK    4  A    between atoms: C_9  and  N_10
REMARK    5  A    between atoms: N_10  and  C_11
REMARK    6  A    between atoms: C_14  and  C_15
REMARK    7  A    between atoms: C_15  and  N_16
REMARK    8  A    between atoms: C_17  and  C_19
REMARK                            x       y       z     vdW  Elec       q    Type
REMARK                         _______ _______ _______ _____ _____    ______ ____
ROOT
ATOM      1  C   UNL     1      47.484   5.734  13.434  0.00  0.00    +0.000 A 
ATOM      2  C   UNL     1      48.062   6.339  14.561  0.00  0.00    +0.000 A 
ATOM      3  C   UNL     1      48.147   5.665  15.789  0.00  0.00    +0.000 A 
ATOM      4  C   UNL     1      47.633   4.372  15.923  0.00  0.00    +0.000 A 
ATOM      5  C   UNL     1      46.960   3.809  14.837  0.00  0.00    +0.000 A 
ATOM      6  C   UNL     1      46.879   4.487  13.617  0.00  0.00    +0.000 A 
ENDROOT
BRANCH   1   7
ATOM      7  N   UNL     1      47.412   6.446  12.226  0.00  0.00    +0.000 N 
ATOM      8  H   UNL     1      47.920   5.965  11.487  0.00  0.00    +0.000 HD
BRANCH   7   9
ATOM      9  C   UNL     1      46.078   6.842  11.755  0.00  0.00    +0.000 C 
BRANCH   9  15
ATOM     10  C   UNL     1      44.436   5.041  10.968  0.00  0.00    +0.000 A 
ATOM     11  C   UNL     1      44.037   4.117   9.996  0.00  0.00    +0.000 A 
ATOM     12  C   UNL     1      44.737   4.002   8.792  0.00  0.00    +0.000 A 
ATOM     13  C   UNL     1      45.837   4.815   8.543  0.00  0.00    +0.000 A 
ATOM     14  C   UNL     1      46.252   5.726   9.510  0.00  0.00    +0.000 A 
ATOM     15  C   UNL     1      45.572   5.839  10.738  0.00  0.00    +0.000 A 
BRANCH  10  17
ATOM     16  C   UNL     1      42.360   5.494  12.055  0.00  0.00    +0.000 C 
ATOM     17  O   UNL     1      43.761   5.267  12.139  0.00  0.00    +0.000 OA
ENDBRANCH  10  17
ENDBRANCH   9  15
ENDBRANCH   7   9
ENDBRANCH   1   7
BRANCH   4  18
ATOM     18  C   UNL     1      47.764   3.598  17.208  0.00  0.00    +0.000 C 
BRANCH  18  19
ATOM     19  N   UNL     1      49.141   3.386  17.567  0.00  0.00    +0.000 N 
ATOM     20  C   UNL     1      49.873   2.387  16.975  0.00  0.00    +0.000 C 
ATOM     21  O   UNL     1      49.406   1.677  16.089  0.00  0.00    +0.000 OA
ATOM     22  H   UNL     1      49.459   3.788  18.443  0.00  0.00    +0.000 HD
BRANCH  20  23
ATOM     23  C   UNL     1      51.268   2.248  17.410  0.00  0.00    +0.000 A 
ATOM     24  C   UNL     1      51.796   0.982  17.625  0.00  0.00    +0.000 A 
ATOM     25  S   UNL     1      53.443   0.994  18.067  0.00  0.00    +0.000 S 
ATOM     26  C   UNL     1      53.492   2.695  18.042  0.00  0.00    +0.000 A 
ATOM     27  N   UNL     1      54.635   3.367  18.350  0.00  0.00    +0.000 NA
ATOM     28  C   UNL     1      54.524   4.652  18.316  0.00  0.00    +0.000 A 
ATOM     29  N   UNL     1      53.376   5.329  17.999  0.00  0.00    +0.000 N 
ATOM     30  C   UNL     1      52.205   4.696  17.657  0.00  0.00    +0.000 A 
ATOM     31  O   UNL     1      51.202   5.329  17.349  0.00  0.00    +0.000 OA
ATOM     32  C   UNL     1      52.275   3.247  17.683  0.00  0.00    +0.000 A 
ATOM     33  H   UNL     1      53.353   6.338  17.987  0.00  0.00    +0.000 HD
ENDBRANCH  20  23
ENDBRANCH  18  19
ENDBRANCH   4  18
TORSDOF 7
ENDMDL
MODEL 8
REMARK VINA RESULT:    -7.059      3.085      8.696
REMARK INTER + INTRA:         -10.694
REMARK INTER:                  -9.480
REMARK INTRA:                  -1.213
REMARK UNBOUND:                -0.746
REMARK  Name = 
REMARK  8 active torsions:
REMARK  status: ('A' for Active; 'I' for Inactive)
REMARK    1  A    between atoms: C_1  and  O_2
REMARK    2  A    between atoms: O_2  and  C_3
REMARK    3  A    between atoms: C_8  and  C_9
REMARK    4  A    between atoms: C_9  and  N_10
REMARK    5  A    between atoms: N_10  and  C_11
REMARK    6  A    between atoms: C_14  and  C_15
REMARK    7  A    between atoms: C_15  and  N_16
REMARK    8  A    between atoms: C_17  and  C_19
REMARK                            x       y       z     vdW  Elec       q    Type
REMARK                         _______ _______ _______ _____ _____    ______ ____
ROOT
ATOM      1  C   UNL     1      50.357   6.900  15.704  0.00  0.00    +0.000 A 
ATOM      2  C   UNL     1      49.009   6.515  15.744  0.00  0.00    +0.000 A 
ATOM      3  C   UNL     1      48.146   6.760  14.665  0.00  0.00    +0.000 A 
ATOM      4  C   UNL     1      48.611   7.419  13.523  0.00  0.00    +0.000 A 
ATOM      5  C   UNL     1      49.922   7.901  13.523  0.00  0.00    +0.000 A 
ATOM      6  C   UNL     1      50.775   7.653  14.603  0.00  0.00    +0.000 A 
ENDROOT
BRANCH   1   7
ATOM      7  N   UNL     1      51.185   6.642  16.808  0.00  0.00    +0.000 N 
ATOM      8  H   UNL     1      51.554   7.507  17.199  0.00  0.00    +0.000 HD
BRANCH   7   9
ATOM      9  C   UNL     1      50.642   5.791  17.875  0.00  0.00    +0.000 C 
BRANCH   9  15
ATOM     10  C   UNL     1      50.589   3.277  17.392  0.00  0.00    +0.000 A 
ATOM     11  C   UNL     1      51.239   2.037  17.389  0.00  0.00    +0.000 A 
ATOM     12  C   UNL     1      52.577   1.933  17.779  0.00  0.00    +0.000 A 
ATOM     13  C   UNL     1      53.283   3.067  18.165  0.00  0.00    +0.000 A 
ATOM     14  C   UNL     1      52.641   4.302  18.188  0.00  0.00    +0.000 A 
ATOM     15  C   UNL     1      51.287   4.422  17.821  0.00  0.00    +0.000 A 
BRANCH  10  17
ATOM     16  C   UNL     1      48.251   3.120  17.842  0.00  0.00    +0.000 C 
ATOM     17  O   UNL     1      49.306   3.475  16.956  0.00  0.00    +0.000 OA
ENDBRANCH  10  17
ENDBRANCH   9  15
ENDBRANCH   7   9
ENDBRANCH   1   7
BRANCH   4  18
ATOM     18  C   UNL     1      47.730   7.642  12.324  0.00  0.00    +0.000 C 
BRANCH  18  19
ATOM     19  N   UNL     1      47.021   6.446  11.951  0.00  0.00    +0.000 N 
ATOM     20  C   UNL     1      45.662   6.359  12.110  0.00  0.00    +0.000 C 
ATOM     21  O   UNL     1      44.993   7.303  12.523  0.00  0.00    +0.000 OA
ATOM     22  H   UNL     1      47.569   5.598  11.843  0.00  0.00    +0.000 HD
BRANCH  20  23
ATOM     23  C   UNL     1      45.031   5.097  11.703  0.00  0.00    +0.000 A 
ATOM     24  C   UNL     1      44.307   4.362  12.631  0.00  0.00    +0.000 A 
ATOM     25  S   UNL     1      43.590   2.957  11.982  0.00  0.00    +0.000 S 
ATOM     26  C   UNL     1      44.270   3.253  10.451  0.00  0.00    +0.000 A 
ATOM     27  N   UNL     1      44.057   2.399   9.413  0.00  0.00    +0.000 NA
ATOM     28  C   UNL     1      44.653   2.732   8.317  0.00  0.00    +0.000 A 
ATOM     29  N   UNL     1      45.439   3.843   8.161  0.00  0.00    +0.000 N 
ATOM     30  C   UNL     1      45.663   4.748   9.171  0.00  0.00    +0.000 A 
ATOM     31  O   UNL     1      46.348   5.748   8.993  0.00  0.00    +0.000 OA
ATOM     32  C   UNL     1      45.018   4.418  10.429  0.00  0.00    +0.000 A 
ATOM     33  H   UNL     1      45.876   4.051   7.276  0.00  0.00    +0.000 HD
ENDBRANCH  20  23
ENDBRANCH  18  19
ENDBRANCH   4  18
TORSDOF 7
ENDMDL
MODEL 9
REMARK VINA RESULT:    -7.034      4.060      8.244
REMARK INTER + INTRA:         -10.658
REMARK INTER:                  -8.885
REMARK INTRA:                  -1.773
REMARK UNBOUND:                -0.746
REMARK  Name = 
REMARK  8 active torsions:
REMARK  status: ('A' for Active; 'I' for Inactive)
REMARK    1  A    between atoms: C_1  and  O_2
REMARK    2  A    between atoms: O_2  and  C_3
REMARK    3  A    between atoms: C_8  and  C_9
REMARK    4  A    between atoms: C_9  and  N_10
REMARK    5  A    between atoms: N_10  and  C_11
REMARK    6  A    between atoms: C_14  and  C_15
REMARK    7  A    between atoms: C_15  and  N_16
REMARK    8  A    between atoms: C_17  and  C_19
REMARK                            x       y       z     vdW  Elec       q    Type
REMARK                         _______ _______ _______ _____ _____    ______ ____
ROOT
ATOM      1  C   UNL     1      49.539   7.275  17.584  0.00  0.00    +0.000 A 
ATOM      2  C   UNL     1      48.576   8.294  17.619  0.00  0.00    +0.000 A 
ATOM      3  C   UNL     1      48.067   8.858  16.439  0.00  0.00    +0.000 A 
ATOM      4  C   UNL     1      48.530   8.428  15.192  0.00  0.00    +0.000 A 
ATOM      5  C   UNL     1      49.567   7.492  15.155  0.00  0.00    +0.000 A 
ATOM      6  C   UNL     1      50.068   6.936  16.336  0.00  0.00    +0.000 A 
ENDROOT
BRANCH   1   7
ATOM      7  N   UNL     1      50.028   6.743  18.788  0.00  0.00    +0.000 N 
ATOM      8  H   UNL     1      50.281   7.483  19.440  0.00  0.00    +0.000 HD
BRANCH   7   9
ATOM      9  C   UNL     1      49.206   5.728  19.461  0.00  0.00    +0.000 C 
BRANCH   9  15
ATOM     10  C   UNL     1      49.990   3.702  18.106  0.00  0.00    +0.000 A 
ATOM     11  C   UNL     1      49.697   2.658  17.221  0.00  0.00    +0.000 A 
ATOM     12  C   UNL     1      48.389   2.447  16.777  0.00  0.00    +0.000 A 
ATOM     13  C   UNL     1      47.359   3.270  17.219  0.00  0.00    +0.000 A 
ATOM     14  C   UNL     1      47.643   4.322  18.087  0.00  0.00    +0.000 A 
ATOM     15  C   UNL     1      48.959   4.563  18.526  0.00  0.00    +0.000 A 
BRANCH  10  17
ATOM     16  C   UNL     1      52.359   3.678  17.818  0.00  0.00    +0.000 C 
ATOM     17  O   UNL     1      51.229   3.930  18.645  0.00  0.00    +0.000 OA
ENDBRANCH  10  17
ENDBRANCH   9  15
ENDBRANCH   7   9
ENDBRANCH   1   7
BRANCH   4  18
ATOM     18  C   UNL     1      47.961   8.967  13.907  0.00  0.00    +0.000 C 
BRANCH  18  19
ATOM     19  N   UNL     1      46.775   8.255  13.506  0.00  0.00    +0.000 N 
ATOM     20  C   UNL     1      46.837   7.274  12.550  0.00  0.00    +0.000 C 
ATOM     21  O   UNL     1      47.900   6.929  12.040  0.00  0.00    +0.000 OA
ATOM     22  H   UNL     1      45.882   8.681  13.731  0.00  0.00    +0.000 HD
BRANCH  20  23
ATOM     23  C   UNL     1      45.575   6.608  12.208  0.00  0.00    +0.000 A 
ATOM     24  C   UNL     1      44.533   7.348  11.666  0.00  0.00    +0.000 A 
ATOM     25  S   UNL     1      43.163   6.414  11.270  0.00  0.00    +0.000 S 
ATOM     26  C   UNL     1      43.893   4.996  11.862  0.00  0.00    +0.000 A 
ATOM     27  N   UNL     1      43.233   3.806  11.835  0.00  0.00    +0.000 NA
ATOM     28  C   UNL     1      43.895   2.818  12.338  0.00  0.00    +0.000 A 
ATOM     29  N   UNL     1      45.157   2.909  12.863  0.00  0.00    +0.000 N 
ATOM     30  C   UNL     1      45.873   4.082  12.889  0.00  0.00    +0.000 A 
ATOM     31  O   UNL     1      47.012   4.126  13.338  0.00  0.00    +0.000 OA
ATOM     32  C   UNL     1      45.172   5.227  12.338  0.00  0.00    +0.000 A 
ATOM     33  H   UNL     1      45.623   2.098  13.240  0.00  0.00    +0.000 HD
ENDBRANCH  20  23
ENDBRANCH  18  19
ENDBRANCH   4  18
TORSDOF 7
ENDMDL
