MODEL 1
REMARK VINA RESULT:    -8.157      0.000      0.000
REMARK INTER + INTRA:         -14.382
REMARK INTER:                 -12.687
REMARK INTRA:                  -1.695
REMARK UNBOUND:                -1.695
REMARK  Name = 
REMARK  10 active torsions:
REMARK  status: ('A' for Active; 'I' for Inactive)
REMARK    1  A    between atoms: C_2  and  C_23
REMARK    2  A    between atoms: N_3  and  C_4
REMARK    3  A    between atoms: C_4  and  C_5
REMARK    4  A    between atoms: C_8  and  C_9
REMARK    5  A    between atoms: C_9  and  N_10
REMARK    6  A    between atoms: N_10  and  C_11
REMARK    7  A    between atoms: N_10  and  C_14
REMARK    8  A    between atoms: C_11  and  C_12
REMARK    9  A    between atoms: C_12  and  O_13
REMARK   10  A    between atoms: C_14  and  C_15
REMARK                            x       y       z     vdW  Elec       q    Type
REMARK                         _______ _______ _______ _____ _____    ______ ____
ROOT
ATOM      1  C   UNL     1      46.777   7.874  12.844  0.00  0.00    +0.000 A 
ATOM      2  C   UNL     1      47.294   6.875  12.017  0.00  0.00    +0.000 A 
ATOM      3  C   UNL     1      46.424   6.145  11.211  0.00  0.00    +0.000 A 
ATOM      4  C   UNL     1      45.052   6.392  11.270  0.00  0.00    +0.000 A 
ATOM      5  C   UNL     1      44.627   7.430  12.094  0.00  0.00    +0.000 A 
ATOM      6  N   UNL     1      45.449   8.161  12.882  0.00  0.00    +0.000 NA
ENDROOT
BRANCH   1   7
ATOM      7  C   UNL     1      47.677   8.599  13.816  0.00  0.00    +0.000 C 
BRANCH   7  10
ATOM      8  O   UNL     1      50.158   7.391  14.408  0.00  0.00    +0.000 OA
ATOM      9  C   UNL     1      49.196   7.177  15.146  0.00  0.00    +0.000 C 
ATOM     10  N   UNL     1      47.980   7.784  14.973  0.00  0.00    +0.000 N 
ATOM     11  H   UNL     1      47.205   7.560  15.580  0.00  0.00    +0.000 HD
BRANCH   9  12
ATOM     12  C   UNL     1      49.294   6.309  16.318  0.00  0.00    +0.000 A 
ATOM     13  C   UNL     1      50.187   6.577  17.342  0.00  0.00    +0.000 A 
ATOM     14  S   UNL     1      50.050   5.491  18.656  0.00  0.00    +0.000 S 
ATOM     15  C   UNL     1      48.827   4.606  17.870  0.00  0.00    +0.000 A 
ATOM     16  N   UNL     1      48.230   3.538  18.466  0.00  0.00    +0.000 NA
ATOM     17  C   UNL     1      47.332   2.962  17.737  0.00  0.00    +0.000 A 
ATOM     18  N   UNL     1      46.989   3.335  16.465  0.00  0.00    +0.000 N 
ATOM     19  C   UNL     1      47.597   4.377  15.807  0.00  0.00    +0.000 A 
ATOM     20  O   UNL     1      47.319   4.648  14.644  0.00  0.00    +0.000 OA
ATOM     21  C   UNL     1      48.557   5.106  16.611  0.00  0.00    +0.000 A 
ATOM     22  H   UNL     1      46.294   2.825  15.936  0.00  0.00    +0.000 HD
ENDBRANCH   9  12
ENDBRANCH   7  10
ENDBRANCH   1   7
BRANCH   4  23
ATOM     23  C   UNL     1      44.063   5.514  10.538  0.00  0.00    +0.000 C 
BRANCH  23  24
ATOM     24  N   UNL     1      44.611   4.167  10.199  0.00  0.00    +0.000 NA
BRANCH  24  25
ATOM     25  C   UNL     1      43.879   3.117  10.964  0.00  0.00    +0.000 C 
BRANCH  25  26
ATOM     26  C   UNL     1      44.121   3.095  12.487  0.00  0.00    +0.000 C 
BRANCH  26  27
ATOM     27  O   UNL     1      45.486   2.842  12.804  0.00  0.00    +0.000 OA
ATOM     28  H   UNL     1      45.690   3.396  13.578  0.00  0.00    +0.000 HD
ENDBRANCH  26  27
ENDBRANCH  25  26
ENDBRANCH  24  25
BRANCH  24  29
ATOM     29  C   UNL     1      44.463   3.933   8.743  0.00  0.00    +0.000 C 
BRANCH  29  30
ATOM     30  C   UNL     1      45.601   3.185   8.070  0.00  0.00    +0.000 A 
ATOM     31  C   UNL     1      45.871   1.856   8.392  0.00  0.00    +0.000 A 
ATOM     32  C   UNL     1      46.838   1.172   7.662  0.00  0.00    +0.000 A 
ATOM     33  C   UNL     1      47.512   1.830   6.639  0.00  0.00    +0.000 A 
ATOM     34  C   UNL     1      47.202   3.158   6.401  0.00  0.00    +0.000 A 
ATOM     35  N   UNL     1      46.266   3.847   7.088  0.00  0.00    +0.000 NA
ENDBRANCH  29  30
ENDBRANCH  24  29
ENDBRANCH  23  24
ENDBRANCH   4  23
TORSDOF 10
ENDMDL
MODEL 2
REMARK VINA RESULT:    -7.325      1.836      2.226
REMARK INTER + INTRA:         -13.088
REMARK INTER:                 -11.774
REMARK INTRA:                  -1.314
REMARK UNBOUND:                -1.695
REMARK  Name = 
REMARK  10 active torsions:
REMARK  status: ('A' for Active; 'I' for Inactive)
REMARK    1  A    between atoms: C_2  and  C_23
REMARK    2  A    between atoms: N_3  and  C_4
REMARK    3  A    between atoms: C_4  and  C_5
REMARK    4  A    between atoms: C_8  and  C_9
REMARK    5  A    between atoms: C_9  and  N_10
REMARK    6  A    between atoms: N_10  and  C_11
REMARK    7  A    between atoms: N_10  and  C_14
REMARK    8  A    between atoms: C_11  and  C_12
REMARK    9  A    between atoms: C_12  and  O_13
REMARK   10  A    between atoms: C_14  and  C_15
REMARK                            x       y       z     vdW  Elec       q    Type
REMARK                         _______ _______ _______ _____ _____    ______ ____
ROOT
ATOM      1  C   UNL     1      47.311   7.626  13.308  0.00  0.00    +0.000 A 
ATOM      2  C   UNL     1      47.557   6.487  12.540  0.00  0.00    +0.000 A 
ATOM      3  C   UNL     1      46.557   6.007  11.699  0.00  0.00    +0.000 A 
ATOM      4  C   UNL     1      45.315   6.642  11.666  0.00  0.00    +0.000 A 
ATOM      5  C   UNL     1      45.167   7.792  12.435  0.00  0.00    +0.000 A 
ATOM      6  N   UNL     1      46.124   8.287  13.255  0.00  0.00    +0.000 NA
ENDROOT
BRANCH   1   7
ATOM      7  C   UNL     1      48.331   8.101  14.316  0.00  0.00    +0.000 C 
BRANCH   7  10
ATOM      8  O   UNL     1      50.340   6.609  15.620  0.00  0.00    +0.000 OA
ATOM      9  C   UNL     1      49.209   6.642  16.105  0.00  0.00    +0.000 C 
ATOM     10  N   UNL     1      48.199   7.403  15.577  0.00  0.00    +0.000 N 
ATOM     11  H   UNL     1      47.275   7.382  15.984  0.00  0.00    +0.000 HD
BRANCH   9  12
ATOM     12  C   UNL     1      48.868   5.926  17.333  0.00  0.00    +0.000 A 
ATOM     13  C   UNL     1      49.031   4.555  17.437  0.00  0.00    +0.000 A 
ATOM     14  S   UNL     1      48.671   3.950  18.995  0.00  0.00    +0.000 S 
ATOM     15  C   UNL     1      48.244   5.498  19.559  0.00  0.00    +0.000 A 
ATOM     16  N   UNL     1      47.862   5.703  20.848  0.00  0.00    +0.000 NA
ATOM     17  C   UNL     1      47.554   6.929  21.119  0.00  0.00    +0.000 A 
ATOM     18  N   UNL     1      47.570   7.963  20.222  0.00  0.00    +0.000 N 
ATOM     19  C   UNL     1      47.905   7.795  18.900  0.00  0.00    +0.000 A 
ATOM     20  O   UNL     1      47.846   8.724  18.103  0.00  0.00    +0.000 OA
ATOM     21  C   UNL     1      48.334   6.452  18.563  0.00  0.00    +0.000 A 
ATOM     22  H   UNL     1      47.293   8.897  20.491  0.00  0.00    +0.000 HD
ENDBRANCH   9  12
ENDBRANCH   7  10
ENDBRANCH   1   7
BRANCH   4  23
ATOM     23  C   UNL     1      44.154   6.057  10.896  0.00  0.00    +0.000 C 
BRANCH  23  24
ATOM     24  N   UNL     1      44.278   4.586  10.670  0.00  0.00    +0.000 NA
BRANCH  24  25
ATOM     25  C   UNL     1      43.246   3.864  11.467  0.00  0.00    +0.000 C 
BRANCH  25  26
ATOM     26  C   UNL     1      43.744   3.165  12.748  0.00  0.00    +0.000 C 
BRANCH  26  27
ATOM     27  O   UNL     1      45.016   2.554  12.559  0.00  0.00    +0.000 OA
ATOM     28  H   UNL     1      45.463   3.071  11.866  0.00  0.00    +0.000 HD
ENDBRANCH  26  27
ENDBRANCH  25  26
ENDBRANCH  24  25
BRANCH  24  29
ATOM     29  C   UNL     1      44.102   4.298   9.227  0.00  0.00    +0.000 C 
BRANCH  29  30
ATOM     30  C   UNL     1      45.220   3.513   8.563  0.00  0.00    +0.000 A 
ATOM     31  C   UNL     1      45.371   2.148   8.799  0.00  0.00    +0.000 A 
ATOM     32  C   UNL     1      46.328   1.445   8.073  0.00  0.00    +0.000 A 
ATOM     33  C   UNL     1      47.110   2.119   7.142  0.00  0.00    +0.000 A 
ATOM     34  C   UNL     1      46.914   3.480   6.988  0.00  0.00    +0.000 A 
ATOM     35  N   UNL     1      45.991   4.189   7.673  0.00  0.00    +0.000 NA
ENDBRANCH  29  30
ENDBRANCH  24  29
ENDBRANCH  23  24
ENDBRANCH   4  23
TORSDOF 10
ENDMDL
MODEL 3
REMARK VINA RESULT:    -7.162      1.364      1.454
REMARK INTER + INTRA:         -12.834
REMARK INTER:                 -11.569
REMARK INTRA:                  -1.265
REMARK UNBOUND:                -1.695
REMARK  Name = 
REMARK  10 active torsions:
REMARK  status: ('A' for Active; 'I' for Inactive)
REMARK    1  A    between atoms: C_2  and  C_23
REMARK    2  A    between atoms: N_3  and  C_4
REMARK    3  A    between atoms: C_4  and  C_5
REMARK    4  A    between atoms: C_8  and  C_9
REMARK    5  A    between atoms: C_9  and  N_10
REMARK    6  A    between atoms: N_10  and  C_11
REMARK    7  A    between atoms: N_10  and  C_14
REMARK    8  A    between atoms: C_11  and  C_12
REMARK    9  A    between atoms: C_12  and  O_13
REMARK   10  A    between atoms: C_14  and  C_15
REMARK                            x       y       z     vdW  Elec       q    Type
REMARK                         _______ _______ _______ _____ _____    ______ ____
ROOT
ATOM      1  C   UNL     1      47.547   8.207  13.068  0.00  0.00    +0.000 A 
ATOM      2  C   UNL     1      47.985   7.285  12.115  0.00  0.00    +0.000 A 
ATOM      3  C   UNL     1      47.043   6.542  11.409  0.00  0.00    +0.000 A 
ATOM      4  C   UNL     1      45.685   6.696  11.691  0.00  0.00    +0.000 A 
ATOM      5  C   UNL     1      45.335   7.663  12.628  0.00  0.00    +0.000 A 
ATOM      6  N   UNL     1      46.228   8.406  13.323  0.00  0.00    +0.000 NA
ENDROOT
BRANCH   1   7
ATOM      7  C   UNL     1      48.546   8.941  13.932  0.00  0.00    +0.000 C 
BRANCH   7  10
ATOM      8  O   UNL     1      47.745   9.326  16.610  0.00  0.00    +0.000 OA
ATOM      9  C   UNL     1      48.567   8.447  16.351  0.00  0.00    +0.000 C 
ATOM     10  N   UNL     1      48.951   8.146  15.071  0.00  0.00    +0.000 N 
ATOM     11  H   UNL     1      49.650   7.439  14.899  0.00  0.00    +0.000 HD
BRANCH   9  12
ATOM     12  C   UNL     1      49.151   7.599  17.389  0.00  0.00    +0.000 A 
ATOM     13  C   UNL     1      49.878   8.139  18.436  0.00  0.00    +0.000 A 
ATOM     14  S   UNL     1      50.371   6.972  19.585  0.00  0.00    +0.000 S 
ATOM     15  C   UNL     1      49.665   5.709  18.689  0.00  0.00    +0.000 A 
ATOM     16  N   UNL     1      49.693   4.423  19.132  0.00  0.00    +0.000 NA
ATOM     17  C   UNL     1      49.129   3.577  18.334  0.00  0.00    +0.000 A 
ATOM     18  N   UNL     1      48.560   3.889  17.129  0.00  0.00    +0.000 N 
ATOM     19  C   UNL     1      48.548   5.166  16.620  0.00  0.00    +0.000 A 
ATOM     20  O   UNL     1      48.092   5.407  15.508  0.00  0.00    +0.000 OA
ATOM     21  C   UNL     1      49.100   6.165  17.514  0.00  0.00    +0.000 A 
ATOM     22  H   UNL     1      48.156   3.176  16.537  0.00  0.00    +0.000 HD
ENDBRANCH   9  12
ENDBRANCH   7  10
ENDBRANCH   1   7
BRANCH   4  23
ATOM     23  C   UNL     1      44.645   5.793  11.068  0.00  0.00    +0.000 C 
BRANCH  23  24
ATOM     24  N   UNL     1      45.187   4.459  10.671  0.00  0.00    +0.000 NA
BRANCH  24  25
ATOM     25  C   UNL     1      44.831   3.443  11.702  0.00  0.00    +0.000 C 
BRANCH  25  26
ATOM     26  C   UNL     1      43.326   3.260  11.983  0.00  0.00    +0.000 C 
BRANCH  26  27
ATOM     27  O   UNL     1      42.868   1.967  11.600  0.00  0.00    +0.000 OA
ATOM     28  H   UNL     1      41.967   2.092  11.252  0.00  0.00    +0.000 HD
ENDBRANCH  26  27
ENDBRANCH  25  26
ENDBRANCH  24  25
BRANCH  24  29
ATOM     29  C   UNL     1      44.617   4.073   9.358  0.00  0.00    +0.000 C 
BRANCH  29  30
ATOM     30  C   UNL     1      45.545   3.310   8.428  0.00  0.00    +0.000 A 
ATOM     31  C   UNL     1      45.787   1.951   8.618  0.00  0.00    +0.000 A 
ATOM     32  C   UNL     1      46.541   1.265   7.670  0.00  0.00    +0.000 A 
ATOM     33  C   UNL     1      47.038   1.951   6.568  0.00  0.00    +0.000 A 
ATOM     34  C   UNL     1      46.774   3.306   6.468  0.00  0.00    +0.000 A 
ATOM     35  N   UNL     1      46.042   3.998   7.368  0.00  0.00    +0.000 NA
ENDBRANCH  29  30
ENDBRANCH  24  29
ENDBRANCH  23  24
ENDBRANCH   4  23
TORSDOF 10
ENDMDL
MODEL 4
REMARK VINA RESULT:    -6.931      2.179      2.844
REMARK INTER + INTRA:         -12.475
REMARK INTER:                 -11.164
REMARK INTRA:                  -1.311
REMARK UNBOUND:                -1.695
REMARK  Name = 
REMARK  10 active torsions:
REMARK  status: ('A' for Active; 'I' for Inactive)
REMARK    1  A    between atoms: C_2  and  C_23
REMARK    2  A    between atoms: N_3  and  C_4
REMARK    3  A    between atoms: C_4  and  C_5
REMARK    4  A    between atoms: C_8  and  C_9
REMARK    5  A    between atoms: C_9  and  N_10
REMARK    6  A    between atoms: N_10  and  C_11
REMARK    7  A    between atoms: N_10  and  C_14
REMARK    8  A    between atoms: C_11  and  C_12
REMARK    9  A    between atoms: C_12  and  O_13
REMARK   10  A    between atoms: C_14  and  C_15
REMARK                            x       y       z     vdW  Elec       q    Type
REMARK                         _______ _______ _______ _____ _____    ______ ____
ROOT
ATOM      1  C   UNL     1      48.411   7.529  14.582  0.00  0.00    +0.000 A 
ATOM      2  C   UNL     1      47.400   8.401  14.175  0.00  0.00    +0.000 A 
ATOM      3  C   UNL     1      46.572   8.033  13.117  0.00  0.00    +0.000 A 
ATOM      4  C   UNL     1      46.790   6.823  12.455  0.00  0.00    +0.000 A 
ATOM      5  C   UNL     1      47.796   5.999  12.950  0.00  0.00    +0.000 A 
ATOM      6  N   UNL     1      48.609   6.326  13.981  0.00  0.00    +0.000 NA
ENDROOT
BRANCH   1   7
ATOM      7  C   UNL     1      49.398   7.951  15.645  0.00  0.00    +0.000 C 
BRANCH   7  10
ATOM      8  O   UNL     1      49.473   6.660  18.153  0.00  0.00    +0.000 OA
ATOM      9  C   UNL     1      50.289   6.338  17.290  0.00  0.00    +0.000 C 
ATOM     10  N   UNL     1      50.272   6.861  16.023  0.00  0.00    +0.000 N 
ATOM     11  H   UNL     1      50.976   6.595  15.350  0.00  0.00    +0.000 HD
BRANCH   9  12
ATOM     12  C   UNL     1      51.303   5.312  17.523  0.00  0.00    +0.000 A 
ATOM     13  C   UNL     1      52.596   5.647  17.889  0.00  0.00    +0.000 A 
ATOM     14  S   UNL     1      53.579   4.286  18.214  0.00  0.00    +0.000 S 
ATOM     15  C   UNL     1      52.315   3.212  17.830  0.00  0.00    +0.000 A 
ATOM     16  N   UNL     1      52.474   1.865  17.930  0.00  0.00    +0.000 NA
ATOM     17  C   UNL     1      51.431   1.183  17.589  0.00  0.00    +0.000 A 
ATOM     18  N   UNL     1      50.253   1.717  17.138  0.00  0.00    +0.000 N 
ATOM     19  C   UNL     1      50.062   3.069  16.978  0.00  0.00    +0.000 A 
ATOM     20  O   UNL     1      49.022   3.516  16.508  0.00  0.00    +0.000 OA
ATOM     21  C   UNL     1      51.177   3.881  17.421  0.00  0.00    +0.000 A 
ATOM     22  H   UNL     1      49.480   1.127  16.862  0.00  0.00    +0.000 HD
ENDBRANCH   9  12
ENDBRANCH   7  10
ENDBRANCH   1   7
BRANCH   4  23
ATOM     23  C   UNL     1      46.023   6.464  11.203  0.00  0.00    +0.000 C 
BRANCH  23  24
ATOM     24  N   UNL     1      45.403   5.107  11.262  0.00  0.00    +0.000 NA
BRANCH  24  25
ATOM     25  C   UNL     1      44.485   5.022  12.433  0.00  0.00    +0.000 C 
BRANCH  25  26
ATOM     26  C   UNL     1      43.879   3.633  12.721  0.00  0.00    +0.000 C 
BRANCH  26  27
ATOM     27  O   UNL     1      44.836   2.592  12.555  0.00  0.00    +0.000 OA
ATOM     28  H   UNL     1      45.032   2.262  13.450  0.00  0.00    +0.000 HD
ENDBRANCH  26  27
ENDBRANCH  25  26
ENDBRANCH  24  25
BRANCH  24  29
ATOM     29  C   UNL     1      44.653   4.859  10.008  0.00  0.00    +0.000 C 
BRANCH  29  30
ATOM     30  C   UNL     1      45.273   3.857   9.049  0.00  0.00    +0.000 A 
ATOM     31  C   UNL     1      46.028   4.287   7.958  0.00  0.00    +0.000 A 
ATOM     32  C   UNL     1      46.682   3.336   7.180  0.00  0.00    +0.000 A 
ATOM     33  C   UNL     1      46.561   1.989   7.504  0.00  0.00    +0.000 A 
ATOM     34  C   UNL     1      45.771   1.646   8.587  0.00  0.00    +0.000 A 
ATOM     35  N   UNL     1      45.128   2.545   9.364  0.00  0.00    +0.000 NA
ENDBRANCH  29  30
ENDBRANCH  24  29
ENDBRANCH  23  24
ENDBRANCH   4  23
TORSDOF 10
ENDMDL
MODEL 5
REMARK VINA RESULT:    -6.892      3.269      4.161
REMARK INTER + INTRA:         -12.415
REMARK INTER:                 -11.591
REMARK INTRA:                  -0.824
REMARK UNBOUND:                -1.695
REMARK  Name = 
REMARK  10 active torsions:
REMARK  status: ('A' for Active; 'I' for Inactive)
REMARK    1  A    between atoms: C_2  and  C_23
REMARK    2  A    between atoms: N_3  and  C_4
REMARK    3  A    between atoms: C_4  and  C_5
REMARK    4  A    between atoms: C_8  and  C_9
REMARK    5  A    between atoms: C_9  and  N_10
REMARK    6  A    between atoms: N_10  and  C_11
REMARK    7  A    between atoms: N_10  and  C_14
REMARK    8  A    between atoms: C_11  and  C_12
REMARK    9  A    between atoms: C_12  and  O_13
REMARK   10  A    between atoms: C_14  and  C_15
REMARK                            x       y       z     vdW  Elec       q    Type
REMARK                         _______ _______ _______ _____ _____    ______ ____
ROOT
ATOM      1  C   UNL     1      47.933   5.060  15.838  0.00  0.00    +0.000 A 
ATOM      2  C   UNL     1      46.991   4.246  15.206  0.00  0.00    +0.000 A 
ATOM      3  C   UNL     1      46.593   4.553  13.907  0.00  0.00    +0.000 A 
ATOM      4  C   UNL     1      47.106   5.687  13.275  0.00  0.00    +0.000 A 
ATOM      5  C   UNL     1      48.067   6.420  13.963  0.00  0.00    +0.000 A 
ATOM      6  N   UNL     1      48.479   6.141  15.222  0.00  0.00    +0.000 NA
ENDROOT
BRANCH   1   7
ATOM      7  C   UNL     1      48.295   4.822  17.285  0.00  0.00    +0.000 C 
BRANCH   7  10
ATOM      8  O   UNL     1      49.838   4.774  19.647  0.00  0.00    +0.000 OA
ATOM      9  C   UNL     1      50.344   4.387  18.593  0.00  0.00    +0.000 C 
ATOM     10  N   UNL     1      49.641   4.307  17.420  0.00  0.00    +0.000 N 
ATOM     11  H   UNL     1      50.097   4.014  16.569  0.00  0.00    +0.000 HD
BRANCH   9  12
ATOM     12  C   UNL     1      51.724   3.910  18.522  0.00  0.00    +0.000 A 
ATOM     13  C   UNL     1      52.779   4.689  18.965  0.00  0.00    +0.000 A 
ATOM     14  S   UNL     1      54.288   3.887  18.885  0.00  0.00    +0.000 S 
ATOM     15  C   UNL     1      53.576   2.495  18.214  0.00  0.00    +0.000 A 
ATOM     16  N   UNL     1      54.314   1.390  17.926  0.00  0.00    +0.000 NA
ATOM     17  C   UNL     1      53.634   0.421  17.408  0.00  0.00    +0.000 A 
ATOM     18  N   UNL     1      52.294   0.458  17.131  0.00  0.00    +0.000 N 
ATOM     19  C   UNL     1      51.517   1.568  17.363  0.00  0.00    +0.000 A 
ATOM     20  O   UNL     1      50.334   1.598  17.043  0.00  0.00    +0.000 OA
ATOM     21  C   UNL     1      52.218   2.655  18.016  0.00  0.00    +0.000 A 
ATOM     22  H   UNL     1      51.824  -0.327  16.700  0.00  0.00    +0.000 HD
ENDBRANCH   9  12
ENDBRANCH   7  10
ENDBRANCH   1   7
BRANCH   4  23
ATOM     23  C   UNL     1      46.577   6.145  11.935  0.00  0.00    +0.000 C 
BRANCH  23  24
ATOM     24  N   UNL     1      45.320   5.449  11.529  0.00  0.00    +0.000 NA
BRANCH  24  25
ATOM     25  C   UNL     1      44.156   6.057  12.234  0.00  0.00    +0.000 C 
BRANCH  25  26
ATOM     26  C   UNL     1      42.830   6.095  11.446  0.00  0.00    +0.000 C 
BRANCH  26  27
ATOM     27  O   UNL     1      42.454   7.424  11.103  0.00  0.00    +0.000 OA
ATOM     28  H   UNL     1      42.353   7.435  10.135  0.00  0.00    +0.000 HD
ENDBRANCH  26  27
ENDBRANCH  25  26
ENDBRANCH  24  25
BRANCH  24  29
ATOM     29  C   UNL     1      45.147   5.572  10.062  0.00  0.00    +0.000 C 
BRANCH  29  30
ATOM     30  C   UNL     1      45.555   4.361   9.240  0.00  0.00    +0.000 A 
ATOM     31  C   UNL     1      45.194   3.075   9.637  0.00  0.00    +0.000 A 
ATOM     32  C   UNL     1      45.479   2.008   8.790  0.00  0.00    +0.000 A 
ATOM     33  C   UNL     1      46.119   2.249   7.580  0.00  0.00    +0.000 A 
ATOM     34  C   UNL     1      46.467   3.553   7.274  0.00  0.00    +0.000 A 
ATOM     35  N   UNL     1      46.201   4.610   8.072  0.00  0.00    +0.000 NA
ENDBRANCH  29  30
ENDBRANCH  24  29
ENDBRANCH  23  24
ENDBRANCH   4  23
TORSDOF 10
ENDMDL
MODEL 6
REMARK VINA RESULT:    -6.560      2.402      3.971
REMARK INTER + INTRA:         -11.898
REMARK INTER:                 -10.940
REMARK INTRA:                  -0.958
REMARK UNBOUND:                -1.695
REMARK  Name = 
REMARK  10 active torsions:
REMARK  status: ('A' for Active; 'I' for Inactive)
REMARK    1  A    between atoms: C_2  and  C_23
REMARK    2  A    between atoms: N_3  and  C_4
REMARK    3  A    between atoms: C_4  and  C_5
REMARK    4  A    between atoms: C_8  and  C_9
REMARK    5  A    between atoms: C_9  and  N_10
REMARK    6  A    between atoms: N_10  and  C_11
REMARK    7  A    between atoms: N_10  and  C_14
REMARK    8  A    between atoms: C_11  and  C_12
REMARK    9  A    between atoms: C_12  and  O_13
REMARK   10  A    between atoms: C_14  and  C_15
REMARK                            x       y       z     vdW  Elec       q    Type
REMARK                         _______ _______ _______ _____ _____    ______ ____
ROOT
ATOM      1  C   UNL     1      47.406   5.078  14.679  0.00  0.00    +0.000 A 
ATOM      2  C   UNL     1      46.756   3.952  14.172  0.00  0.00    +0.000 A 
ATOM      3  C   UNL     1      46.068   4.051  12.965  0.00  0.00    +0.000 A 
ATOM      4  C   UNL     1      46.002   5.279  12.304  0.00  0.00    +0.000 A 
ATOM      5  C   UNL     1      46.709   6.340  12.861  0.00  0.00    +0.000 A 
ATOM      6  N   UNL     1      47.393   6.270  14.026  0.00  0.00    +0.000 NA
ENDROOT
BRANCH   1   7
ATOM      7  C   UNL     1      48.059   5.032  16.040  0.00  0.00    +0.000 C 
BRANCH   7  10
ATOM      8  O   UNL     1      50.724   5.926  16.289  0.00  0.00    +0.000 OA
ATOM      9  C   UNL     1      49.808   6.674  16.629  0.00  0.00    +0.000 C 
ATOM     10  N   UNL     1      48.487   6.346  16.470  0.00  0.00    +0.000 N 
ATOM     11  H   UNL     1      47.762   6.973  16.789  0.00  0.00    +0.000 HD
BRANCH   9  12
ATOM     12  C   UNL     1      50.054   8.010  17.168  0.00  0.00    +0.000 A 
ATOM     13  C   UNL     1      49.790   8.313  18.493  0.00  0.00    +0.000 A 
ATOM     14  S   UNL     1      50.256   9.901  18.927  0.00  0.00    +0.000 S 
ATOM     15  C   UNL     1      50.780  10.240  17.344  0.00  0.00    +0.000 A 
ATOM     16  N   UNL     1      51.333  11.440  17.021  0.00  0.00    +0.000 NA
ATOM     17  C   UNL     1      51.666  11.551  15.777  0.00  0.00    +0.000 A 
ATOM     18  N   UNL     1      51.480  10.587  14.822  0.00  0.00    +0.000 N 
ATOM     19  C   UNL     1      50.885   9.378  15.092  0.00  0.00    +0.000 A 
ATOM     20  O   UNL     1      50.670   8.560  14.205  0.00  0.00    +0.000 OA
ATOM     21  C   UNL     1      50.564   9.175  16.490  0.00  0.00    +0.000 A 
ATOM     22  H   UNL     1      51.740  10.745  13.858  0.00  0.00    +0.000 HD
ENDBRANCH   9  12
ENDBRANCH   7  10
ENDBRANCH   1   7
BRANCH   4  23
ATOM     23  C   UNL     1      45.131   5.468  11.084  0.00  0.00    +0.000 C 
BRANCH  23  24
ATOM     24  N   UNL     1      44.441   4.216  10.654  0.00  0.00    +0.000 NA
BRANCH  24  25
ATOM     25  C   UNL     1      43.086   4.147  11.273  0.00  0.00    +0.000 C 
BRANCH  25  26
ATOM     26  C   UNL     1      42.556   5.457  11.891  0.00  0.00    +0.000 C 
BRANCH  26  27
ATOM     27  O   UNL     1      42.552   5.410  13.314  0.00  0.00    +0.000 OA
ATOM     28  H   UNL     1      43.013   6.214  13.612  0.00  0.00    +0.000 HD
ENDBRANCH  26  27
ENDBRANCH  25  26
ENDBRANCH  24  25
BRANCH  24  29
ATOM     29  C   UNL     1      44.325   4.205   9.176  0.00  0.00    +0.000 C 
BRANCH  29  30
ATOM     30  C   UNL     1      45.357   3.373   8.434  0.00  0.00    +0.000 A 
ATOM     31  C   UNL     1      45.588   2.044   8.785  0.00  0.00    +0.000 A 
ATOM     32  C   UNL     1      46.448   1.283   7.999  0.00  0.00    +0.000 A 
ATOM     33  C   UNL     1      47.056   1.866   6.893  0.00  0.00    +0.000 A 
ATOM     34  C   UNL     1      46.793   3.199   6.629  0.00  0.00    +0.000 A 
ATOM     35  N   UNL     1      45.960   3.962   7.370  0.00  0.00    +0.000 NA
ENDBRANCH  29  30
ENDBRANCH  24  29
ENDBRANCH  23  24
ENDBRANCH   4  23
TORSDOF 10
ENDMDL
MODEL 7
REMARK VINA RESULT:    -6.473      2.912      4.037
REMARK INTER + INTRA:         -11.763
REMARK INTER:                 -10.900
REMARK INTRA:                  -0.863
REMARK UNBOUND:                -1.695
REMARK  Name = 
REMARK  10 active torsions:
REMARK  status: ('A' for Active; 'I' for Inactive)
REMARK    1  A    between atoms: C_2  and  C_23
REMARK    2  A    between atoms: N_3  and  C_4
REMARK    3  A    between atoms: C_4  and  C_5
REMARK    4  A    between atoms: C_8  and  C_9
REMARK    5  A    between atoms: C_9  and  N_10
REMARK    6  A    between atoms: N_10  and  C_11
REMARK    7  A    between atoms: N_10  and  C_14
REMARK    8  A    between atoms: C_11  and  C_12
REMARK    9  A    between atoms: C_12  and  O_13
REMARK   10  A    between atoms: C_14  and  C_15
REMARK                            x       y       z     vdW  Elec       q    Type
REMARK                         _______ _______ _______ _____ _____    ______ ____
ROOT
ATOM      1  C   UNL     1      47.439   5.096  14.706  0.00  0.00    +0.000 A 
ATOM      2  C   UNL     1      46.811   3.960  14.194  0.00  0.00    +0.000 A 
ATOM      3  C   UNL     1      46.111   4.054  12.994  0.00  0.00    +0.000 A 
ATOM      4  C   UNL     1      46.012   5.286  12.345  0.00  0.00    +0.000 A 
ATOM      5  C   UNL     1      46.699   6.358  12.905  0.00  0.00    +0.000 A 
ATOM      6  N   UNL     1      47.394   6.294  14.065  0.00  0.00    +0.000 NA
ENDROOT
BRANCH   1   7
ATOM      7  C   UNL     1      48.104   5.054  16.062  0.00  0.00    +0.000 C 
BRANCH   7  10
ATOM      8  O   UNL     1      48.356   5.849  18.758  0.00  0.00    +0.000 OA
ATOM      9  C   UNL     1      48.463   6.697  17.871  0.00  0.00    +0.000 C 
ATOM     10  N   UNL     1      48.429   6.381  16.538  0.00  0.00    +0.000 N 
ATOM     11  H   UNL     1      48.489   7.107  15.839  0.00  0.00    +0.000 HD
BRANCH   9  12
ATOM     12  C   UNL     1      48.707   8.106  18.168  0.00  0.00    +0.000 A 
ATOM     13  C   UNL     1      47.776   9.082  17.855  0.00  0.00    +0.000 A 
ATOM     14  S   UNL     1      48.227  10.642  18.392  0.00  0.00    +0.000 S 
ATOM     15  C   UNL     1      49.700  10.062  19.016  0.00  0.00    +0.000 A 
ATOM     16  N   UNL     1      50.573  10.887  19.656  0.00  0.00    +0.000 NA
ATOM     17  C   UNL     1      51.652  10.302  20.059  0.00  0.00    +0.000 A 
ATOM     18  N   UNL     1      51.952   8.980  19.867  0.00  0.00    +0.000 N 
ATOM     19  C   UNL     1      51.123   8.121  19.187  0.00  0.00    +0.000 A 
ATOM     20  O   UNL     1      51.446   6.958  18.970  0.00  0.00    +0.000 OA
ATOM     21  C   UNL     1      49.863   8.710  18.782  0.00  0.00    +0.000 A 
ATOM     22  H   UNL     1      52.828   8.588  20.185  0.00  0.00    +0.000 HD
ENDBRANCH   9  12
ENDBRANCH   7  10
ENDBRANCH   1   7
BRANCH   4  23
ATOM     23  C   UNL     1      45.127   5.466  11.133  0.00  0.00    +0.000 C 
BRANCH  23  24
ATOM     24  N   UNL     1      44.452   4.205  10.706  0.00  0.00    +0.000 NA
BRANCH  24  25
ATOM     25  C   UNL     1      43.109   4.109  11.346  0.00  0.00    +0.000 C 
BRANCH  25  26
ATOM     26  C   UNL     1      42.542   5.419  11.932  0.00  0.00    +0.000 C 
BRANCH  26  27
ATOM     27  O   UNL     1      42.556   5.413  13.355  0.00  0.00    +0.000 OA
ATOM     28  H   UNL     1      42.994   6.241  13.624  0.00  0.00    +0.000 HD
ENDBRANCH  26  27
ENDBRANCH  25  26
ENDBRANCH  24  25
BRANCH  24  29
ATOM     29  C   UNL     1      44.313   4.202   9.230  0.00  0.00    +0.000 C 
BRANCH  29  30
ATOM     30  C   UNL     1      45.342   3.387   8.466  0.00  0.00    +0.000 A 
ATOM     31  C   UNL     1      45.564   2.047   8.776  0.00  0.00    +0.000 A 
ATOM     32  C   UNL     1      46.423   1.305   7.969  0.00  0.00    +0.000 A 
ATOM     33  C   UNL     1      47.038   1.919   6.884  0.00  0.00    +0.000 A 
ATOM     34  C   UNL     1      46.784   3.260   6.661  0.00  0.00    +0.000 A 
ATOM     35  N   UNL     1      45.953   4.005   7.422  0.00  0.00    +0.000 NA
ENDBRANCH  29  30
ENDBRANCH  24  29
ENDBRANCH  23  24
ENDBRANCH   4  23
TORSDOF 10
ENDMDL
MODEL 8
REMARK VINA RESULT:    -6.396      2.819      4.176
REMARK INTER + INTRA:         -11.644
REMARK INTER:                 -10.534
REMARK INTRA:                  -1.109
REMARK UNBOUND:                -1.695
REMARK  Name = 
REMARK  10 active torsions:
REMARK  status: ('A' for Active; 'I' for Inactive)
REMARK    1  A    between atoms: C_2  and  C_23
REMARK    2  A    between atoms: N_3  and  C_4
REMARK    3  A    between atoms: C_4  and  C_5
REMARK    4  A    between atoms: C_8  and  C_9
REMARK    5  A    between atoms: C_9  and  N_10
REMARK    6  A    between atoms: N_10  and  C_11
REMARK    7  A    between atoms: N_10  and  C_14
REMARK    8  A    between atoms: C_11  and  C_12
REMARK    9  A    between atoms: C_12  and  O_13
REMARK   10  A    between atoms: C_14  and  C_15
REMARK                            x       y       z     vdW  Elec       q    Type
REMARK                         _______ _______ _______ _____ _____    ______ ____
ROOT
ATOM      1  C   UNL     1      47.542   3.790  15.290  0.00  0.00    +0.000 A 
ATOM      2  C   UNL     1      47.727   5.173  15.310  0.00  0.00    +0.000 A 
ATOM      3  C   UNL     1      47.324   5.927  14.210  0.00  0.00    +0.000 A 
ATOM      4  C   UNL     1      46.783   5.288  13.093  0.00  0.00    +0.000 A 
ATOM      5  C   UNL     1      46.600   3.912  13.174  0.00  0.00    +0.000 A 
ATOM      6  N   UNL     1      46.974   3.155  14.232  0.00  0.00    +0.000 NA
ENDROOT
BRANCH   1   7
ATOM      7  C   UNL     1      48.076   2.934  16.415  0.00  0.00    +0.000 C 
BRANCH   7  10
ATOM      8  O   UNL     1      50.509   1.666  17.072  0.00  0.00    +0.000 OA
ATOM      9  C   UNL     1      50.338   2.839  17.402  0.00  0.00    +0.000 C 
ATOM     10  N   UNL     1      49.218   3.549  17.057  0.00  0.00    +0.000 N 
ATOM     11  H   UNL     1      49.098   4.501  17.372  0.00  0.00    +0.000 HD
BRANCH   9  12
ATOM     12  C   UNL     1      51.351   3.597  18.134  0.00  0.00    +0.000 A 
ATOM     13  C   UNL     1      52.699   3.456  17.853  0.00  0.00    +0.000 A 
ATOM     14  S   UNL     1      53.690   4.519  18.755  0.00  0.00    +0.000 S 
ATOM     15  C   UNL     1      52.347   5.163  19.578  0.00  0.00    +0.000 A 
ATOM     16  N   UNL     1      52.486   6.161  20.492  0.00  0.00    +0.000 NA
ATOM     17  C   UNL     1      51.377   6.532  21.042  0.00  0.00    +0.000 A 
ATOM     18  N   UNL     1      50.148   5.988  20.783  0.00  0.00    +0.000 N 
ATOM     19  C   UNL     1      49.965   4.949  19.902  0.00  0.00    +0.000 A 
ATOM     20  O   UNL     1      48.864   4.435  19.739  0.00  0.00    +0.000 OA
ATOM     21  C   UNL     1      51.168   4.548  19.201  0.00  0.00    +0.000 A 
ATOM     22  H   UNL     1      49.319   6.306  21.267  0.00  0.00    +0.000 HD
ENDBRANCH   9  12
ENDBRANCH   7  10
ENDBRANCH   1   7
BRANCH   4  23
ATOM     23  C   UNL     1      46.488   6.048  11.820  0.00  0.00    +0.000 C 
BRANCH  23  24
ATOM     24  N   UNL     1      45.296   5.526  11.087  0.00  0.00    +0.000 NA
BRANCH  24  25
ATOM     25  C   UNL     1      44.101   6.357  11.409  0.00  0.00    +0.000 C 
BRANCH  25  26
ATOM     26  C   UNL     1      42.760   5.603  11.514  0.00  0.00    +0.000 C 
BRANCH  26  27
ATOM     27  O   UNL     1      41.689   6.472  11.866  0.00  0.00    +0.000 OA
ATOM     28  H   UNL     1      41.339   6.140  12.712  0.00  0.00    +0.000 HD
ENDBRANCH  26  27
ENDBRANCH  25  26
ENDBRANCH  24  25
BRANCH  24  29
ATOM     29  C   UNL     1      45.565   5.566   9.630  0.00  0.00    +0.000 C 
BRANCH  29  30
ATOM     30  C   UNL     1      45.678   4.219   8.937  0.00  0.00    +0.000 A 
ATOM     31  C   UNL     1      46.409   4.081   7.758  0.00  0.00    +0.000 A 
ATOM     32  C   UNL     1      46.592   2.808   7.227  0.00  0.00    +0.000 A 
ATOM     33  C   UNL     1      46.038   1.712   7.879  0.00  0.00    +0.000 A 
ATOM     34  C   UNL     1      45.303   1.938   9.030  0.00  0.00    +0.000 A 
ATOM     35  N   UNL     1      45.112   3.160   9.572  0.00  0.00    +0.000 NA
ENDBRANCH  29  30
ENDBRANCH  24  29
ENDBRANCH  23  24
ENDBRANCH   4  23
TORSDOF 10
ENDMDL
MODEL 9
REMARK VINA RESULT:    -6.211      2.808      8.330
REMARK INTER + INTRA:         -11.355
REMARK INTER:                  -9.779
REMARK INTRA:                  -1.576
REMARK UNBOUND:                -1.695
REMARK  Name = 
REMARK  10 active torsions:
REMARK  status: ('A' for Active; 'I' for Inactive)
REMARK    1  A    between atoms: C_2  and  C_23
REMARK    2  A    between atoms: N_3  and  C_4
REMARK    3  A    between atoms: C_4  and  C_5
REMARK    4  A    between atoms: C_8  and  C_9
REMARK    5  A    between atoms: C_9  and  N_10
REMARK    6  A    between atoms: N_10  and  C_11
REMARK    7  A    between atoms: N_10  and  C_14
REMARK    8  A    between atoms: C_11  and  C_12
REMARK    9  A    between atoms: C_12  and  O_13
REMARK   10  A    between atoms: C_14  and  C_15
REMARK                            x       y       z     vdW  Elec       q    Type
REMARK                         _______ _______ _______ _____ _____    ______ ____
ROOT
ATOM      1  C   UNL     1      48.261   7.889  13.115  0.00  0.00    +0.000 A 
ATOM      2  C   UNL     1      48.067   6.868  14.047  0.00  0.00    +0.000 A 
ATOM      3  C   UNL     1      48.898   6.802  15.163  0.00  0.00    +0.000 A 
ATOM      4  C   UNL     1      49.934   7.725  15.311  0.00  0.00    +0.000 A 
ATOM      5  C   UNL     1      50.033   8.730  14.354  0.00  0.00    +0.000 A 
ATOM      6  N   UNL     1      49.235   8.825  13.265  0.00  0.00    +0.000 NA
ENDROOT
BRANCH   1   7
ATOM      7  C   UNL     1      47.455   7.917  11.837  0.00  0.00    +0.000 C 
BRANCH   7  10
ATOM      8  O   UNL     1      44.679   7.563  11.478  0.00  0.00    +0.000 OA
ATOM      9  C   UNL     1      45.409   6.572  11.515  0.00  0.00    +0.000 C 
ATOM     10  N   UNL     1      46.773   6.661  11.610  0.00  0.00    +0.000 N 
ATOM     11  H   UNL     1      47.337   5.826  11.669  0.00  0.00    +0.000 HD
BRANCH   9  12
ATOM     12  C   UNL     1      44.883   5.214  11.389  0.00  0.00    +0.000 A 
ATOM     13  C   UNL     1      44.243   4.587  12.444  0.00  0.00    +0.000 A 
ATOM     14  S   UNL     1      43.617   3.049  12.034  0.00  0.00    +0.000 S 
ATOM     15  C   UNL     1      44.226   3.161  10.449  0.00  0.00    +0.000 A 
ATOM     16  N   UNL     1      44.014   2.175   9.536  0.00  0.00    +0.000 NA
ATOM     17  C   UNL     1      44.551   2.399   8.383  0.00  0.00    +0.000 A 
ATOM     18  N   UNL     1      45.297   3.501   8.061  0.00  0.00    +0.000 N 
ATOM     19  C   UNL     1      45.576   4.500   8.963  0.00  0.00    +0.000 A 
ATOM     20  O   UNL     1      46.302   5.442   8.669  0.00  0.00    +0.000 OA
ATOM     21  C   UNL     1      44.930   4.333  10.249  0.00  0.00    +0.000 A 
ATOM     22  H   UNL     1      45.713   3.605   7.145  0.00  0.00    +0.000 HD
ENDBRANCH   9  12
ENDBRANCH   7  10
ENDBRANCH   1   7
BRANCH   4  23
ATOM     23  C   UNL     1      50.957   7.588  16.415  0.00  0.00    +0.000 C 
BRANCH  23  24
ATOM     24  N   UNL     1      51.591   6.237  16.465  0.00  0.00    +0.000 NA
BRANCH  24  25
ATOM     25  C   UNL     1      53.071   6.370  16.355  0.00  0.00    +0.000 C 
BRANCH  25  26
ATOM     26  C   UNL     1      53.585   7.525  15.472  0.00  0.00    +0.000 C 
BRANCH  26  27
ATOM     27  O   UNL     1      53.485   7.218  14.085  0.00  0.00    +0.000 OA
ATOM     28  H   UNL     1      53.249   8.052  13.641  0.00  0.00    +0.000 HD
ENDBRANCH  26  27
ENDBRANCH  25  26
ENDBRANCH  24  25
BRANCH  24  29
ATOM     29  C   UNL     1      51.233   5.577  17.744  0.00  0.00    +0.000 C 
BRANCH  29  30
ATOM     30  C   UNL     1      50.096   4.573  17.679  0.00  0.00    +0.000 A 
ATOM     31  C   UNL     1      48.809   4.925  18.082  0.00  0.00    +0.000 A 
ATOM     32  C   UNL     1      47.773   4.015  17.887  0.00  0.00    +0.000 A 
ATOM     33  C   UNL     1      48.048   2.783  17.305  0.00  0.00    +0.000 A 
ATOM     34  C   UNL     1      49.358   2.502  16.958  0.00  0.00    +0.000 A 
ATOM     35  N   UNL     1      50.383   3.365  17.130  0.00  0.00    +0.000 NA
ENDBRANCH  29  30
ENDBRANCH  24  29
ENDBRANCH  23  24
ENDBRANCH   4  23
TORSDOF 10
ENDMDL
