MODEL 1
REMARK VINA RESULT:    -8.591      0.000      0.000
REMARK INTER + INTRA:         -12.366
REMARK INTER:                 -11.605
REMARK INTRA:                  -0.761
REMARK UNBOUND:                -0.761
REMARK  Name = 
REMARK  6 active torsions:
REMARK  status: ('A' for Active; 'I' for Inactive)
REMARK    1  A    between atoms: C_2  and  C_25
REMARK    2  A    between atoms: N_3  and  C_4
REMARK    3  A    between atoms: C_4  and  C_5
REMARK    4  A    between atoms: C_8  and  C_9
REMARK    5  A    between atoms: C_9  and  N_10
REMARK    6  A    between atoms: C_11  and  C_13
REMARK                            x       y       z     vdW  Elec       q    Type
REMARK                         _______ _______ _______ _____ _____    ______ ____
ROOT
ATOM      1  C   UNL     1      44.655   5.251  11.349  0.00  0.00    +0.000 A 
ATOM      2  C   UNL     1      45.767   4.777  12.061  0.00  0.00    +0.000 A 
ATOM      3  C   UNL     1      46.602   5.661  12.754  0.00  0.00    +0.000 A 
ATOM      4  C   UNL     1      46.333   7.036  12.768  0.00  0.00    +0.000 A 
ATOM      5  C   UNL     1      45.226   7.509  12.051  0.00  0.00    +0.000 A 
ATOM      6  C   UNL     1      44.389   6.626  11.359  0.00  0.00    +0.000 A 
ENDROOT
BRANCH   1   7
ATOM      7  C   UNL     1      43.779   4.298  10.576  0.00  0.00    +0.000 C 
BRANCH   7  10
ATOM      8  O   UNL     1      45.323   5.043   8.392  0.00  0.00    +0.000 OA
ATOM      9  C   UNL     1      45.284   3.858   8.705  0.00  0.00    +0.000 C 
ATOM     10  N   UNL     1      44.540   3.376   9.762  0.00  0.00    +0.000 N 
ATOM     11  H   UNL     1      44.722   2.453  10.130  0.00  0.00    +0.000 HD
BRANCH   9  12
ATOM     12  C   UNL     1      46.093   2.870   7.950  0.00  0.00    +0.000 A 
ATOM     13  C   UNL     1      46.033   1.528   8.329  0.00  0.00    +0.000 A 
ATOM     14  C   UNL     1      46.811   0.621   7.633  0.00  0.00    +0.000 A 
ATOM     15  N   UNL     1      47.631   0.966   6.618  0.00  0.00    +0.000 NA
ATOM     16  C   UNL     1      47.688   2.275   6.290  0.00  0.00    +0.000 A 
ATOM     17  C   UNL     1      46.945   3.259   6.917  0.00  0.00    +0.000 A 
ENDBRANCH   9  12
ENDBRANCH   7  10
ENDBRANCH   1   7
BRANCH   4  18
ATOM     18  C   UNL     1      47.224   7.993  13.520  0.00  0.00    +0.000 C 
BRANCH  18  19
ATOM     19  N   UNL     1      47.689   7.434  14.766  0.00  0.00    +0.000 N 
ATOM     20  C   UNL     1      48.963   6.934  14.878  0.00  0.00    +0.000 C 
ATOM     21  O   UNL     1      49.759   6.978  13.942  0.00  0.00    +0.000 OA
ATOM     22  H   UNL     1      46.988   7.180  15.456  0.00  0.00    +0.000 HD
BRANCH  20  23
ATOM     23  C   UNL     1      49.353   6.394  16.186  0.00  0.00    +0.000 A 
ATOM     24  C   UNL     1      50.437   6.945  16.859  0.00  0.00    +0.000 A 
ATOM     25  S   UNL     1      50.725   6.243  18.386  0.00  0.00    +0.000 S 
ATOM     26  C   UNL     1      49.445   5.141  18.180  0.00  0.00    +0.000 A 
ATOM     27  N   UNL     1      49.160   4.216  19.135  0.00  0.00    +0.000 NA
ATOM     28  C   UNL     1      48.188   3.421  18.834  0.00  0.00    +0.000 A 
ATOM     29  N   UNL     1      47.471   3.471  17.666  0.00  0.00    +0.000 N 
ATOM     30  C   UNL     1      47.704   4.407  16.685  0.00  0.00    +0.000 A 
ATOM     31  O   UNL     1      47.020   4.450  15.668  0.00  0.00    +0.000 OA
ATOM     32  C   UNL     1      48.796   5.317  16.970  0.00  0.00    +0.000 A 
ATOM     33  H   UNL     1      46.717   2.822  17.494  0.00  0.00    +0.000 HD
ENDBRANCH  20  23
ENDBRANCH  18  19
ENDBRANCH   4  18
TORSDOF 6
ENDMDL
MODEL 2
REMARK VINA RESULT:    -8.312      1.600      2.006
REMARK INTER + INTRA:         -11.988
REMARK INTER:                 -11.040
REMARK INTRA:                  -0.949
REMARK UNBOUND:                -0.761
REMARK  Name = 
REMARK  6 active torsions:
REMARK  status: ('A' for Active; 'I' for Inactive)
REMARK    1  A    between atoms: C_2  and  C_25
REMARK    2  A    between atoms: N_3  and  C_4
REMARK    3  A    between atoms: C_4  and  C_5
REMARK    4  A    between atoms: C_8  and  C_9
REMARK    5  A    between atoms: C_9  and  N_10
REMARK    6  A    between atoms: C_11  and  C_13
REMARK                            x       y       z     vdW  Elec       q    Type
REMARK                         _______ _______ _______ _____ _____    ______ ____
ROOT
ATOM      1  C   UNL     1      44.730   4.921  11.752  0.00  0.00    +0.000 A 
ATOM      2  C   UNL     1      45.864   4.946  12.576  0.00  0.00    +0.000 A 
ATOM      3  C   UNL     1      46.427   6.161  12.983  0.00  0.00    +0.000 A 
ATOM      4  C   UNL     1      45.856   7.380  12.591  0.00  0.00    +0.000 A 
ATOM      5  C   UNL     1      44.726   7.354  11.763  0.00  0.00    +0.000 A 
ATOM      6  C   UNL     1      44.162   6.140  11.357  0.00  0.00    +0.000 A 
ENDROOT
BRANCH   1   7
ATOM      7  C   UNL     1      44.149   3.610  11.289  0.00  0.00    +0.000 C 
BRANCH   7  10
ATOM      8  O   UNL     1      44.315   4.108   8.562  0.00  0.00    +0.000 OA
ATOM      9  C   UNL     1      45.034   3.241   9.044  0.00  0.00    +0.000 C 
ATOM     10  N   UNL     1      45.024   2.901  10.381  0.00  0.00    +0.000 N 
ATOM     11  H   UNL     1      45.786   2.366  10.774  0.00  0.00    +0.000 HD
BRANCH   9  12
ATOM     12  C   UNL     1      46.001   2.521   8.178  0.00  0.00    +0.000 A 
ATOM     13  C   UNL     1      46.776   3.261   7.284  0.00  0.00    +0.000 A 
ATOM     14  C   UNL     1      47.655   2.575   6.465  0.00  0.00    +0.000 A 
ATOM     15  N   UNL     1      47.794   1.232   6.477  0.00  0.00    +0.000 NA
ATOM     16  C   UNL     1      47.013   0.541   7.336  0.00  0.00    +0.000 A 
ATOM     17  C   UNL     1      46.110   1.132   8.202  0.00  0.00    +0.000 A 
ENDBRANCH   9  12
ENDBRANCH   7  10
ENDBRANCH   1   7
BRANCH   4  18
ATOM     18  C   UNL     1      46.452   8.693  13.034  0.00  0.00    +0.000 C 
BRANCH  18  19
ATOM     19  N   UNL     1      46.884   8.656  14.409  0.00  0.00    +0.000 N 
ATOM     20  C   UNL     1      48.213   8.788  14.730  0.00  0.00    +0.000 C 
ATOM     21  O   UNL     1      49.070   8.981  13.869  0.00  0.00    +0.000 OA
ATOM     22  H   UNL     1      46.240   8.270  15.093  0.00  0.00    +0.000 HD
BRANCH  20  23
ATOM     23  C   UNL     1      48.560   8.748  16.156  0.00  0.00    +0.000 A 
ATOM     24  C   UNL     1      48.682   9.936  16.865  0.00  0.00    +0.000 A 
ATOM     25  S   UNL     1      49.035   9.716  18.518  0.00  0.00    +0.000 S 
ATOM     26  C   UNL     1      49.093   8.025  18.334  0.00  0.00    +0.000 A 
ATOM     27  N   UNL     1      49.381   7.218  19.390  0.00  0.00    +0.000 NA
ATOM     28  C   UNL     1      49.428   5.960  19.102  0.00  0.00    +0.000 A 
ATOM     29  N   UNL     1      49.205   5.436  17.854  0.00  0.00    +0.000 N 
ATOM     30  C   UNL     1      48.882   6.210  16.764  0.00  0.00    +0.000 A 
ATOM     31  O   UNL     1      48.651   5.707  15.670  0.00  0.00    +0.000 OA
ATOM     32  C   UNL     1      48.829   7.634  17.034  0.00  0.00    +0.000 A 
ATOM     33  H   UNL     1      49.251   4.440  17.697  0.00  0.00    +0.000 HD
ENDBRANCH  20  23
ENDBRANCH  18  19
ENDBRANCH   4  18
TORSDOF 6
ENDMDL
MODEL 3
REMARK VINA RESULT:    -8.057      2.140      2.736
REMARK INTER + INTRA:         -11.645
REMARK INTER:                 -10.669
REMARK INTRA:                  -0.975
REMARK UNBOUND:                -0.761
REMARK  Name = 
REMARK  6 active torsions:
REMARK  status: ('A' for Active; 'I' for Inactive)
REMARK    1  A    between atoms: C_2  and  C_25
REMARK    2  A    between atoms: N_3  and  C_4
REMARK    3  A    between atoms: C_4  and  C_5
REMARK    4  A    between atoms: C_8  and  C_9
REMARK    5  A    between atoms: C_9  and  N_10
REMARK    6  A    between atoms: C_11  and  C_13
REMARK                            x       y       z     vdW  Elec       q    Type
REMARK                         _______ _______ _______ _____ _____    ______ ____
ROOT
ATOM      1  C   UNL     1      45.469   4.831  11.936  0.00  0.00    +0.000 A 
ATOM      2  C   UNL     1      46.006   6.061  11.528  0.00  0.00    +0.000 A 
ATOM      3  C   UNL     1      46.902   6.758  12.347  0.00  0.00    +0.000 A 
ATOM      4  C   UNL     1      47.298   6.231  13.584  0.00  0.00    +0.000 A 
ATOM      5  C   UNL     1      46.756   5.005  13.994  0.00  0.00    +0.000 A 
ATOM      6  C   UNL     1      45.861   4.307  13.175  0.00  0.00    +0.000 A 
ENDROOT
BRANCH   1   7
ATOM      7  C   UNL     1      44.478   4.102  11.065  0.00  0.00    +0.000 C 
BRANCH   7  10
ATOM      8  O   UNL     1      45.144   4.872   8.482  0.00  0.00    +0.000 OA
ATOM      9  C   UNL     1      45.415   3.732   8.841  0.00  0.00    +0.000 C 
ATOM     10  N   UNL     1      45.117   3.240  10.095  0.00  0.00    +0.000 N 
ATOM     11  H   UNL     1      45.565   2.397  10.428  0.00  0.00    +0.000 HD
BRANCH   9  12
ATOM     12  C   UNL     1      46.129   2.818   7.916  0.00  0.00    +0.000 A 
ATOM     13  C   UNL     1      46.612   3.331   6.711  0.00  0.00    +0.000 A 
ATOM     14  C   UNL     1      47.253   2.463   5.847  0.00  0.00    +0.000 A 
ATOM     15  N   UNL     1      47.426   1.148   6.100  0.00  0.00    +0.000 NA
ATOM     16  C   UNL     1      46.926   0.676   7.262  0.00  0.00    +0.000 A 
ATOM     17  C   UNL     1      46.276   1.461   8.198  0.00  0.00    +0.000 A 
ENDBRANCH   9  12
ENDBRANCH   7  10
ENDBRANCH   1   7
BRANCH   4  18
ATOM     18  C   UNL     1      48.271   6.971  14.467  0.00  0.00    +0.000 C 
BRANCH  18  19
ATOM     19  N   UNL     1      48.091   6.649  15.861  0.00  0.00    +0.000 N 
ATOM     20  C   UNL     1      49.157   6.253  16.632  0.00  0.00    +0.000 C 
ATOM     21  O   UNL     1      50.298   6.197  16.178  0.00  0.00    +0.000 OA
ATOM     22  H   UNL     1      47.145   6.464  16.181  0.00  0.00    +0.000 HD
BRANCH  20  23
ATOM     23  C   UNL     1      48.882   5.954  18.043  0.00  0.00    +0.000 A 
ATOM     24  C   UNL     1      49.153   4.685  18.540  0.00  0.00    +0.000 A 
ATOM     25  S   UNL     1      48.829   4.517  20.205  0.00  0.00    +0.000 S 
ATOM     26  C   UNL     1      48.262   6.118  20.310  0.00  0.00    +0.000 A 
ATOM     27  N   UNL     1      47.798   6.619  21.487  0.00  0.00    +0.000 NA
ATOM     28  C   UNL     1      47.366   7.833  21.416  0.00  0.00    +0.000 A 
ATOM     29  N   UNL     1      47.363   8.596  20.276  0.00  0.00    +0.000 N 
ATOM     30  C   UNL     1      47.850   8.143  19.072  0.00  0.00    +0.000 A 
ATOM     31  O   UNL     1      47.868   8.863  18.079  0.00  0.00    +0.000 OA
ATOM     32  C   UNL     1      48.336   6.777  19.096  0.00  0.00    +0.000 A 
ATOM     33  H   UNL     1      47.016   9.544  20.289  0.00  0.00    +0.000 HD
ENDBRANCH  20  23
ENDBRANCH  18  19
ENDBRANCH   4  18
TORSDOF 6
ENDMDL
MODEL 4
REMARK VINA RESULT:    -7.960      3.797      5.035
REMARK INTER + INTRA:         -11.513
REMARK INTER:                 -10.436
REMARK INTRA:                  -1.077
REMARK UNBOUND:                -0.761
REMARK  Name = 
REMARK  6 active torsions:
REMARK  status: ('A' for Active; 'I' for Inactive)
REMARK    1  A    between atoms: C_2  and  C_25
REMARK    2  A    between atoms: N_3  and  C_4
REMARK    3  A    between atoms: C_4  and  C_5
REMARK    4  A    between atoms: C_8  and  C_9
REMARK    5  A    between atoms: C_9  and  N_10
REMARK    6  A    between atoms: C_11  and  C_13
REMARK                            x       y       z     vdW  Elec       q    Type
REMARK                         _______ _______ _______ _____ _____    ______ ____
ROOT
ATOM      1  C   UNL     1      44.577   4.876  11.652  0.00  0.00    +0.000 A 
ATOM      2  C   UNL     1      44.039   6.114  11.271  0.00  0.00    +0.000 A 
ATOM      3  C   UNL     1      44.537   7.307  11.807  0.00  0.00    +0.000 A 
ATOM      4  C   UNL     1      45.599   7.290  12.722  0.00  0.00    +0.000 A 
ATOM      5  C   UNL     1      46.132   6.053  13.107  0.00  0.00    +0.000 A 
ATOM      6  C   UNL     1      45.635   4.860  12.570  0.00  0.00    +0.000 A 
ENDROOT
BRANCH   1   7
ATOM      7  C   UNL     1      44.014   3.593  11.097  0.00  0.00    +0.000 C 
BRANCH   7  10
ATOM      8  O   UNL     1      44.334   4.155   8.397  0.00  0.00    +0.000 OA
ATOM      9  C   UNL     1      45.028   3.279   8.899  0.00  0.00    +0.000 C 
ATOM     10  N   UNL     1      44.943   2.908  10.225  0.00  0.00    +0.000 N 
ATOM     11  H   UNL     1      45.683   2.365  10.648  0.00  0.00    +0.000 HD
BRANCH   9  12
ATOM     12  C   UNL     1      46.046   2.582   8.073  0.00  0.00    +0.000 A 
ATOM     13  C   UNL     1      46.781   3.327   7.150  0.00  0.00    +0.000 A 
ATOM     14  C   UNL     1      47.708   2.661   6.370  0.00  0.00    +0.000 A 
ATOM     15  N   UNL     1      47.931   1.332   6.446  0.00  0.00    +0.000 NA
ATOM     16  C   UNL     1      47.187   0.633   7.331  0.00  0.00    +0.000 A 
ATOM     17  C   UNL     1      46.241   1.205   8.163  0.00  0.00    +0.000 A 
ENDBRANCH   9  12
ENDBRANCH   7  10
ENDBRANCH   1   7
BRANCH   4  18
ATOM     18  C   UNL     1      46.147   8.573  13.297  0.00  0.00    +0.000 C 
BRANCH  18  19
ATOM     19  N   UNL     1      47.477   8.856  12.818  0.00  0.00    +0.000 N 
ATOM     20  C   UNL     1      47.692   9.837  11.882  0.00  0.00    +0.000 C 
ATOM     21  O   UNL     1      46.773  10.531  11.450  0.00  0.00    +0.000 OA
ATOM     22  H   UNL     1      48.193   8.153  12.981  0.00  0.00    +0.000 HD
BRANCH  20  23
ATOM     23  C   UNL     1      49.080  10.063  11.460  0.00  0.00    +0.000 A 
ATOM     24  C   UNL     1      49.498  11.348  11.139  0.00  0.00    +0.000 A 
ATOM     25  S   UNL     1      51.149  11.448  10.722  0.00  0.00    +0.000 S 
ATOM     26  C   UNL     1      51.351   9.769  10.903  0.00  0.00    +0.000 A 
ATOM     27  N   UNL     1      52.554   9.180  10.665  0.00  0.00    +0.000 NA
ATOM     28  C   UNL     1      52.557   7.897  10.805  0.00  0.00    +0.000 A 
ATOM     29  N   UNL     1      51.466   7.148  11.169  0.00  0.00    +0.000 N 
ATOM     30  C   UNL     1      50.239   7.702  11.448  0.00  0.00    +0.000 A 
ATOM     31  O   UNL     1      49.293   7.009  11.808  0.00  0.00    +0.000 OA
ATOM     32  C   UNL     1      50.180   9.142  11.293  0.00  0.00    +0.000 A 
ATOM     33  H   UNL     1      51.537   6.146  11.267  0.00  0.00    +0.000 HD
ENDBRANCH  20  23
ENDBRANCH  18  19
ENDBRANCH   4  18
TORSDOF 6
ENDMDL
MODEL 5
REMARK VINA RESULT:    -7.563      3.858      5.720
REMARK INTER + INTRA:         -10.976
REMARK INTER:                 -10.095
REMARK INTRA:                  -0.882
REMARK UNBOUND:                -0.761
REMARK  Name = 
REMARK  6 active torsions:
REMARK  status: ('A' for Active; 'I' for Inactive)
REMARK    1  A    between atoms: C_2  and  C_25
REMARK    2  A    between atoms: N_3  and  C_4
REMARK    3  A    between atoms: C_4  and  C_5
REMARK    4  A    between atoms: C_8  and  C_9
REMARK    5  A    between atoms: C_9  and  N_10
REMARK    6  A    between atoms: C_11  and  C_13
REMARK                            x       y       z     vdW  Elec       q    Type
REMARK                         _______ _______ _______ _____ _____    ______ ____
ROOT
ATOM      1  C   UNL     1      44.423   4.743  11.538  0.00  0.00    +0.000 A 
ATOM      2  C   UNL     1      43.665   5.893  11.273  0.00  0.00    +0.000 A 
ATOM      3  C   UNL     1      44.104   7.153  11.697  0.00  0.00    +0.000 A 
ATOM      4  C   UNL     1      45.321   7.294  12.376  0.00  0.00    +0.000 A 
ATOM      5  C   UNL     1      46.076   6.144  12.645  0.00  0.00    +0.000 A 
ATOM      6  C   UNL     1      45.638   4.885  12.221  0.00  0.00    +0.000 A 
ENDROOT
BRANCH   1   7
ATOM      7  C   UNL     1      43.929   3.385  11.109  0.00  0.00    +0.000 C 
BRANCH   7  10
ATOM      8  O   UNL     1      44.333   4.117   8.461  0.00  0.00    +0.000 OA
ATOM      9  C   UNL     1      44.975   3.176   8.913  0.00  0.00    +0.000 C 
ATOM     10  N   UNL     1      44.844   2.719  10.208  0.00  0.00    +0.000 N 
ATOM     11  H   UNL     1      45.549   2.113  10.605  0.00  0.00    +0.000 HD
BRANCH   9  12
ATOM     12  C   UNL     1      45.976   2.490   8.059  0.00  0.00    +0.000 A 
ATOM     13  C   UNL     1      46.679   3.242   7.117  0.00  0.00    +0.000 A 
ATOM     14  C   UNL     1      47.590   2.586   6.311  0.00  0.00    +0.000 A 
ATOM     15  N   UNL     1      47.828   1.259   6.379  0.00  0.00    +0.000 NA
ATOM     16  C   UNL     1      47.116   0.552   7.283  0.00  0.00    +0.000 A 
ATOM     17  C   UNL     1      46.187   1.114   8.141  0.00  0.00    +0.000 A 
ENDBRANCH   9  12
ENDBRANCH   7  10
ENDBRANCH   1   7
BRANCH   4  18
ATOM     18  C   UNL     1      45.805   8.650  12.827  0.00  0.00    +0.000 C 
BRANCH  18  19
ATOM     19  N   UNL     1      47.033   9.031  12.175  0.00  0.00    +0.000 N 
ATOM     20  C   UNL     1      48.170   9.272  12.907  0.00  0.00    +0.000 C 
ATOM     21  O   UNL     1      48.195   9.134  14.128  0.00  0.00    +0.000 OA
ATOM     22  H   UNL     1      46.970   9.372  11.220  0.00  0.00    +0.000 HD
BRANCH  20  23
ATOM     23  C   UNL     1      49.377   9.645  12.157  0.00  0.00    +0.000 A 
ATOM     24  C   UNL     1      50.597   9.071  12.493  0.00  0.00    +0.000 A 
ATOM     25  S   UNL     1      51.886   9.567  11.495  0.00  0.00    +0.000 S 
ATOM     26  C   UNL     1      50.872  10.610  10.613  0.00  0.00    +0.000 A 
ATOM     27  N   UNL     1      51.365  11.374   9.601  0.00  0.00    +0.000 NA
ATOM     28  C   UNL     1      50.494  12.145   9.042  0.00  0.00    +0.000 A 
ATOM     29  N   UNL     1      49.171  12.216   9.397  0.00  0.00    +0.000 N 
ATOM     30  C   UNL     1      48.622  11.442  10.393  0.00  0.00    +0.000 A 
ATOM     31  O   UNL     1      47.426  11.502  10.661  0.00  0.00    +0.000 OA
ATOM     32  C   UNL     1      49.563  10.567  11.062  0.00  0.00    +0.000 A 
ATOM     33  H   UNL     1      48.539  12.837   8.914  0.00  0.00    +0.000 HD
ENDBRANCH  20  23
ENDBRANCH  18  19
ENDBRANCH   4  18
TORSDOF 6
ENDMDL
MODEL 6
REMARK VINA RESULT:    -7.423      5.017      9.457
REMARK INTER + INTRA:         -10.787
REMARK INTER:                  -9.944
REMARK INTRA:                  -0.844
REMARK UNBOUND:                -0.761
REMARK  Name = 
REMARK  6 active torsions:
REMARK  status: ('A' for Active; 'I' for Inactive)
REMARK    1  A    between atoms: C_2  and  C_25
REMARK    2  A    between atoms: N_3  and  C_4
REMARK    3  A    between atoms: C_4  and  C_5
REMARK    4  A    between atoms: C_8  and  C_9
REMARK    5  A    between atoms: C_9  and  N_10
REMARK    6  A    between atoms: C_11  and  C_13
REMARK                            x       y       z     vdW  Elec       q    Type
REMARK                         _______ _______ _______ _____ _____    ______ ____
ROOT
ATOM      1  C   UNL     1      51.497   3.204  17.689  0.00  0.00    +0.000 A 
ATOM      2  C   UNL     1      50.704   2.137  17.241  0.00  0.00    +0.000 A 
ATOM      3  C   UNL     1      49.330   2.303  17.035  0.00  0.00    +0.000 A 
ATOM      4  C   UNL     1      48.720   3.546  17.254  0.00  0.00    +0.000 A 
ATOM      5  C   UNL     1      49.512   4.610  17.707  0.00  0.00    +0.000 A 
ATOM      6  C   UNL     1      50.886   4.445  17.912  0.00  0.00    +0.000 A 
ENDROOT
BRANCH   1   7
ATOM      7  C   UNL     1      52.970   3.009  17.941  0.00  0.00    +0.000 C 
BRANCH   7  10
ATOM      8  O   UNL     1      54.411   1.277  19.564  0.00  0.00    +0.000 OA
ATOM      9  C   UNL     1      54.136   0.920  18.425  0.00  0.00    +0.000 C 
ATOM     10  N   UNL     1      53.439   1.704  17.530  0.00  0.00    +0.000 N 
ATOM     11  H   UNL     1      53.030   1.289  16.704  0.00  0.00    +0.000 HD
BRANCH   9  12
ATOM     12  C   UNL     1      54.532  -0.434  17.962  0.00  0.00    +0.000 A 
ATOM     13  C   UNL     1      54.823  -0.619  16.610  0.00  0.00    +0.000 A 
ATOM     14  C   UNL     1      55.166  -1.891  16.188  0.00  0.00    +0.000 A 
ATOM     15  N   UNL     1      55.223  -2.960  17.010  0.00  0.00    +0.000 NA
ATOM     16  C   UNL     1      54.912  -2.756  18.308  0.00  0.00    +0.000 A 
ATOM     17  C   UNL     1      54.565  -1.522  18.832  0.00  0.00    +0.000 A 
ENDBRANCH   9  12
ENDBRANCH   7  10
ENDBRANCH   1   7
BRANCH   4  18
ATOM     18  C   UNL     1      47.241   3.735  17.025  0.00  0.00    +0.000 C 
BRANCH  18  19
ATOM     19  N   UNL     1      46.973   4.684  15.973  0.00  0.00    +0.000 N 
ATOM     20  C   UNL     1      47.026   4.302  14.654  0.00  0.00    +0.000 C 
ATOM     21  O   UNL     1      47.263   3.141  14.326  0.00  0.00    +0.000 OA
ATOM     22  H   UNL     1      47.009   5.670  16.211  0.00  0.00    +0.000 HD
BRANCH  20  23
ATOM     23  C   UNL     1      46.728   5.332  13.652  0.00  0.00    +0.000 A 
ATOM     24  C   UNL     1      47.696   6.276  13.331  0.00  0.00    +0.000 A 
ATOM     25  S   UNL     1      47.213   7.367  12.113  0.00  0.00    +0.000 S 
ATOM     26  C   UNL     1      45.673   6.652  12.009  0.00  0.00    +0.000 A 
ATOM     27  N   UNL     1      44.734   7.135  11.151  0.00  0.00    +0.000 NA
ATOM     28  C   UNL     1      43.600   6.522  11.201  0.00  0.00    +0.000 A 
ATOM     29  N   UNL     1      43.320   5.463  12.027  0.00  0.00    +0.000 N 
ATOM     30  C   UNL     1      44.246   4.921  12.888  0.00  0.00    +0.000 A 
ATOM     31  O   UNL     1      43.976   3.949  13.586  0.00  0.00    +0.000 OA
ATOM     32  C   UNL     1      45.535   5.584  12.879  0.00  0.00    +0.000 A 
ATOM     33  H   UNL     1      42.412   5.022  12.012  0.00  0.00    +0.000 HD
ENDBRANCH  20  23
ENDBRANCH  18  19
ENDBRANCH   4  18
TORSDOF 6
ENDMDL
MODEL 7
REMARK VINA RESULT:    -7.218      1.931      2.257
REMARK INTER + INTRA:         -10.511
REMARK INTER:                  -9.734
REMARK INTRA:                  -0.777
REMARK UNBOUND:                -0.761
REMARK  Name = 
REMARK  6 active torsions:
REMARK  status: ('A' for Active; 'I' for Inactive)
REMARK    1  A    between atoms: C_2  and  C_25
REMARK    2  A    between atoms: N_3  and  C_4
REMARK    3  A    between atoms: C_4  and  C_5
REMARK    4  A    between atoms: C_8  and  C_9
REMARK    5  A    between atoms: C_9  and  N_10
REMARK    6  A    between atoms: C_11  and  C_13
REMARK                            x       y       z     vdW  Elec       q    Type
REMARK                         _______ _______ _______ _____ _____    ______ ____
ROOT
ATOM      1  C   UNL     1      45.569   6.815  11.946  0.00  0.00    +0.000 A 
ATOM      2  C   UNL     1      46.615   6.099  12.545  0.00  0.00    +0.000 A 
ATOM      3  C   UNL     1      47.486   6.723  13.446  0.00  0.00    +0.000 A 
ATOM      4  C   UNL     1      47.317   8.073  13.784  0.00  0.00    +0.000 A 
ATOM      5  C   UNL     1      46.275   8.789  13.180  0.00  0.00    +0.000 A 
ATOM      6  C   UNL     1      45.404   8.165  12.280  0.00  0.00    +0.000 A 
ENDROOT
BRANCH   1   7
ATOM      7  C   UNL     1      44.656   6.146  10.951  0.00  0.00    +0.000 C 
BRANCH   7  10
ATOM      8  O   UNL     1      43.700   3.709  10.022  0.00  0.00    +0.000 OA
ATOM      9  C   UNL     1      44.791   4.100   9.625  0.00  0.00    +0.000 C 
ATOM     10  N   UNL     1      45.368   5.286  10.030  0.00  0.00    +0.000 N 
ATOM     11  H   UNL     1      46.137   5.681   9.507  0.00  0.00    +0.000 HD
BRANCH   9  12
ATOM     12  C   UNL     1      45.544   3.296   8.630  0.00  0.00    +0.000 A 
ATOM     13  C   UNL     1      45.618   1.914   8.807  0.00  0.00    +0.000 A 
ATOM     14  C   UNL     1      46.343   1.179   7.887  0.00  0.00    +0.000 A 
ATOM     15  N   UNL     1      46.991   1.728   6.837  0.00  0.00    +0.000 NA
ATOM     16  C   UNL     1      46.922   3.070   6.706  0.00  0.00    +0.000 A 
ATOM     17  C   UNL     1      46.217   3.894   7.566  0.00  0.00    +0.000 A 
ENDBRANCH   9  12
ENDBRANCH   7  10
ENDBRANCH   1   7
BRANCH   4  18
ATOM     18  C   UNL     1      48.246   8.749  14.761  0.00  0.00    +0.000 C 
BRANCH  18  19
ATOM     19  N   UNL     1      48.003   8.329  16.119  0.00  0.00    +0.000 N 
ATOM     20  C   UNL     1      49.038   8.219  17.015  0.00  0.00    +0.000 C 
ATOM     21  O   UNL     1      50.192   8.509  16.708  0.00  0.00    +0.000 OA
ATOM     22  H   UNL     1      47.118   7.871  16.316  0.00  0.00    +0.000 HD
BRANCH  20  23
ATOM     23  C   UNL     1      48.695   7.795  18.378  0.00  0.00    +0.000 A 
ATOM     24  C   UNL     1      48.197   8.727  19.280  0.00  0.00    +0.000 A 
ATOM     25  S   UNL     1      47.798   8.064  20.800  0.00  0.00    +0.000 S 
ATOM     26  C   UNL     1      48.328   6.519  20.325  0.00  0.00    +0.000 A 
ATOM     27  N   UNL     1      48.283   5.469  21.189  0.00  0.00    +0.000 NA
ATOM     28  C   UNL     1      48.749   4.365  20.710  0.00  0.00    +0.000 A 
ATOM     29  N   UNL     1      49.251   4.213  19.442  0.00  0.00    +0.000 N 
ATOM     30  C   UNL     1      49.288   5.238  18.525  0.00  0.00    +0.000 A 
ATOM     31  O   UNL     1      49.707   5.060  17.386  0.00  0.00    +0.000 OA
ATOM     32  C   UNL     1      48.786   6.505  19.019  0.00  0.00    +0.000 A 
ATOM     33  H   UNL     1      49.595   3.318  19.126  0.00  0.00    +0.000 HD
ENDBRANCH  20  23
ENDBRANCH  18  19
ENDBRANCH   4  18
TORSDOF 6
ENDMDL
MODEL 8
REMARK VINA RESULT:    -7.183      3.069      4.182
REMARK INTER + INTRA:         -10.464
REMARK INTER:                  -9.518
REMARK INTRA:                  -0.946
REMARK UNBOUND:                -0.761
REMARK  Name = 
REMARK  6 active torsions:
REMARK  status: ('A' for Active; 'I' for Inactive)
REMARK    1  A    between atoms: C_2  and  C_25
REMARK    2  A    between atoms: N_3  and  C_4
REMARK    3  A    between atoms: C_4  and  C_5
REMARK    4  A    between atoms: C_8  and  C_9
REMARK    5  A    between atoms: C_9  and  N_10
REMARK    6  A    between atoms: C_11  and  C_13
REMARK                            x       y       z     vdW  Elec       q    Type
REMARK                         _______ _______ _______ _____ _____    ______ ____
ROOT
ATOM      1  C   UNL     1      45.872   5.537  11.788  0.00  0.00    +0.000 A 
ATOM      2  C   UNL     1      46.712   6.659  11.793  0.00  0.00    +0.000 A 
ATOM      3  C   UNL     1      47.564   6.911  12.875  0.00  0.00    +0.000 A 
ATOM      4  C   UNL     1      47.610   6.035  13.967  0.00  0.00    +0.000 A 
ATOM      5  C   UNL     1      46.765   4.916  13.965  0.00  0.00    +0.000 A 
ATOM      6  C   UNL     1      45.915   4.663  12.883  0.00  0.00    +0.000 A 
ENDROOT
BRANCH   1   7
ATOM      7  C   UNL     1      44.932   5.289  10.636  0.00  0.00    +0.000 C 
BRANCH   7  10
ATOM      8  O   UNL     1      44.548   2.635   9.914  0.00  0.00    +0.000 OA
ATOM      9  C   UNL     1      45.308   3.322   9.240  0.00  0.00    +0.000 C 
ATOM     10  N   UNL     1      45.583   4.645   9.515  0.00  0.00    +0.000 N 
ATOM     11  H   UNL     1      46.012   5.230   8.812  0.00  0.00    +0.000 HD
BRANCH   9  12
ATOM     12  C   UNL     1      45.956   2.739   8.039  0.00  0.00    +0.000 A 
ATOM     13  C   UNL     1      46.396   1.416   8.092  0.00  0.00    +0.000 A 
ATOM     14  C   UNL     1      47.022   0.894   6.976  0.00  0.00    +0.000 A 
ATOM     15  N   UNL     1      47.239   1.597   5.844  0.00  0.00    +0.000 NA
ATOM     16  C   UNL     1      46.824   2.882   5.830  0.00  0.00    +0.000 A 
ATOM     17  C   UNL     1      46.182   3.497   6.891  0.00  0.00    +0.000 A 
ENDBRANCH   9  12
ENDBRANCH   7  10
ENDBRANCH   1   7
BRANCH   4  18
ATOM     18  C   UNL     1      48.532   6.295  15.132  0.00  0.00    +0.000 C 
BRANCH  18  19
ATOM     19  N   UNL     1      48.121   7.442  15.904  0.00  0.00    +0.000 N 
ATOM     20  C   UNL     1      48.512   7.583  17.212  0.00  0.00    +0.000 C 
ATOM     21  O   UNL     1      49.252   6.767  17.758  0.00  0.00    +0.000 OA
ATOM     22  H   UNL     1      47.338   7.986  15.552  0.00  0.00    +0.000 HD
BRANCH  20  23
ATOM     23  C   UNL     1      48.054   8.788  17.917  0.00  0.00    +0.000 A 
ATOM     24  C   UNL     1      47.407   8.661  19.140  0.00  0.00    +0.000 A 
ATOM     25  S   UNL     1      46.988  10.153  19.851  0.00  0.00    +0.000 S 
ATOM     26  C   UNL     1      47.606  11.020  18.524  0.00  0.00    +0.000 A 
ATOM     27  N   UNL     1      47.538  12.378  18.484  0.00  0.00    +0.000 NA
ATOM     28  C   UNL     1      48.011  12.903  17.404  0.00  0.00    +0.000 A 
ATOM     29  N   UNL     1      48.553  12.194  16.363  0.00  0.00    +0.000 N 
ATOM     30  C   UNL     1      48.670  10.824  16.372  0.00  0.00    +0.000 A 
ATOM     31  O   UNL     1      49.195  10.222  15.441  0.00  0.00    +0.000 OA
ATOM     32  C   UNL     1      48.141  10.184  17.560  0.00  0.00    +0.000 A 
ATOM     33  H   UNL     1      48.913  12.668  15.547  0.00  0.00    +0.000 HD
ENDBRANCH  20  23
ENDBRANCH  18  19
ENDBRANCH   4  18
TORSDOF 6
ENDMDL
MODEL 9
REMARK VINA RESULT:    -7.139      4.086      6.923
REMARK INTER + INTRA:         -10.404
REMARK INTER:                  -9.441
REMARK INTRA:                  -0.962
REMARK UNBOUND:                -0.761
REMARK  Name = 
REMARK  6 active torsions:
REMARK  status: ('A' for Active; 'I' for Inactive)
REMARK    1  A    between atoms: C_2  and  C_25
REMARK    2  A    between atoms: N_3  and  C_4
REMARK    3  A    between atoms: C_4  and  C_5
REMARK    4  A    between atoms: C_8  and  C_9
REMARK    5  A    between atoms: C_9  and  N_10
REMARK    6  A    between atoms: C_11  and  C_13
REMARK                            x       y       z     vdW  Elec       q    Type
REMARK                         _______ _______ _______ _____ _____    ______ ____
ROOT
ATOM      1  C   UNL     1      44.973   9.274  11.868  0.00  0.00    +0.000 A 
ATOM      2  C   UNL     1      46.073   9.137  12.726  0.00  0.00    +0.000 A 
ATOM      3  C   UNL     1      46.517   7.871  13.125  0.00  0.00    +0.000 A 
ATOM      4  C   UNL     1      45.882   6.712  12.658  0.00  0.00    +0.000 A 
ATOM      5  C   UNL     1      44.779   6.850  11.804  0.00  0.00    +0.000 A 
ATOM      6  C   UNL     1      44.336   8.116  11.404  0.00  0.00    +0.000 A 
ENDROOT
BRANCH   1   7
ATOM      7  C   UNL     1      44.480  10.642  11.469  0.00  0.00    +0.000 C 
BRANCH   7  10
ATOM      8  O   UNL     1      42.152  10.467   9.964  0.00  0.00    +0.000 OA
ATOM      9  C   UNL     1      42.065  10.794  11.142  0.00  0.00    +0.000 C 
ATOM     10  N   UNL     1      43.156  10.926  11.977  0.00  0.00    +0.000 N 
ATOM     11  H   UNL     1      43.026  10.959  12.979  0.00  0.00    +0.000 HD
BRANCH   9  12
ATOM     12  C   UNL     1      40.730  11.038  11.742  0.00  0.00    +0.000 A 
ATOM     13  C   UNL     1      40.632  11.917  12.822  0.00  0.00    +0.000 A 
ATOM     14  C   UNL     1      39.386  12.115  13.387  0.00  0.00    +0.000 A 
ATOM     15  N   UNL     1      38.265  11.498  12.958  0.00  0.00    +0.000 NA
ATOM     16  C   UNL     1      38.394  10.634  11.928  0.00  0.00    +0.000 A 
ATOM     17  C   UNL     1      39.593  10.372  11.288  0.00  0.00    +0.000 A 
ENDBRANCH   9  12
ENDBRANCH   7  10
ENDBRANCH   1   7
BRANCH   4  18
ATOM     18  C   UNL     1      46.360   5.344  13.076  0.00  0.00    +0.000 C 
BRANCH  18  19
ATOM     19  N   UNL     1      46.880   5.339  14.421  0.00  0.00    +0.000 N 
ATOM     20  C   UNL     1      47.340   4.177  14.991  0.00  0.00    +0.000 C 
ATOM     21  O   UNL     1      47.361   3.116  14.370  0.00  0.00    +0.000 OA
ATOM     22  H   UNL     1      46.655   6.133  15.013  0.00  0.00    +0.000 HD
BRANCH  20  23
ATOM     23  C   UNL     1      47.861   4.269  16.361  0.00  0.00    +0.000 A 
ATOM     24  C   UNL     1      47.390   3.395  17.332  0.00  0.00    +0.000 A 
ATOM     25  S   UNL     1      48.133   3.597  18.854  0.00  0.00    +0.000 S 
ATOM     26  C   UNL     1      49.070   4.897  18.283  0.00  0.00    +0.000 A 
ATOM     27  N   UNL     1      49.926   5.557  19.109  0.00  0.00    +0.000 NA
ATOM     28  C   UNL     1      50.546   6.544  18.555  0.00  0.00    +0.000 A 
ATOM     29  N   UNL     1      50.393   6.928  17.247  0.00  0.00    +0.000 N 
ATOM     30  C   UNL     1      49.563   6.273  16.368  0.00  0.00    +0.000 A 
ATOM     31  O   UNL     1      49.478   6.618  15.194  0.00  0.00    +0.000 OA
ATOM     32  C   UNL     1      48.833   5.162  16.945  0.00  0.00    +0.000 A 
ATOM     33  H   UNL     1      50.915   7.708  16.874  0.00  0.00    +0.000 HD
ENDBRANCH  20  23
ENDBRANCH  18  19
ENDBRANCH   4  18
TORSDOF 6
ENDMDL
