MODEL 1
REMARK VINA RESULT:    -7.762      0.000      0.000
REMARK INTER + INTRA:         -12.021
REMARK INTER:                 -10.938
REMARK INTRA:                  -1.082
REMARK UNBOUND:                -1.082
REMARK  Name = 
REMARK  7 active torsions:
REMARK  status: ('A' for Active; 'I' for Inactive)
REMARK    1  A    between atoms: C_2  and  C_20
REMARK    2  A    between atoms: N_3  and  C_4
REMARK    3  A    between atoms: C_4  and  C_5
REMARK    4  A    between atoms: C_8  and  C_9
REMARK    5  A    between atoms: C_9  and  C_10
REMARK    6  A    between atoms: C_10  and  N_11
REMARK    7  A    between atoms: N_11  and  C_12
REMARK                            x       y       z     vdW  Elec       q    Type
REMARK                         _______ _______ _______ _____ _____    ______ ____
ROOT
ATOM      1  C   UNL     1      47.705   7.246  13.446  0.00  0.00    +0.000 C 
ENDROOT
BRANCH   1   2
ATOM      2  C   UNL     1      46.657   6.408  12.767  0.00  0.00    +0.000 A 
ATOM      3  C   UNL     1      45.897   6.953  11.728  0.00  0.00    +0.000 A 
ATOM      4  C   UNL     1      44.957   6.177  11.054  0.00  0.00    +0.000 A 
ATOM      5  C   UNL     1      44.757   4.835  11.398  0.00  0.00    +0.000 A 
ATOM      6  C   UNL     1      45.471   4.310  12.485  0.00  0.00    +0.000 A 
ATOM      7  C   UNL     1      46.410   5.088  13.164  0.00  0.00    +0.000 A 
BRANCH   5   8
ATOM      8  C   UNL     1      43.767   3.954  10.674  0.00  0.00    +0.000 C 
BRANCH   8   9
ATOM      9  C   UNL     1      44.331   2.983   9.625  0.00  0.00    +0.000 C 
BRANCH   9  10
ATOM     10  N   UNL     1      44.876   3.654   8.437  0.00  0.00    +0.000 NA
ATOM     11  H   UNL     1      45.440   4.458   8.712  0.00  0.00    +0.000 HD
BRANCH  10  12
ATOM     12  C   UNL     1      45.641   2.745   7.575  0.00  0.00    +0.000 C 
ATOM     13  C   UNL     1      46.124   1.490   8.311  0.00  0.00    +0.000 C 
ATOM     14  C   UNL     1      46.971   0.632   7.384  0.00  0.00    +0.000 C 
ATOM     15  O   UNL     1      48.076   1.375   6.877  0.00  0.00    +0.000 OA
ATOM     16  C   UNL     1      47.660   2.508   6.114  0.00  0.00    +0.000 C 
ATOM     17  C   UNL     1      46.852   3.475   6.974  0.00  0.00    +0.000 C 
ENDBRANCH  10  12
ENDBRANCH   9  10
ENDBRANCH   8   9
ENDBRANCH   5   8
ENDBRANCH   1   2
BRANCH   1  20
ATOM     18  O   UNL     1      50.189   6.925  14.760  0.00  0.00    +0.000 OA
ATOM     19  C   UNL     1      49.148   6.751  15.387  0.00  0.00    +0.000 C 
ATOM     20  N   UNL     1      47.909   6.830  14.808  0.00  0.00    +0.000 N 
ATOM     21  H   UNL     1      47.092   6.881  15.404  0.00  0.00    +0.000 HD
BRANCH  19  22
ATOM     22  C   UNL     1      49.163   6.382  16.809  0.00  0.00    +0.000 A 
ATOM     23  C   UNL     1      49.618   7.291  17.755  0.00  0.00    +0.000 A 
ATOM     24  S   UNL     1      49.600   6.683  19.348  0.00  0.00    +0.000 S 
ATOM     25  C   UNL     1      48.936   5.201  18.835  0.00  0.00    +0.000 A 
ATOM     26  N   UNL     1      48.642   4.220  19.729  0.00  0.00    +0.000 NA
ATOM     27  C   UNL     1      48.103   3.167  19.209  0.00  0.00    +0.000 A 
ATOM     28  N   UNL     1      47.841   3.003  17.873  0.00  0.00    +0.000 N 
ATOM     29  C   UNL     1      48.197   3.930  16.925  0.00  0.00    +0.000 A 
ATOM     30  O   UNL     1      48.075   3.690  15.729  0.00  0.00    +0.000 OA
ATOM     31  C   UNL     1      48.755   5.160  17.464  0.00  0.00    +0.000 A 
ATOM     32  H   UNL     1      47.450   2.141  17.525  0.00  0.00    +0.000 HD
ENDBRANCH  19  22
ENDBRANCH   1  20
TORSDOF 7
ENDMDL
MODEL 2
REMARK VINA RESULT:    -7.321      1.421      1.688
REMARK INTER + INTRA:         -11.399
REMARK INTER:                 -10.069
REMARK INTRA:                  -1.330
REMARK UNBOUND:                -1.082
REMARK  Name = 
REMARK  7 active torsions:
REMARK  status: ('A' for Active; 'I' for Inactive)
REMARK    1  A    between atoms: C_2  and  C_20
REMARK    2  A    between atoms: N_3  and  C_4
REMARK    3  A    between atoms: C_4  and  C_5
REMARK    4  A    between atoms: C_8  and  C_9
REMARK    5  A    between atoms: C_9  and  C_10
REMARK    6  A    between atoms: C_10  and  N_11
REMARK    7  A    between atoms: N_11  and  C_12
REMARK                            x       y       z     vdW  Elec       q    Type
REMARK                         _______ _______ _______ _____ _____    ______ ____
ROOT
ATOM      1  C   UNL     1      48.751   7.072  13.536  0.00  0.00    +0.000 C 
ENDROOT
BRANCH   1   2
ATOM      2  C   UNL     1      47.354   6.573  13.293  0.00  0.00    +0.000 A 
ATOM      3  C   UNL     1      46.346   7.474  12.936  0.00  0.00    +0.000 A 
ATOM      4  C   UNL     1      45.057   7.024  12.658  0.00  0.00    +0.000 A 
ATOM      5  C   UNL     1      44.745   5.661  12.726  0.00  0.00    +0.000 A 
ATOM      6  C   UNL     1      45.738   4.767  13.151  0.00  0.00    +0.000 A 
ATOM      7  C   UNL     1      47.029   5.217  13.434  0.00  0.00    +0.000 A 
BRANCH   5   8
ATOM      8  C   UNL     1      43.367   5.132  12.406  0.00  0.00    +0.000 C 
BRANCH   8   9
ATOM      9  C   UNL     1      43.199   4.373  11.080  0.00  0.00    +0.000 C 
BRANCH   9  10
ATOM     10  N   UNL     1      43.972   4.950   9.973  0.00  0.00    +0.000 NA
ATOM     11  H   UNL     1      44.742   5.512  10.333  0.00  0.00    +0.000 HD
BRANCH  10  12
ATOM     12  C   UNL     1      44.458   3.934   9.032  0.00  0.00    +0.000 C 
ATOM     13  C   UNL     1      44.794   2.602   9.713  0.00  0.00    +0.000 C 
ATOM     14  C   UNL     1      45.361   1.622   8.698  0.00  0.00    +0.000 C 
ATOM     15  O   UNL     1      46.513   2.166   8.060  0.00  0.00    +0.000 OA
ATOM     16  C   UNL     1      46.218   3.366   7.345  0.00  0.00    +0.000 C 
ATOM     17  C   UNL     1      45.700   4.447   8.288  0.00  0.00    +0.000 C 
ENDBRANCH  10  12
ENDBRANCH   9  10
ENDBRANCH   8   9
ENDBRANCH   5   8
ENDBRANCH   1   2
BRANCH   1  20
ATOM     18  O   UNL     1      48.226   8.843  15.678  0.00  0.00    +0.000 OA
ATOM     19  C   UNL     1      48.798   7.779  15.901  0.00  0.00    +0.000 C 
ATOM     20  N   UNL     1      49.139   6.897  14.910  0.00  0.00    +0.000 N 
ATOM     21  H   UNL     1      49.419   5.958  15.166  0.00  0.00    +0.000 HD
BRANCH  19  22
ATOM     22  C   UNL     1      49.214   7.404  17.259  0.00  0.00    +0.000 A 
ATOM     23  C   UNL     1      50.022   8.258  17.997  0.00  0.00    +0.000 A 
ATOM     24  S   UNL     1      50.435   7.647  19.534  0.00  0.00    +0.000 S 
ATOM     25  C   UNL     1      49.507   6.241  19.287  0.00  0.00    +0.000 A 
ATOM     26  N   UNL     1      49.410   5.289  20.253  0.00  0.00    +0.000 NA
ATOM     27  C   UNL     1      48.639   4.297  19.950  0.00  0.00    +0.000 A 
ATOM     28  N   UNL     1      47.966   4.166  18.763  0.00  0.00    +0.000 N 
ATOM     29  C   UNL     1      48.100   5.058  17.728  0.00  0.00    +0.000 A 
ATOM     30  O   UNL     1      47.594   4.838  16.633  0.00  0.00    +0.000 OA
ATOM     31  C   UNL     1      48.912   6.224  18.039  0.00  0.00    +0.000 A 
ATOM     32  H   UNL     1      47.405   3.348  18.573  0.00  0.00    +0.000 HD
ENDBRANCH  19  22
ENDBRANCH   1  20
TORSDOF 7
ENDMDL
MODEL 3
REMARK VINA RESULT:    -7.300      1.849      2.612
REMARK INTER + INTRA:         -11.370
REMARK INTER:                 -10.246
REMARK INTRA:                  -1.124
REMARK UNBOUND:                -1.082
REMARK  Name = 
REMARK  7 active torsions:
REMARK  status: ('A' for Active; 'I' for Inactive)
REMARK    1  A    between atoms: C_2  and  C_20
REMARK    2  A    between atoms: N_3  and  C_4
REMARK    3  A    between atoms: C_4  and  C_5
REMARK    4  A    between atoms: C_8  and  C_9
REMARK    5  A    between atoms: C_9  and  C_10
REMARK    6  A    between atoms: C_10  and  N_11
REMARK    7  A    between atoms: N_11  and  C_12
REMARK                            x       y       z     vdW  Elec       q    Type
REMARK                         _______ _______ _______ _____ _____    ______ ____
ROOT
ATOM      1  C   UNL     1      48.370   6.980  13.936  0.00  0.00    +0.000 C 
ENDROOT
BRANCH   1   2
ATOM      2  C   UNL     1      47.272   6.323  13.147  0.00  0.00    +0.000 A 
ATOM      3  C   UNL     1      46.698   5.136  13.613  0.00  0.00    +0.000 A 
ATOM      4  C   UNL     1      45.645   4.539  12.922  0.00  0.00    +0.000 A 
ATOM      5  C   UNL     1      45.138   5.115  11.753  0.00  0.00    +0.000 A 
ATOM      6  C   UNL     1      45.759   6.267  11.250  0.00  0.00    +0.000 A 
ATOM      7  C   UNL     1      46.817   6.865  11.939  0.00  0.00    +0.000 A 
BRANCH   5   8
ATOM      8  C   UNL     1      43.981   4.513  10.991  0.00  0.00    +0.000 C 
BRANCH   8   9
ATOM      9  C   UNL     1      44.166   4.319   9.477  0.00  0.00    +0.000 C 
BRANCH   9  10
ATOM     10  N   UNL     1      44.126   2.912   9.057  0.00  0.00    +0.000 NA
ATOM     11  H   UNL     1      43.185   2.658   8.756  0.00  0.00    +0.000 HD
BRANCH  10  12
ATOM     12  C   UNL     1      45.112   2.604   8.015  0.00  0.00    +0.000 C 
ATOM     13  C   UNL     1      46.015   1.418   8.378  0.00  0.00    +0.000 C 
ATOM     14  C   UNL     1      47.058   1.202   7.293  0.00  0.00    +0.000 C 
ATOM     15  O   UNL     1      47.833   2.382   7.095  0.00  0.00    +0.000 OA
ATOM     16  C   UNL     1      47.033   3.488   6.674  0.00  0.00    +0.000 C 
ATOM     17  C   UNL     1      45.987   3.834   7.729  0.00  0.00    +0.000 C 
ENDBRANCH  10  12
ENDBRANCH   9  10
ENDBRANCH   8   9
ENDBRANCH   5   8
ENDBRANCH   1   2
BRANCH   1  20
ATOM     18  O   UNL     1      50.466   6.466  15.764  0.00  0.00    +0.000 OA
ATOM     19  C   UNL     1      49.311   6.530  16.173  0.00  0.00    +0.000 C 
ATOM     20  N   UNL     1      48.237   6.716  15.343  0.00  0.00    +0.000 N 
ATOM     21  H   UNL     1      47.342   6.963  15.748  0.00  0.00    +0.000 HD
BRANCH  19  22
ATOM     22  C   UNL     1      48.991   6.347  17.596  0.00  0.00    +0.000 A 
ATOM     23  C   UNL     1      49.288   5.145  18.223  0.00  0.00    +0.000 A 
ATOM     24  S   UNL     1      48.817   5.096  19.861  0.00  0.00    +0.000 S 
ATOM     25  C   UNL     1      48.245   6.699  19.803  0.00  0.00    +0.000 A 
ATOM     26  N   UNL     1      47.724   7.297  20.908  0.00  0.00    +0.000 NA
ATOM     27  C   UNL     1      47.369   8.527  20.733  0.00  0.00    +0.000 A 
ATOM     28  N   UNL     1      47.479   9.211  19.550  0.00  0.00    +0.000 N 
ATOM     29  C   UNL     1      47.920   8.624  18.389  0.00  0.00    +0.000 A 
ATOM     30  O   UNL     1      47.874   9.224  17.320  0.00  0.00    +0.000 OA
ATOM     31  C   UNL     1      48.386   7.256  18.544  0.00  0.00    +0.000 A 
ATOM     32  H   UNL     1      47.152  10.162  19.469  0.00  0.00    +0.000 HD
ENDBRANCH  19  22
ENDBRANCH   1  20
TORSDOF 7
ENDMDL
MODEL 4
REMARK VINA RESULT:    -7.259      2.890      8.373
REMARK INTER + INTRA:         -11.311
REMARK INTER:                  -9.594
REMARK INTRA:                  -1.717
REMARK UNBOUND:                -1.082
REMARK  Name = 
REMARK  7 active torsions:
REMARK  status: ('A' for Active; 'I' for Inactive)
REMARK    1  A    between atoms: C_2  and  C_20
REMARK    2  A    between atoms: N_3  and  C_4
REMARK    3  A    between atoms: C_4  and  C_5
REMARK    4  A    between atoms: C_8  and  C_9
REMARK    5  A    between atoms: C_9  and  C_10
REMARK    6  A    between atoms: C_10  and  N_11
REMARK    7  A    between atoms: N_11  and  C_12
REMARK                            x       y       z     vdW  Elec       q    Type
REMARK                         _______ _______ _______ _____ _____    ______ ____
ROOT
ATOM      1  C   UNL     1      47.639   7.748  11.850  0.00  0.00    +0.000 C 
ENDROOT
BRANCH   1   2
ATOM      2  C   UNL     1      48.198   7.901  13.238  0.00  0.00    +0.000 A 
ATOM      3  C   UNL     1      47.651   8.850  14.107  0.00  0.00    +0.000 A 
ATOM      4  C   UNL     1      48.122   8.971  15.412  0.00  0.00    +0.000 A 
ATOM      5  C   UNL     1      49.148   8.143  15.883  0.00  0.00    +0.000 A 
ATOM      6  C   UNL     1      49.742   7.240  14.990  0.00  0.00    +0.000 A 
ATOM      7  C   UNL     1      49.273   7.120  13.680  0.00  0.00    +0.000 A 
BRANCH   5   8
ATOM      8  C   UNL     1      49.668   8.226  17.298  0.00  0.00    +0.000 C 
BRANCH   8   9
ATOM      9  C   UNL     1      49.324   7.061  18.239  0.00  0.00    +0.000 C 
BRANCH   9  10
ATOM     10  N   UNL     1      48.031   6.430  17.943  0.00  0.00    +0.000 NA
ATOM     11  H   UNL     1      47.599   6.870  17.131  0.00  0.00    +0.000 HD
BRANCH  10  12
ATOM     12  C   UNL     1      48.138   4.978  17.759  0.00  0.00    +0.000 C 
ATOM     13  C   UNL     1      49.576   4.463  17.900  0.00  0.00    +0.000 C 
ATOM     14  C   UNL     1      49.627   2.969  17.624  0.00  0.00    +0.000 C 
ATOM     15  O   UNL     1      49.113   2.677  16.327  0.00  0.00    +0.000 OA
ATOM     16  C   UNL     1      47.747   3.069  16.188  0.00  0.00    +0.000 C 
ATOM     17  C   UNL     1      47.591   4.574  16.382  0.00  0.00    +0.000 C 
ENDBRANCH  10  12
ENDBRANCH   9  10
ENDBRANCH   8   9
ENDBRANCH   5   8
ENDBRANCH   1   2
BRANCH   1  20
ATOM     18  O   UNL     1      44.832   7.453  12.043  0.00  0.00    +0.000 OA
ATOM     19  C   UNL     1      45.524   6.477  11.769  0.00  0.00    +0.000 C 
ATOM     20  N   UNL     1      46.892   6.526  11.716  0.00  0.00    +0.000 N 
ATOM     21  H   UNL     1      47.394   5.756  11.291  0.00  0.00    +0.000 HD
BRANCH  19  22
ATOM     22  C   UNL     1      44.926   5.156  11.536  0.00  0.00    +0.000 A 
ATOM     23  C   UNL     1      44.217   4.528  12.551  0.00  0.00    +0.000 A 
ATOM     24  S   UNL     1      43.623   2.989  12.118  0.00  0.00    +0.000 S 
ATOM     25  C   UNL     1      44.251   3.129  10.541  0.00  0.00    +0.000 A 
ATOM     26  N   UNL     1      44.067   2.142   9.624  0.00  0.00    +0.000 NA
ATOM     27  C   UNL     1      44.557   2.398   8.456  0.00  0.00    +0.000 A 
ATOM     28  N   UNL     1      45.224   3.549   8.125  0.00  0.00    +0.000 N 
ATOM     29  C   UNL     1      45.507   4.534   9.038  0.00  0.00    +0.000 A 
ATOM     30  O   UNL     1      46.225   5.484   8.742  0.00  0.00    +0.000 OA
ATOM     31  C   UNL     1      44.927   4.322  10.355  0.00  0.00    +0.000 A 
ATOM     32  H   UNL     1      45.614   3.674   7.203  0.00  0.00    +0.000 HD
ENDBRANCH  19  22
ENDBRANCH   1  20
TORSDOF 7
ENDMDL
MODEL 5
REMARK VINA RESULT:    -7.125      2.147      3.362
REMARK INTER + INTRA:         -11.123
REMARK INTER:                 -10.158
REMARK INTRA:                  -0.966
REMARK UNBOUND:                -1.082
REMARK  Name = 
REMARK  7 active torsions:
REMARK  status: ('A' for Active; 'I' for Inactive)
REMARK    1  A    between atoms: C_2  and  C_20
REMARK    2  A    between atoms: N_3  and  C_4
REMARK    3  A    between atoms: C_4  and  C_5
REMARK    4  A    between atoms: C_8  and  C_9
REMARK    5  A    between atoms: C_9  and  C_10
REMARK    6  A    between atoms: C_10  and  N_11
REMARK    7  A    between atoms: N_11  and  C_12
REMARK                            x       y       z     vdW  Elec       q    Type
REMARK                         _______ _______ _______ _____ _____    ______ ____
ROOT
ATOM      1  C   UNL     1      47.506   4.092  15.772  0.00  0.00    +0.000 C 
ENDROOT
BRANCH   1   2
ATOM      2  C   UNL     1      46.966   4.569  14.452  0.00  0.00    +0.000 A 
ATOM      3  C   UNL     1      47.412   5.781  13.916  0.00  0.00    +0.000 A 
ATOM      4  C   UNL     1      46.962   6.215  12.671  0.00  0.00    +0.000 A 
ATOM      5  C   UNL     1      46.059   5.445  11.929  0.00  0.00    +0.000 A 
ATOM      6  C   UNL     1      45.560   4.265  12.497  0.00  0.00    +0.000 A 
ATOM      7  C   UNL     1      46.008   3.831  13.747  0.00  0.00    +0.000 A 
BRANCH   5   8
ATOM      8  C   UNL     1      45.568   5.868  10.564  0.00  0.00    +0.000 C 
BRANCH   8   9
ATOM      9  C   UNL     1      44.940   4.780   9.679  0.00  0.00    +0.000 C 
BRANCH   9  10
ATOM     10  N   UNL     1      45.455   4.774   8.303  0.00  0.00    +0.000 NA
ATOM     11  H   UNL     1      46.309   5.328   8.242  0.00  0.00    +0.000 HD
BRANCH  10  12
ATOM     12  C   UNL     1      45.670   3.418   7.786  0.00  0.00    +0.000 C 
ATOM     13  C   UNL     1      45.639   2.348   8.884  0.00  0.00    +0.000 C 
ATOM     14  C   UNL     1      45.943   0.980   8.293  0.00  0.00    +0.000 C 
ATOM     15  O   UNL     1      47.205   0.985   7.631  0.00  0.00    +0.000 OA
ATOM     16  C   UNL     1      47.242   1.914   6.546  0.00  0.00    +0.000 C 
ATOM     17  C   UNL     1      47.012   3.338   7.042  0.00  0.00    +0.000 C 
ENDBRANCH  10  12
ENDBRANCH   9  10
ENDBRANCH   8   9
ENDBRANCH   5   8
ENDBRANCH   1   2
BRANCH   1  20
ATOM     18  O   UNL     1      49.723   5.599  16.673  0.00  0.00    +0.000 OA
ATOM     19  C   UNL     1      48.602   5.862  17.098  0.00  0.00    +0.000 C 
ATOM     20  N   UNL     1      47.488   5.141  16.756  0.00  0.00    +0.000 N 
ATOM     21  H   UNL     1      46.574   5.522  16.968  0.00  0.00    +0.000 HD
BRANCH  19  22
ATOM     22  C   UNL     1      48.385   6.947  18.065  0.00  0.00    +0.000 A 
ATOM     23  C   UNL     1      48.342   6.665  19.424  0.00  0.00    +0.000 A 
ATOM     24  S   UNL     1      48.047   8.035  20.395  0.00  0.00    +0.000 S 
ATOM     25  C   UNL     1      48.015   9.062  19.036  0.00  0.00    +0.000 A 
ATOM     26  N   UNL     1      47.826  10.401  19.176  0.00  0.00    +0.000 NA
ATOM     27  C   UNL     1      47.869  11.065  18.068  0.00  0.00    +0.000 A 
ATOM     28  N   UNL     1      48.073  10.509  16.832  0.00  0.00    +0.000 N 
ATOM     29  C   UNL     1      48.184   9.155  16.634  0.00  0.00    +0.000 A 
ATOM     30  O   UNL     1      48.226   8.682  15.503  0.00  0.00    +0.000 OA
ATOM     31  C   UNL     1      48.201   8.366  17.856  0.00  0.00    +0.000 A 
ATOM     32  H   UNL     1      48.061  11.079  16.000  0.00  0.00    +0.000 HD
ENDBRANCH  19  22
ENDBRANCH   1  20
TORSDOF 7
ENDMDL
MODEL 6
REMARK VINA RESULT:    -7.043      2.308      4.025
REMARK INTER + INTRA:         -11.007
REMARK INTER:                  -9.931
REMARK INTRA:                  -1.076
REMARK UNBOUND:                -1.082
REMARK  Name = 
REMARK  7 active torsions:
REMARK  status: ('A' for Active; 'I' for Inactive)
REMARK    1  A    between atoms: C_2  and  C_20
REMARK    2  A    between atoms: N_3  and  C_4
REMARK    3  A    between atoms: C_4  and  C_5
REMARK    4  A    between atoms: C_8  and  C_9
REMARK    5  A    between atoms: C_9  and  C_10
REMARK    6  A    between atoms: C_10  and  N_11
REMARK    7  A    between atoms: N_11  and  C_12
REMARK                            x       y       z     vdW  Elec       q    Type
REMARK                         _______ _______ _______ _____ _____    ______ ____
ROOT
ATOM      1  C   UNL     1      47.069   4.783  14.494  0.00  0.00    +0.000 C 
ENDROOT
BRANCH   1   2
ATOM      2  C   UNL     1      46.291   4.735  13.209  0.00  0.00    +0.000 A 
ATOM      3  C   UNL     1      45.627   3.560  12.843  0.00  0.00    +0.000 A 
ATOM      4  C   UNL     1      44.859   3.512  11.681  0.00  0.00    +0.000 A 
ATOM      5  C   UNL     1      44.732   4.638  10.860  0.00  0.00    +0.000 A 
ATOM      6  C   UNL     1      45.453   5.793  11.192  0.00  0.00    +0.000 A 
ATOM      7  C   UNL     1      46.226   5.842  12.354  0.00  0.00    +0.000 A 
BRANCH   5   8
ATOM      8  C   UNL     1      43.888   4.633   9.607  0.00  0.00    +0.000 C 
BRANCH   8   9
ATOM      9  C   UNL     1      44.458   3.899   8.383  0.00  0.00    +0.000 C 
BRANCH   9  10
ATOM     10  N   UNL     1      45.756   4.423   7.937  0.00  0.00    +0.000 NA
ATOM     11  H   UNL     1      46.168   5.012   8.660  0.00  0.00    +0.000 HD
BRANCH  10  12
ATOM     12  C   UNL     1      46.685   3.362   7.531  0.00  0.00    +0.000 C 
ATOM     13  C   UNL     1      46.871   3.279   6.011  0.00  0.00    +0.000 C 
ATOM     14  C   UNL     1      47.782   2.116   5.656  0.00  0.00    +0.000 C 
ATOM     15  O   UNL     1      47.261   0.891   6.167  0.00  0.00    +0.000 OA
ATOM     16  C   UNL     1      47.154   0.904   7.592  0.00  0.00    +0.000 C 
ATOM     17  C   UNL     1      46.202   2.001   8.055  0.00  0.00    +0.000 C 
ENDBRANCH  10  12
ENDBRANCH   9  10
ENDBRANCH   8   9
ENDBRANCH   5   8
ENDBRANCH   1   2
BRANCH   1  20
ATOM     18  O   UNL     1      48.573   5.655  16.725  0.00  0.00    +0.000 OA
ATOM     19  C   UNL     1      48.621   6.294  15.679  0.00  0.00    +0.000 C 
ATOM     20  N   UNL     1      47.877   5.970  14.575  0.00  0.00    +0.000 N 
ATOM     21  H   UNL     1      48.105   6.400  13.687  0.00  0.00    +0.000 HD
BRANCH  19  22
ATOM     22  C   UNL     1      49.446   7.504  15.557  0.00  0.00    +0.000 A 
ATOM     23  C   UNL     1      50.724   7.527  16.100  0.00  0.00    +0.000 A 
ATOM     24  S   UNL     1      51.523   9.020  15.897  0.00  0.00    +0.000 S 
ATOM     25  C   UNL     1      50.207   9.671  15.034  0.00  0.00    +0.000 A 
ATOM     26  N   UNL     1      50.254  10.936  14.538  0.00  0.00    +0.000 NA
ATOM     27  C   UNL     1      49.206  11.286  13.867  0.00  0.00    +0.000 A 
ATOM     28  N   UNL     1      48.112  10.488  13.655  0.00  0.00    +0.000 N 
ATOM     29  C   UNL     1      47.985   9.237  14.206  0.00  0.00    +0.000 A 
ATOM     30  O   UNL     1      46.937   8.607  14.112  0.00  0.00    +0.000 OA
ATOM     31  C   UNL     1      49.162   8.772  14.924  0.00  0.00    +0.000 A 
ATOM     32  H   UNL     1      47.310  10.833  13.150  0.00  0.00    +0.000 HD
ENDBRANCH  19  22
ENDBRANCH   1  20
TORSDOF 7
ENDMDL
MODEL 7
REMARK VINA RESULT:    -6.964      3.576      8.176
REMARK INTER + INTRA:         -10.897
REMARK INTER:                  -9.383
REMARK INTRA:                  -1.514
REMARK UNBOUND:                -1.082
REMARK  Name = 
REMARK  7 active torsions:
REMARK  status: ('A' for Active; 'I' for Inactive)
REMARK    1  A    between atoms: C_2  and  C_20
REMARK    2  A    between atoms: N_3  and  C_4
REMARK    3  A    between atoms: C_4  and  C_5
REMARK    4  A    between atoms: C_8  and  C_9
REMARK    5  A    between atoms: C_9  and  C_10
REMARK    6  A    between atoms: C_10  and  N_11
REMARK    7  A    between atoms: N_11  and  C_12
REMARK                            x       y       z     vdW  Elec       q    Type
REMARK                         _______ _______ _______ _____ _____    ______ ____
ROOT
ATOM      1  C   UNL     1      48.369   8.060  11.984  0.00  0.00    +0.000 C 
ENDROOT
BRANCH   1   2
ATOM      2  C   UNL     1      48.543   7.999  13.476  0.00  0.00    +0.000 A 
ATOM      3  C   UNL     1      48.070   9.045  14.274  0.00  0.00    +0.000 A 
ATOM      4  C   UNL     1      48.177   8.984  15.661  0.00  0.00    +0.000 A 
ATOM      5  C   UNL     1      48.756   7.873  16.286  0.00  0.00    +0.000 A 
ATOM      6  C   UNL     1      49.292   6.857  15.482  0.00  0.00    +0.000 A 
ATOM      7  C   UNL     1      49.189   6.919  14.091  0.00  0.00    +0.000 A 
BRANCH   5   8
ATOM      8  C   UNL     1      48.867   7.758  17.788  0.00  0.00    +0.000 C 
BRANCH   8   9
ATOM      9  C   UNL     1      49.683   6.578  18.340  0.00  0.00    +0.000 C 
BRANCH   9  10
ATOM     10  N   UNL     1      48.884   5.632  19.130  0.00  0.00    +0.000 NA
ATOM     11  H   UNL     1      47.933   5.980  19.246  0.00  0.00    +0.000 HD
BRANCH  10  12
ATOM     12  C   UNL     1      48.882   4.279  18.560  0.00  0.00    +0.000 C 
ATOM     13  C   UNL     1      50.220   3.902  17.913  0.00  0.00    +0.000 C 
ATOM     14  C   UNL     1      50.126   2.524  17.277  0.00  0.00    +0.000 C 
ATOM     15  O   UNL     1      49.073   2.481  16.318  0.00  0.00    +0.000 OA
ATOM     16  C   UNL     1      47.798   2.746  16.905  0.00  0.00    +0.000 C 
ATOM     17  C   UNL     1      47.762   4.141  17.518  0.00  0.00    +0.000 C 
ENDBRANCH  10  12
ENDBRANCH   9  10
ENDBRANCH   8   9
ENDBRANCH   5   8
ENDBRANCH   1   2
BRANCH   1  20
ATOM     18  O   UNL     1      45.554   7.899  11.754  0.00  0.00    +0.000 OA
ATOM     19  C   UNL     1      46.246   6.961  11.367  0.00  0.00    +0.000 C 
ATOM     20  N   UNL     1      47.609   6.939  11.498  0.00  0.00    +0.000 N 
ATOM     21  H   UNL     1      48.139   6.246  10.984  0.00  0.00    +0.000 HD
BRANCH  19  22
ATOM     22  C   UNL     1      45.643   5.756  10.782  0.00  0.00    +0.000 A 
ATOM     23  C   UNL     1      45.833   5.470   9.437  0.00  0.00    +0.000 A 
ATOM     24  S   UNL     1      45.033   4.054   8.922  0.00  0.00    +0.000 S 
ATOM     25  C   UNL     1      44.446   3.747  10.491  0.00  0.00    +0.000 A 
ATOM     26  N   UNL     1      43.693   2.646  10.753  0.00  0.00    +0.000 NA
ATOM     27  C   UNL     1      43.352   2.513  11.993  0.00  0.00    +0.000 A 
ATOM     28  N   UNL     1      43.689   3.389  12.992  0.00  0.00    +0.000 N 
ATOM     29  C   UNL     1      44.375   4.556  12.761  0.00  0.00    +0.000 A 
ATOM     30  O   UNL     1      44.537   5.382  13.652  0.00  0.00    +0.000 OA
ATOM     31  C   UNL     1      44.832   4.724  11.391  0.00  0.00    +0.000 A 
ATOM     32  H   UNL     1      43.362   3.248  13.936  0.00  0.00    +0.000 HD
ENDBRANCH  19  22
ENDBRANCH   1  20
TORSDOF 7
ENDMDL
MODEL 8
REMARK VINA RESULT:    -6.880      2.793      4.005
REMARK INTER + INTRA:         -10.778
REMARK INTER:                  -9.792
REMARK INTRA:                  -0.986
REMARK UNBOUND:                -1.082
REMARK  Name = 
REMARK  7 active torsions:
REMARK  status: ('A' for Active; 'I' for Inactive)
REMARK    1  A    between atoms: C_2  and  C_20
REMARK    2  A    between atoms: N_3  and  C_4
REMARK    3  A    between atoms: C_4  and  C_5
REMARK    4  A    between atoms: C_8  and  C_9
REMARK    5  A    between atoms: C_9  and  C_10
REMARK    6  A    between atoms: C_10  and  N_11
REMARK    7  A    between atoms: N_11  and  C_12
REMARK                            x       y       z     vdW  Elec       q    Type
REMARK                         _______ _______ _______ _____ _____    ______ ____
ROOT
ATOM      1  C   UNL     1      47.345   5.337  14.389  0.00  0.00    +0.000 C 
ENDROOT
BRANCH   1   2
ATOM      2  C   UNL     1      46.479   5.136  13.177  0.00  0.00    +0.000 A 
ATOM      3  C   UNL     1      45.939   3.873  12.911  0.00  0.00    +0.000 A 
ATOM      4  C   UNL     1      45.093   3.679  11.821  0.00  0.00    +0.000 A 
ATOM      5  C   UNL     1      44.762   4.742  10.974  0.00  0.00    +0.000 A 
ATOM      6  C   UNL     1      45.357   5.990  11.202  0.00  0.00    +0.000 A 
ATOM      7  C   UNL     1      46.209   6.186  12.291  0.00  0.00    +0.000 A 
BRANCH   5   8
ATOM      8  C   UNL     1      43.828   4.577   9.798  0.00  0.00    +0.000 C 
BRANCH   8   9
ATOM      9  C   UNL     1      44.375   3.832   8.570  0.00  0.00    +0.000 C 
BRANCH   9  10
ATOM     10  N   UNL     1      45.630   4.394   8.055  0.00  0.00    +0.000 NA
ATOM     11  H   UNL     1      46.046   5.021   8.742  0.00  0.00    +0.000 HD
BRANCH  10  12
ATOM     12  C   UNL     1      46.585   3.359   7.642  0.00  0.00    +0.000 C 
ATOM     13  C   UNL     1      46.814   3.328   6.125  0.00  0.00    +0.000 C 
ATOM     14  C   UNL     1      47.751   2.189   5.759  0.00  0.00    +0.000 C 
ATOM     15  O   UNL     1      47.234   0.942   6.215  0.00  0.00    +0.000 OA
ATOM     16  C   UNL     1      47.087   0.906   7.636  0.00  0.00    +0.000 C 
ATOM     17  C   UNL     1      46.107   1.976   8.107  0.00  0.00    +0.000 C 
ENDBRANCH  10  12
ENDBRANCH   9  10
ENDBRANCH   8   9
ENDBRANCH   5   8
ENDBRANCH   1   2
BRANCH   1  20
ATOM     18  O   UNL     1      49.581   6.746  13.382  0.00  0.00    +0.000 OA
ATOM     19  C   UNL     1      48.727   7.350  14.023  0.00  0.00    +0.000 C 
ATOM     20  N   UNL     1      47.647   6.728  14.593  0.00  0.00    +0.000 N 
ATOM     21  H   UNL     1      46.878   7.294  14.930  0.00  0.00    +0.000 HD
BRANCH  19  22
ATOM     22  C   UNL     1      48.838   8.793  14.278  0.00  0.00    +0.000 A 
ATOM     23  C   UNL     1      49.025   9.670  13.218  0.00  0.00    +0.000 A 
ATOM     24  S   UNL     1      49.168  11.300  13.700  0.00  0.00    +0.000 S 
ATOM     25  C   UNL     1      48.935  10.895  15.338  0.00  0.00    +0.000 A 
ATOM     26  N   UNL     1      48.917  11.856  16.300  0.00  0.00    +0.000 NA
ATOM     27  C   UNL     1      48.688  11.414  17.492  0.00  0.00    +0.000 A 
ATOM     28  N   UNL     1      48.485  10.096  17.811  0.00  0.00    +0.000 N 
ATOM     29  C   UNL     1      48.577   9.084  16.887  0.00  0.00    +0.000 A 
ATOM     30  O   UNL     1      48.528   7.908  17.231  0.00  0.00    +0.000 OA
ATOM     31  C   UNL     1      48.777   9.533  15.519  0.00  0.00    +0.000 A 
ATOM     32  H   UNL     1      48.344   9.810  18.768  0.00  0.00    +0.000 HD
ENDBRANCH  19  22
ENDBRANCH   1  20
TORSDOF 7
ENDMDL
MODEL 9
REMARK VINA RESULT:    -6.810      4.007      9.940
REMARK INTER + INTRA:         -10.679
REMARK INTER:                  -9.391
REMARK INTRA:                  -1.288
REMARK UNBOUND:                -1.082
REMARK  Name = 
REMARK  7 active torsions:
REMARK  status: ('A' for Active; 'I' for Inactive)
REMARK    1  A    between atoms: C_2  and  C_20
REMARK    2  A    between atoms: N_3  and  C_4
REMARK    3  A    between atoms: C_4  and  C_5
REMARK    4  A    between atoms: C_8  and  C_9
REMARK    5  A    between atoms: C_9  and  C_10
REMARK    6  A    between atoms: C_10  and  N_11
REMARK    7  A    between atoms: N_11  and  C_12
REMARK                            x       y       z     vdW  Elec       q    Type
REMARK                         _______ _______ _______ _____ _____    ______ ____
ROOT
ATOM      1  C   UNL     1      47.186   3.480  16.857  0.00  0.00    +0.000 C 
ENDROOT
BRANCH   1   2
ATOM      2  C   UNL     1      48.668   3.479  17.109  0.00  0.00    +0.000 A 
ATOM      3  C   UNL     1      49.319   4.675  17.430  0.00  0.00    +0.000 A 
ATOM      4  C   UNL     1      50.682   4.686  17.716  0.00  0.00    +0.000 A 
ATOM      5  C   UNL     1      51.428   3.502  17.693  0.00  0.00    +0.000 A 
ATOM      6  C   UNL     1      50.789   2.316  17.304  0.00  0.00    +0.000 A 
ATOM      7  C   UNL     1      49.423   2.304  17.013  0.00  0.00    +0.000 A 
BRANCH   5   8
ATOM      8  C   UNL     1      52.902   3.469  18.023  0.00  0.00    +0.000 C 
BRANCH   8   9
ATOM      9  C   UNL     1      53.540   4.781  18.504  0.00  0.00    +0.000 C 
BRANCH   9  10
ATOM     10  N   UNL     1      53.956   4.749  19.912  0.00  0.00    +0.000 NA
ATOM     11  H   UNL     1      54.922   5.064  20.004  0.00  0.00    +0.000 HD
BRANCH  10  12
ATOM     12  C   UNL     1      53.066   5.525  20.783  0.00  0.00    +0.000 C 
ATOM     13  C   UNL     1      51.883   4.704  21.312  0.00  0.00    +0.000 C 
ATOM     14  C   UNL     1      50.962   5.583  22.142  0.00  0.00    +0.000 C 
ATOM     15  O   UNL     1      50.502   6.695  21.378  0.00  0.00    +0.000 OA
ATOM     16  C   UNL     1      51.575   7.530  20.939  0.00  0.00    +0.000 C 
ATOM     17  C   UNL     1      52.530   6.756  20.037  0.00  0.00    +0.000 C 
ENDBRANCH  10  12
ENDBRANCH   9  10
ENDBRANCH   8   9
ENDBRANCH   5   8
ENDBRANCH   1   2
BRANCH   1  20
ATOM     18  O   UNL     1      47.261   3.105  14.055  0.00  0.00    +0.000 OA
ATOM     19  C   UNL     1      46.838   4.163  14.510  0.00  0.00    +0.000 C 
ATOM     20  N   UNL     1      46.825   4.443  15.852  0.00  0.00    +0.000 N 
ATOM     21  H   UNL     1      46.283   5.232  16.182  0.00  0.00    +0.000 HD
BRANCH  19  22
ATOM     22  C   UNL     1      46.365   5.241  13.631  0.00  0.00    +0.000 A 
ATOM     23  C   UNL     1      47.176   6.341  13.387  0.00  0.00    +0.000 A 
ATOM     24  S   UNL     1      46.454   7.508  12.375  0.00  0.00    +0.000 S 
ATOM     25  C   UNL     1      45.052   6.560  12.187  0.00  0.00    +0.000 A 
ATOM     26  N   UNL     1      44.024   6.979  11.400  0.00  0.00    +0.000 NA
ATOM     27  C   UNL     1      43.043   6.143  11.312  0.00  0.00    +0.000 A 
ATOM     28  N   UNL     1      42.992   4.930  11.948  0.00  0.00    +0.000 N 
ATOM     29  C   UNL     1      43.966   4.503  12.817  0.00  0.00    +0.000 A 
ATOM     30  O   UNL     1      43.822   3.477  13.473  0.00  0.00    +0.000 OA
ATOM     31  C   UNL     1      45.121   5.382  12.907  0.00  0.00    +0.000 A 
ATOM     32  H   UNL     1      42.181   4.336  11.866  0.00  0.00    +0.000 HD
ENDBRANCH  19  22
ENDBRANCH   1  20
TORSDOF 7
ENDMDL
