MODEL 1
REMARK VINA RESULT:    -8.986      0.000      0.000
REMARK INTER + INTRA:         -13.165
REMARK INTER:                 -12.137
REMARK INTRA:                  -1.028
REMARK UNBOUND:                -1.028
REMARK  Name = 
REMARK  8 active torsions:
REMARK  status: ('A' for Active; 'I' for Inactive)
REMARK    1  A    between atoms: C_1  and  C_2
REMARK    2  A    between atoms: C_2  and  C_3
REMARK    3  A    between atoms: C_2  and  C_4
REMARK    4  A    between atoms: C_2  and  C_15
REMARK    5  A    between atoms: C_4  and  O_5
REMARK    6  A    between atoms: O_5  and  C_6
REMARK    7  A    between atoms: C_9  and  C_10
REMARK    8  A    between atoms: C_19  and  C_20
REMARK                            x       y       z     vdW  Elec       q    Type
REMARK                         _______ _______ _______ _____ _____    ______ ____
ROOT
ATOM      1  C   UNL     1      42.577   5.435  12.528  0.00  0.00    +0.000 C 
ATOM      2  C   UNL     1      43.747   4.564  12.020  0.00  0.00    +0.000 C 
ATOM      3  C   UNL     1      43.620   3.184  12.710  0.00  0.00    +0.000 C 
ENDROOT
BRANCH   2   4
ATOM      4  C   UNL     1      45.131   5.164  12.346  0.00  0.00    +0.000 A 
ATOM      5  C   UNL     1      45.747   6.149  11.566  0.00  0.00    +0.000 A 
ATOM      6  C   UNL     1      46.976   6.693  11.941  0.00  0.00    +0.000 A 
ATOM      7  C   UNL     1      47.618   6.255  13.101  0.00  0.00    +0.000 A 
ATOM      8  C   UNL     1      47.040   5.283  13.934  0.00  0.00    +0.000 A 
ATOM      9  C   UNL     1      45.802   4.756  13.519  0.00  0.00    +0.000 A 
BRANCH   8  10
ATOM     10  C   UNL     1      47.629   4.935  15.259  0.00  0.00    +0.000 A 
ATOM     11  C   UNL     1      47.359   3.654  15.795  0.00  0.00    +0.000 A 
ATOM     12  C   UNL     1      47.952   3.194  16.974  0.00  0.00    +0.000 A 
ATOM     13  C   UNL     1      48.862   3.996  17.648  0.00  0.00    +0.000 A 
ATOM     14  C   UNL     1      49.138   5.271  17.165  0.00  0.00    +0.000 A 
ATOM     15  C   UNL     1      48.511   5.752  16.004  0.00  0.00    +0.000 A 
ATOM     16 CL   UNL     1      48.863   7.405  15.608  0.00  0.00    +0.000 Cl
ENDBRANCH   8  10
ENDBRANCH   2   4
BRANCH   2  17
ATOM     17  C   UNL     1      43.588   4.391  10.482  0.00  0.00    +0.000 C 
BRANCH  17  18
ATOM     18  O   UNL     1      43.718   3.006  10.112  0.00  0.00    +0.000 OA
BRANCH  18  19
ATOM     19  C   UNL     1      44.683   2.805   9.149  0.00  0.00    +0.000 A 
ATOM     20  C   UNL     1      45.078   3.900   8.397  0.00  0.00    +0.000 A 
ATOM     21  C   UNL     1      46.063   3.712   7.426  0.00  0.00    +0.000 A 
ATOM     22  C   UNL     1      46.628   2.444   7.243  0.00  0.00    +0.000 A 
ATOM     23  C   UNL     1      46.161   1.419   8.049  0.00  0.00    +0.000 A 
ATOM     24  N   UNL     1      45.205   1.573   8.993  0.00  0.00    +0.000 NA
BRANCH  22  25
ATOM     25  C   UNL     1      47.681   2.248   6.220  0.00  0.00    +0.000 C 
ATOM     26  N   UNL     1      47.752   3.119   5.166  0.00  0.00    +0.000 N 
ATOM     27  O   UNL     1      48.476   1.328   6.306  0.00  0.00    +0.000 OA
ATOM     28  H   UNL     1      47.157   3.917   5.004  0.00  0.00    +0.000 HD
ATOM     29  H   UNL     1      48.492   2.956   4.495  0.00  0.00    +0.000 HD
ENDBRANCH  22  25
ENDBRANCH  18  19
ENDBRANCH  17  18
ENDBRANCH   2  17
TORSDOF 6
ENDMDL
MODEL 2
REMARK VINA RESULT:    -8.801      1.879      3.743
REMARK INTER + INTRA:         -12.916
REMARK INTER:                 -11.857
REMARK INTRA:                  -1.059
REMARK UNBOUND:                -1.028
REMARK  Name = 
REMARK  8 active torsions:
REMARK  status: ('A' for Active; 'I' for Inactive)
REMARK    1  A    between atoms: C_1  and  C_2
REMARK    2  A    between atoms: C_2  and  C_3
REMARK    3  A    between atoms: C_2  and  C_4
REMARK    4  A    between atoms: C_2  and  C_15
REMARK    5  A    between atoms: C_4  and  O_5
REMARK    6  A    between atoms: O_5  and  C_6
REMARK    7  A    between atoms: C_9  and  C_10
REMARK    8  A    between atoms: C_19  and  C_20
REMARK                            x       y       z     vdW  Elec       q    Type
REMARK                         _______ _______ _______ _____ _____    ______ ____
ROOT
ATOM      1  C   UNL     1      42.693   5.365  12.882  0.00  0.00    +0.000 C 
ATOM      2  C   UNL     1      43.929   4.689  12.248  0.00  0.00    +0.000 C 
ATOM      3  C   UNL     1      43.861   3.186  12.610  0.00  0.00    +0.000 C 
ENDROOT
BRANCH   2   4
ATOM      4  C   UNL     1      45.263   5.270  12.763  0.00  0.00    +0.000 A 
ATOM      5  C   UNL     1      46.156   4.554  13.569  0.00  0.00    +0.000 A 
ATOM      6  C   UNL     1      47.372   5.115  13.961  0.00  0.00    +0.000 A 
ATOM      7  C   UNL     1      47.716   6.408  13.561  0.00  0.00    +0.000 A 
ATOM      8  C   UNL     1      46.869   7.168  12.737  0.00  0.00    +0.000 A 
ATOM      9  C   UNL     1      45.650   6.569  12.367  0.00  0.00    +0.000 A 
BRANCH   8  10
ATOM     10  C   UNL     1      47.299   8.475  12.163  0.00  0.00    +0.000 A 
ATOM     11  C   UNL     1      46.367   9.539  12.150  0.00  0.00    +0.000 A 
ATOM     12  C   UNL     1      46.707  10.830  11.735  0.00  0.00    +0.000 A 
ATOM     13  C   UNL     1      48.008  11.108  11.342  0.00  0.00    +0.000 A 
ATOM     14  C   UNL     1      48.949  10.085  11.321  0.00  0.00    +0.000 A 
ATOM     15  C   UNL     1      48.599   8.778  11.696  0.00  0.00    +0.000 A 
ATOM     16 CL   UNL     1      49.850   7.592  11.490  0.00  0.00    +0.000 Cl
ENDBRANCH   8  10
ENDBRANCH   2   4
BRANCH   2  17
ATOM     17  C   UNL     1      43.834   4.855  10.705  0.00  0.00    +0.000 C 
BRANCH  17  18
ATOM     18  O   UNL     1      43.587   3.586  10.072  0.00  0.00    +0.000 OA
BRANCH  18  19
ATOM     19  C   UNL     1      44.580   3.238   9.182  0.00  0.00    +0.000 A 
ATOM     20  C   UNL     1      45.158   4.253   8.436  0.00  0.00    +0.000 A 
ATOM     21  C   UNL     1      46.173   3.915   7.539  0.00  0.00    +0.000 A 
ATOM     22  C   UNL     1      46.582   2.581   7.421  0.00  0.00    +0.000 A 
ATOM     23  C   UNL     1      45.938   1.646   8.214  0.00  0.00    +0.000 A 
ATOM     24  N   UNL     1      44.950   1.946   9.087  0.00  0.00    +0.000 NA
BRANCH  22  25
ATOM     25  C   UNL     1      47.667   2.225   6.476  0.00  0.00    +0.000 C 
ATOM     26  N   UNL     1      47.781   2.922   5.303  0.00  0.00    +0.000 N 
ATOM     27  O   UNL     1      48.450   1.326   6.730  0.00  0.00    +0.000 OA
ATOM     28  H   UNL     1      47.199   3.689   5.001  0.00  0.00    +0.000 HD
ATOM     29  H   UNL     1      48.541   2.655   4.691  0.00  0.00    +0.000 HD
ENDBRANCH  22  25
ENDBRANCH  18  19
ENDBRANCH  17  18
ENDBRANCH   2  17
TORSDOF 6
ENDMDL
MODEL 3
REMARK VINA RESULT:    -8.106      3.147      5.299
REMARK INTER + INTRA:         -11.978
REMARK INTER:                 -11.284
REMARK INTRA:                  -0.693
REMARK UNBOUND:                -1.028
REMARK  Name = 
REMARK  8 active torsions:
REMARK  status: ('A' for Active; 'I' for Inactive)
REMARK    1  A    between atoms: C_1  and  C_2
REMARK    2  A    between atoms: C_2  and  C_3
REMARK    3  A    between atoms: C_2  and  C_4
REMARK    4  A    between atoms: C_2  and  C_15
REMARK    5  A    between atoms: C_4  and  O_5
REMARK    6  A    between atoms: O_5  and  C_6
REMARK    7  A    between atoms: C_9  and  C_10
REMARK    8  A    between atoms: C_19  and  C_20
REMARK                            x       y       z     vdW  Elec       q    Type
REMARK                         _______ _______ _______ _____ _____    ______ ____
ROOT
ATOM      1  C   UNL     1      43.128   4.758  13.071  0.00  0.00    +0.000 C 
ATOM      2  C   UNL     1      44.332   5.019  12.139  0.00  0.00    +0.000 C 
ATOM      3  C   UNL     1      45.417   3.975  12.496  0.00  0.00    +0.000 C 
ENDROOT
BRANCH   2   4
ATOM      4  C   UNL     1      44.923   6.435  12.304  0.00  0.00    +0.000 A 
ATOM      5  C   UNL     1      46.098   6.702  13.016  0.00  0.00    +0.000 A 
ATOM      6  C   UNL     1      46.613   7.997  13.086  0.00  0.00    +0.000 A 
ATOM      7  C   UNL     1      45.957   9.054  12.450  0.00  0.00    +0.000 A 
ATOM      8  C   UNL     1      44.784   8.845  11.706  0.00  0.00    +0.000 A 
ATOM      9  C   UNL     1      44.295   7.526  11.663  0.00  0.00    +0.000 A 
BRANCH   8  10
ATOM     10  C   UNL     1      44.174   9.928  10.883  0.00  0.00    +0.000 A 
ATOM     11  C   UNL     1      42.817   9.797  10.505  0.00  0.00    +0.000 A 
ATOM     12  C   UNL     1      42.125  10.807   9.830  0.00  0.00    +0.000 A 
ATOM     13  C   UNL     1      42.765  12.001   9.531  0.00  0.00    +0.000 A 
ATOM     14  C   UNL     1      44.106  12.161   9.866  0.00  0.00    +0.000 A 
ATOM     15  C   UNL     1      44.814  11.132  10.507  0.00  0.00    +0.000 A 
ATOM     16 CL   UNL     1      46.507  11.437  10.739  0.00  0.00    +0.000 Cl
ENDBRANCH   8  10
ENDBRANCH   2   4
BRANCH   2  17
ATOM     17  C   UNL     1      43.865   4.801  10.672  0.00  0.00    +0.000 C 
BRANCH  17  18
ATOM     18  O   UNL     1      43.897   3.403  10.332  0.00  0.00    +0.000 OA
BRANCH  18  19
ATOM     19  C   UNL     1      44.800   3.124   9.329  0.00  0.00    +0.000 A 
ATOM     20  C   UNL     1      45.298   4.191   8.598  0.00  0.00    +0.000 A 
ATOM     21  C   UNL     1      46.223   3.923   7.587  0.00  0.00    +0.000 A 
ATOM     22  C   UNL     1      46.626   2.604   7.344  0.00  0.00    +0.000 A 
ATOM     23  C   UNL     1      46.066   1.613   8.133  0.00  0.00    +0.000 A 
ATOM     24  N   UNL     1      45.166   1.846   9.116  0.00  0.00    +0.000 NA
BRANCH  22  25
ATOM     25  C   UNL     1      47.614   2.322   6.278  0.00  0.00    +0.000 C 
ATOM     26  N   UNL     1      47.587   3.071   5.131  0.00  0.00    +0.000 N 
ATOM     27  O   UNL     1      48.444   1.438   6.409  0.00  0.00    +0.000 OA
ATOM     28  H   UNL     1      46.956   3.830   4.925  0.00  0.00    +0.000 HD
ATOM     29  H   UNL     1      48.286   2.853   4.433  0.00  0.00    +0.000 HD
ENDBRANCH  22  25
ENDBRANCH  18  19
ENDBRANCH  17  18
ENDBRANCH   2  17
TORSDOF 6
ENDMDL
MODEL 4
REMARK VINA RESULT:    -8.061      1.947      2.525
REMARK INTER + INTRA:         -11.917
REMARK INTER:                 -10.785
REMARK INTRA:                  -1.132
REMARK UNBOUND:                -1.028
REMARK  Name = 
REMARK  8 active torsions:
REMARK  status: ('A' for Active; 'I' for Inactive)
REMARK    1  A    between atoms: C_1  and  C_2
REMARK    2  A    between atoms: C_2  and  C_3
REMARK    3  A    between atoms: C_2  and  C_4
REMARK    4  A    between atoms: C_2  and  C_15
REMARK    5  A    between atoms: C_4  and  O_5
REMARK    6  A    between atoms: O_5  and  C_6
REMARK    7  A    between atoms: C_9  and  C_10
REMARK    8  A    between atoms: C_19  and  C_20
REMARK                            x       y       z     vdW  Elec       q    Type
REMARK                         _______ _______ _______ _____ _____    ______ ____
ROOT
ATOM      1  C   UNL     1      42.843   5.374  12.933  0.00  0.00    +0.000 C 
ATOM      2  C   UNL     1      44.143   5.281  12.103  0.00  0.00    +0.000 C 
ATOM      3  C   UNL     1      45.011   4.169  12.740  0.00  0.00    +0.000 C 
ENDROOT
BRANCH   2   4
ATOM      4  C   UNL     1      44.944   6.600  12.092  0.00  0.00    +0.000 A 
ATOM      5  C   UNL     1      44.434   7.808  11.603  0.00  0.00    +0.000 A 
ATOM      6  C   UNL     1      45.187   8.981  11.667  0.00  0.00    +0.000 A 
ATOM      7  C   UNL     1      46.471   8.966  12.215  0.00  0.00    +0.000 A 
ATOM      8  C   UNL     1      47.030   7.788  12.738  0.00  0.00    +0.000 A 
ATOM      9  C   UNL     1      46.241   6.626  12.650  0.00  0.00    +0.000 A 
BRANCH   8  10
ATOM     10  C   UNL     1      48.324   7.796  13.479  0.00  0.00    +0.000 A 
ATOM     11  C   UNL     1      48.356   7.232  14.776  0.00  0.00    +0.000 A 
ATOM     12  C   UNL     1      49.540   7.092  15.505  0.00  0.00    +0.000 A 
ATOM     13  C   UNL     1      50.745   7.492  14.947  0.00  0.00    +0.000 A 
ATOM     14  C   UNL     1      50.754   8.072  13.682  0.00  0.00    +0.000 A 
ATOM     15  C   UNL     1      49.561   8.251  12.965  0.00  0.00    +0.000 A 
ATOM     16 CL   UNL     1      49.725   9.106  11.463  0.00  0.00    +0.000 Cl
ENDBRANCH   8  10
ENDBRANCH   2   4
BRANCH   2  17
ATOM     17  C   UNL     1      43.762   4.874  10.651  0.00  0.00    +0.000 C 
BRANCH  17  18
ATOM     18  O   UNL     1      43.944   3.459  10.457  0.00  0.00    +0.000 OA
BRANCH  18  19
ATOM     19  C   UNL     1      44.815   3.175   9.427  0.00  0.00    +0.000 A 
ATOM     20  C   UNL     1      45.322   4.243   8.703  0.00  0.00    +0.000 A 
ATOM     21  C   UNL     1      46.214   3.969   7.664  0.00  0.00    +0.000 A 
ATOM     22  C   UNL     1      46.575   2.645   7.387  0.00  0.00    +0.000 A 
ATOM     23  C   UNL     1      46.009   1.655   8.172  0.00  0.00    +0.000 A 
ATOM     24  N   UNL     1      45.140   1.892   9.181  0.00  0.00    +0.000 NA
BRANCH  22  25
ATOM     25  C   UNL     1      47.529   2.357   6.291  0.00  0.00    +0.000 C 
ATOM     26  N   UNL     1      47.368   2.988   5.087  0.00  0.00    +0.000 N 
ATOM     27  O   UNL     1      48.447   1.570   6.449  0.00  0.00    +0.000 OA
ATOM     28  H   UNL     1      46.656   3.664   4.853  0.00  0.00    +0.000 HD
ATOM     29  H   UNL     1      48.047   2.772   4.369  0.00  0.00    +0.000 HD
ENDBRANCH  22  25
ENDBRANCH  18  19
ENDBRANCH  17  18
ENDBRANCH   2  17
TORSDOF 6
ENDMDL
MODEL 5
REMARK VINA RESULT:    -8.033      1.648      2.712
REMARK INTER + INTRA:         -11.879
REMARK INTER:                 -10.558
REMARK INTRA:                  -1.320
REMARK UNBOUND:                -1.028
REMARK  Name = 
REMARK  8 active torsions:
REMARK  status: ('A' for Active; 'I' for Inactive)
REMARK    1  A    between atoms: C_1  and  C_2
REMARK    2  A    between atoms: C_2  and  C_3
REMARK    3  A    between atoms: C_2  and  C_4
REMARK    4  A    between atoms: C_2  and  C_15
REMARK    5  A    between atoms: C_4  and  O_5
REMARK    6  A    between atoms: O_5  and  C_6
REMARK    7  A    between atoms: C_9  and  C_10
REMARK    8  A    between atoms: C_19  and  C_20
REMARK                            x       y       z     vdW  Elec       q    Type
REMARK                         _______ _______ _______ _____ _____    ______ ____
ROOT
ATOM      1  C   UNL     1      44.093   6.614  11.145  0.00  0.00    +0.000 C 
ATOM      2  C   UNL     1      43.922   5.296  11.933  0.00  0.00    +0.000 C 
ATOM      3  C   UNL     1      42.781   5.522  12.954  0.00  0.00    +0.000 C 
ENDROOT
BRANCH   2   4
ATOM      4  C   UNL     1      45.200   4.878  12.690  0.00  0.00    +0.000 A 
ATOM      5  C   UNL     1      45.590   3.546  12.867  0.00  0.00    +0.000 A 
ATOM      6  C   UNL     1      46.785   3.232  13.516  0.00  0.00    +0.000 A 
ATOM      7  C   UNL     1      47.610   4.245  14.009  0.00  0.00    +0.000 A 
ATOM      8  C   UNL     1      47.280   5.601  13.845  0.00  0.00    +0.000 A 
ATOM      9  C   UNL     1      46.065   5.876  13.190  0.00  0.00    +0.000 A 
BRANCH   8  10
ATOM     10  C   UNL     1      48.230   6.689  14.211  0.00  0.00    +0.000 A 
ATOM     11  C   UNL     1      48.610   7.612  13.209  0.00  0.00    +0.000 A 
ATOM     12  C   UNL     1      49.407   8.728  13.477  0.00  0.00    +0.000 A 
ATOM     13  C   UNL     1      49.834   8.974  14.774  0.00  0.00    +0.000 A 
ATOM     14  C   UNL     1      49.501   8.079  15.786  0.00  0.00    +0.000 A 
ATOM     15  C   UNL     1      48.735   6.935  15.510  0.00  0.00    +0.000 A 
ATOM     16 CL   UNL     1      48.517   5.854  16.851  0.00  0.00    +0.000 Cl
ENDBRANCH   8  10
ENDBRANCH   2   4
BRANCH   2  17
ATOM     17  C   UNL     1      43.507   4.183  10.929  0.00  0.00    +0.000 C 
BRANCH  17  18
ATOM     18  O   UNL     1      43.676   4.634   9.573  0.00  0.00    +0.000 OA
BRANCH  18  19
ATOM     19  C   UNL     1      44.655   3.933   8.901  0.00  0.00    +0.000 A 
ATOM     20  C   UNL     1      44.722   2.564   9.111  0.00  0.00    +0.000 A 
ATOM     21  C   UNL     1      45.701   1.840   8.428  0.00  0.00    +0.000 A 
ATOM     22  C   UNL     1      46.574   2.502   7.555  0.00  0.00    +0.000 A 
ATOM     23  C   UNL     1      46.419   3.872   7.420  0.00  0.00    +0.000 A 
ATOM     24  N   UNL     1      45.482   4.596   8.072  0.00  0.00    +0.000 NA
BRANCH  22  25
ATOM     25  C   UNL     1      47.606   1.731   6.824  0.00  0.00    +0.000 C 
ATOM     26  N   UNL     1      48.710   2.386   6.347  0.00  0.00    +0.000 N 
ATOM     27  O   UNL     1      47.482   0.532   6.642  0.00  0.00    +0.000 OA
ATOM     28  H   UNL     1      48.919   3.367   6.452  0.00  0.00    +0.000 HD
ATOM     29  H   UNL     1      49.396   1.821   5.862  0.00  0.00    +0.000 HD
ENDBRANCH  22  25
ENDBRANCH  18  19
ENDBRANCH  17  18
ENDBRANCH   2  17
TORSDOF 6
ENDMDL
MODEL 6
REMARK VINA RESULT:    -7.691      3.963      7.957
REMARK INTER + INTRA:         -11.417
REMARK INTER:                 -10.037
REMARK INTRA:                  -1.380
REMARK UNBOUND:                -1.028
REMARK  Name = 
REMARK  8 active torsions:
REMARK  status: ('A' for Active; 'I' for Inactive)
REMARK    1  A    between atoms: C_1  and  C_2
REMARK    2  A    between atoms: C_2  and  C_3
REMARK    3  A    between atoms: C_2  and  C_4
REMARK    4  A    between atoms: C_2  and  C_15
REMARK    5  A    between atoms: C_4  and  O_5
REMARK    6  A    between atoms: O_5  and  C_6
REMARK    7  A    between atoms: C_9  and  C_10
REMARK    8  A    between atoms: C_19  and  C_20
REMARK                            x       y       z     vdW  Elec       q    Type
REMARK                         _______ _______ _______ _____ _____    ______ ____
ROOT
ATOM      1  C   UNL     1      48.783   9.836  11.789  0.00  0.00    +0.000 C 
ATOM      2  C   UNL     1      48.444   8.434  12.343  0.00  0.00    +0.000 C 
ATOM      3  C   UNL     1      49.423   7.435  11.680  0.00  0.00    +0.000 C 
ENDROOT
BRANCH   2   4
ATOM      4  C   UNL     1      46.996   8.000  12.035  0.00  0.00    +0.000 A 
ATOM      5  C   UNL     1      45.880   8.811  12.276  0.00  0.00    +0.000 A 
ATOM      6  C   UNL     1      44.598   8.384  11.927  0.00  0.00    +0.000 A 
ATOM      7  C   UNL     1      44.405   7.133  11.337  0.00  0.00    +0.000 A 
ATOM      8  C   UNL     1      45.488   6.283  11.054  0.00  0.00    +0.000 A 
ATOM      9  C   UNL     1      46.764   6.748  11.425  0.00  0.00    +0.000 A 
BRANCH   8  10
ATOM     10  C   UNL     1      45.314   5.027  10.271  0.00  0.00    +0.000 A 
ATOM     11  C   UNL     1      45.771   5.004   8.933  0.00  0.00    +0.000 A 
ATOM     12  C   UNL     1      45.754   3.844   8.153  0.00  0.00    +0.000 A 
ATOM     13  C   UNL     1      45.300   2.652   8.699  0.00  0.00    +0.000 A 
ATOM     14  C   UNL     1      44.821   2.637  10.005  0.00  0.00    +0.000 A 
ATOM     15  C   UNL     1      44.798   3.810  10.777  0.00  0.00    +0.000 A 
ATOM     16 CL   UNL     1      44.053   3.652  12.336  0.00  0.00    +0.000 Cl
ENDBRANCH   8  10
ENDBRANCH   2   4
BRANCH   2  17
ATOM     17  C   UNL     1      48.682   8.451  13.880  0.00  0.00    +0.000 C 
BRANCH  17  18
ATOM     18  O   UNL     1      49.641   7.445  14.256  0.00  0.00    +0.000 OA
BRANCH  18  19
ATOM     19  C   UNL     1      49.103   6.489  15.090  0.00  0.00    +0.000 A 
ATOM     20  C   UNL     1      49.623   6.389  16.371  0.00  0.00    +0.000 A 
ATOM     21  C   UNL     1      49.080   5.431  17.229  0.00  0.00    +0.000 A 
ATOM     22  C   UNL     1      48.033   4.613  16.786  0.00  0.00    +0.000 A 
ATOM     23  C   UNL     1      47.589   4.798  15.488  0.00  0.00    +0.000 A 
ATOM     24  N   UNL     1      48.100   5.714  14.635  0.00  0.00    +0.000 NA
BRANCH  22  25
ATOM     25  C   UNL     1      47.450   3.605  17.702  0.00  0.00    +0.000 C 
ATOM     26  N   UNL     1      48.059   3.370  18.905  0.00  0.00    +0.000 N 
ATOM     27  O   UNL     1      46.443   2.988  17.396  0.00  0.00    +0.000 OA
ATOM     28  H   UNL     1      48.882   3.830  19.262  0.00  0.00    +0.000 HD
ATOM     29  H   UNL     1      47.623   2.681  19.505  0.00  0.00    +0.000 HD
ENDBRANCH  22  25
ENDBRANCH  18  19
ENDBRANCH  17  18
ENDBRANCH   2  17
TORSDOF 6
ENDMDL
MODEL 7
REMARK VINA RESULT:    -7.041      3.271      6.190
REMARK INTER + INTRA:         -10.538
REMARK INTER:                  -9.428
REMARK INTRA:                  -1.110
REMARK UNBOUND:                -1.028
REMARK  Name = 
REMARK  8 active torsions:
REMARK  status: ('A' for Active; 'I' for Inactive)
REMARK    1  A    between atoms: C_1  and  C_2
REMARK    2  A    between atoms: C_2  and  C_3
REMARK    3  A    between atoms: C_2  and  C_4
REMARK    4  A    between atoms: C_2  and  C_15
REMARK    5  A    between atoms: C_4  and  O_5
REMARK    6  A    between atoms: O_5  and  C_6
REMARK    7  A    between atoms: C_9  and  C_10
REMARK    8  A    between atoms: C_19  and  C_20
REMARK                            x       y       z     vdW  Elec       q    Type
REMARK                         _______ _______ _______ _____ _____    ______ ____
ROOT
ATOM      1  C   UNL     1      46.980   2.781  17.771  0.00  0.00    +0.000 C 
ATOM      2  C   UNL     1      48.083   3.497  16.960  0.00  0.00    +0.000 C 
ATOM      3  C   UNL     1      49.056   2.406  16.454  0.00  0.00    +0.000 C 
ENDROOT
BRANCH   2   4
ATOM      4  C   UNL     1      48.872   4.527  17.796  0.00  0.00    +0.000 A 
ATOM      5  C   UNL     1      50.268   4.626  17.779  0.00  0.00    +0.000 A 
ATOM      6  C   UNL     1      50.923   5.612  18.517  0.00  0.00    +0.000 A 
ATOM      7  C   UNL     1      50.194   6.516  19.293  0.00  0.00    +0.000 A 
ATOM      8  C   UNL     1      48.791   6.478  19.335  0.00  0.00    +0.000 A 
ATOM      9  C   UNL     1      48.167   5.465  18.582  0.00  0.00    +0.000 A 
BRANCH   8  10
ATOM     10  C   UNL     1      47.997   7.539  20.018  0.00  0.00    +0.000 A 
ATOM     11  C   UNL     1      47.673   7.358  21.383  0.00  0.00    +0.000 A 
ATOM     12  C   UNL     1      47.030   8.342  22.139  0.00  0.00    +0.000 A 
ATOM     13  C   UNL     1      46.710   9.560  21.557  0.00  0.00    +0.000 A 
ATOM     14  C   UNL     1      46.992   9.770  20.211  0.00  0.00    +0.000 A 
ATOM     15  C   UNL     1      47.600   8.767  19.439  0.00  0.00    +0.000 A 
ATOM     16 CL   UNL     1      47.765   9.136  17.751  0.00  0.00    +0.000 Cl
ENDBRANCH   8  10
ENDBRANCH   2   4
BRANCH   2  17
ATOM     17  C   UNL     1      47.411   4.197  15.744  0.00  0.00    +0.000 C 
BRANCH  17  18
ATOM     18  O   UNL     1      47.395   3.322  14.601  0.00  0.00    +0.000 OA
BRANCH  18  19
ATOM     19  C   UNL     1      46.501   3.731  13.635  0.00  0.00    +0.000 A 
ATOM     20  C   UNL     1      46.292   5.094  13.489  0.00  0.00    +0.000 A 
ATOM     21  C   UNL     1      45.397   5.522  12.507  0.00  0.00    +0.000 A 
ATOM     22  C   UNL     1      44.746   4.580  11.700  0.00  0.00    +0.000 A 
ATOM     23  C   UNL     1      45.028   3.243  11.931  0.00  0.00    +0.000 A 
ATOM     24  N   UNL     1      45.887   2.803  12.877  0.00  0.00    +0.000 NA
BRANCH  22  25
ATOM     25  C   UNL     1      43.805   5.035  10.652  0.00  0.00    +0.000 C 
ATOM     26  N   UNL     1      44.041   4.686   9.349  0.00  0.00    +0.000 N 
ATOM     27  O   UNL     1      42.831   5.713  10.935  0.00  0.00    +0.000 OA
ATOM     28  H   UNL     1      44.804   4.121   9.008  0.00  0.00    +0.000 HD
ATOM     29  H   UNL     1      43.368   5.009   8.666  0.00  0.00    +0.000 HD
ENDBRANCH  22  25
ENDBRANCH  18  19
ENDBRANCH  17  18
ENDBRANCH   2  17
TORSDOF 6
ENDMDL
MODEL 8
REMARK VINA RESULT:    -7.021      3.163      6.060
REMARK INTER + INTRA:         -10.512
REMARK INTER:                  -8.923
REMARK INTRA:                  -1.588
REMARK UNBOUND:                -1.028
REMARK  Name = 
REMARK  8 active torsions:
REMARK  status: ('A' for Active; 'I' for Inactive)
REMARK    1  A    between atoms: C_1  and  C_2
REMARK    2  A    between atoms: C_2  and  C_3
REMARK    3  A    between atoms: C_2  and  C_4
REMARK    4  A    between atoms: C_2  and  C_15
REMARK    5  A    between atoms: C_4  and  O_5
REMARK    6  A    between atoms: O_5  and  C_6
REMARK    7  A    between atoms: C_9  and  C_10
REMARK    8  A    between atoms: C_19  and  C_20
REMARK                            x       y       z     vdW  Elec       q    Type
REMARK                         _______ _______ _______ _____ _____    ______ ____
ROOT
ATOM      1  C   UNL     1      47.968   4.750  18.673  0.00  0.00    +0.000 C 
ATOM      2  C   UNL     1      48.501   4.417  17.262  0.00  0.00    +0.000 C 
ATOM      3  C   UNL     1      49.196   3.036  17.352  0.00  0.00    +0.000 C 
ENDROOT
BRANCH   2   4
ATOM      4  C   UNL     1      49.514   5.457  16.741  0.00  0.00    +0.000 A 
ATOM      5  C   UNL     1      50.855   5.493  17.139  0.00  0.00    +0.000 A 
ATOM      6  C   UNL     1      51.738   6.426  16.592  0.00  0.00    +0.000 A 
ATOM      7  C   UNL     1      51.293   7.348  15.642  0.00  0.00    +0.000 A 
ATOM      8  C   UNL     1      49.963   7.348  15.190  0.00  0.00    +0.000 A 
ATOM      9  C   UNL     1      49.103   6.396  15.769  0.00  0.00    +0.000 A 
BRANCH   8  10
ATOM     10  C   UNL     1      49.520   8.209  14.056  0.00  0.00    +0.000 A 
ATOM     11  C   UNL     1      49.586   7.676  12.747  0.00  0.00    +0.000 A 
ATOM     12  C   UNL     1      49.094   8.361  11.633  0.00  0.00    +0.000 A 
ATOM     13  C   UNL     1      48.491   9.599  11.794  0.00  0.00    +0.000 A 
ATOM     14  C   UNL     1      48.425  10.168  13.063  0.00  0.00    +0.000 A 
ATOM     15  C   UNL     1      48.957   9.501  14.178  0.00  0.00    +0.000 A 
ATOM     16 CL   UNL     1      48.914  10.398  15.663  0.00  0.00    +0.000 Cl
ENDBRANCH   8  10
ENDBRANCH   2   4
BRANCH   2  17
ATOM     17  C   UNL     1      47.285   4.322  16.296  0.00  0.00    +0.000 C 
BRANCH  17  18
ATOM     18  O   UNL     1      47.660   3.663  15.072  0.00  0.00    +0.000 OA
BRANCH  18  19
ATOM     19  C   UNL     1      46.866   4.033  14.009  0.00  0.00    +0.000 A 
ATOM     20  C   UNL     1      46.836   5.376  13.666  0.00  0.00    +0.000 A 
ATOM     21  C   UNL     1      46.044   5.763  12.583  0.00  0.00    +0.000 A 
ATOM     22  C   UNL     1      45.316   4.800  11.874  0.00  0.00    +0.000 A 
ATOM     23  C   UNL     1      45.418   3.486  12.301  0.00  0.00    +0.000 A 
ATOM     24  N   UNL     1      46.173   3.086  13.348  0.00  0.00    +0.000 NA
BRANCH  22  25
ATOM     25  C   UNL     1      44.484   5.210  10.719  0.00  0.00    +0.000 C 
ATOM     26  N   UNL     1      45.022   5.155   9.461  0.00  0.00    +0.000 N 
ATOM     27  O   UNL     1      43.337   5.593  10.877  0.00  0.00    +0.000 OA
ATOM     28  H   UNL     1      45.949   4.843   9.218  0.00  0.00    +0.000 HD
ATOM     29  H   UNL     1      44.417   5.434   8.699  0.00  0.00    +0.000 HD
ENDBRANCH  22  25
ENDBRANCH  18  19
ENDBRANCH  17  18
ENDBRANCH   2  17
TORSDOF 6
ENDMDL
MODEL 9
REMARK VINA RESULT:    -7.017      2.959      5.077
REMARK INTER + INTRA:         -10.506
REMARK INTER:                  -8.915
REMARK INTRA:                  -1.591
REMARK UNBOUND:                -1.028
REMARK  Name = 
REMARK  8 active torsions:
REMARK  status: ('A' for Active; 'I' for Inactive)
REMARK    1  A    between atoms: C_1  and  C_2
REMARK    2  A    between atoms: C_2  and  C_3
REMARK    3  A    between atoms: C_2  and  C_4
REMARK    4  A    between atoms: C_2  and  C_15
REMARK    5  A    between atoms: C_4  and  O_5
REMARK    6  A    between atoms: O_5  and  C_6
REMARK    7  A    between atoms: C_9  and  C_10
REMARK    8  A    between atoms: C_19  and  C_20
REMARK                            x       y       z     vdW  Elec       q    Type
REMARK                         _______ _______ _______ _____ _____    ______ ____
ROOT
ATOM      1  C   UNL     1      49.375   7.304  12.027  0.00  0.00    +0.000 C 
ATOM      2  C   UNL     1      48.646   8.443  12.774  0.00  0.00    +0.000 C 
ATOM      3  C   UNL     1      49.362   9.763  12.401  0.00  0.00    +0.000 C 
ENDROOT
BRANCH   2   4
ATOM      4  C   UNL     1      48.673   8.270  14.307  0.00  0.00    +0.000 A 
ATOM      5  C   UNL     1      48.463   9.323  15.205  0.00  0.00    +0.000 A 
ATOM      6  C   UNL     1      48.447   9.095  16.582  0.00  0.00    +0.000 A 
ATOM      7  C   UNL     1      48.651   7.810  17.088  0.00  0.00    +0.000 A 
ATOM      8  C   UNL     1      48.849   6.711  16.236  0.00  0.00    +0.000 A 
ATOM      9  C   UNL     1      48.862   6.982  14.855  0.00  0.00    +0.000 A 
BRANCH   8  10
ATOM     10  C   UNL     1      48.893   5.314  16.755  0.00  0.00    +0.000 A 
ATOM     11  C   UNL     1      47.741   4.508  16.606  0.00  0.00    +0.000 A 
ATOM     12  C   UNL     1      47.719   3.156  16.959  0.00  0.00    +0.000 A 
ATOM     13  C   UNL     1      48.867   2.553  17.453  0.00  0.00    +0.000 A 
ATOM     14  C   UNL     1      50.016   3.317  17.635  0.00  0.00    +0.000 A 
ATOM     15  C   UNL     1      50.027   4.685  17.320  0.00  0.00    +0.000 A 
ATOM     16 CL   UNL     1      51.492   5.522  17.727  0.00  0.00    +0.000 Cl
ENDBRANCH   8  10
ENDBRANCH   2   4
BRANCH   2  17
ATOM     17  C   UNL     1      47.176   8.490  12.267  0.00  0.00    +0.000 C 
BRANCH  17  18
ATOM     18  O   UNL     1      46.305   7.782  13.169  0.00  0.00    +0.000 OA
BRANCH  18  19
ATOM     19  C   UNL     1      45.797   6.627  12.615  0.00  0.00    +0.000 A 
ATOM     20  C   UNL     1      45.927   5.454  13.342  0.00  0.00    +0.000 A 
ATOM     21  C   UNL     1      45.406   4.280  12.796  0.00  0.00    +0.000 A 
ATOM     22  C   UNL     1      44.766   4.314  11.551  0.00  0.00    +0.000 A 
ATOM     23  C   UNL     1      44.691   5.540  10.910  0.00  0.00    +0.000 A 
ATOM     24  N   UNL     1      45.191   6.690  11.414  0.00  0.00    +0.000 NA
BRANCH  22  25
ATOM     25  C   UNL     1      44.205   3.069  10.978  0.00  0.00    +0.000 C 
ATOM     26  N   UNL     1      44.936   2.375  10.052  0.00  0.00    +0.000 N 
ATOM     27  O   UNL     1      43.107   2.661  11.320  0.00  0.00    +0.000 OA
ATOM     28  H   UNL     1      45.854   2.614   9.710  0.00  0.00    +0.000 HD
ATOM     29  H   UNL     1      44.520   1.525   9.694  0.00  0.00    +0.000 HD
ENDBRANCH  22  25
ENDBRANCH  18  19
ENDBRANCH  17  18
ENDBRANCH   2  17
TORSDOF 6
ENDMDL
