MODEL 1
REMARK VINA RESULT:    -7.784      0.000      0.000
REMARK INTER + INTRA:         -10.766
REMARK INTER:                 -10.287
REMARK INTRA:                  -0.479
REMARK UNBOUND:                -0.479
REMARK  Name = 
REMARK  6 active torsions:
REMARK  status: ('A' for Active; 'I' for Inactive)
REMARK    1  A    between atoms: N_1  and  C_2
REMARK    2  A    between atoms: C_2  and  C_3
REMARK    3  A    between atoms: C_7  and  C_8
REMARK    4  A    between atoms: C_9  and  S_10
REMARK    5  A    between atoms: S_10  and  C_11
REMARK    6  A    between atoms: C_14  and  C_15
REMARK                            x       y       z     vdW  Elec       q    Type
REMARK                         _______ _______ _______ _____ _____    ______ ____
ROOT
ATOM      1  C   UNL     1      45.674   4.535  12.500  0.00  0.00    +0.000 C 
ATOM      2  C   UNL     1      44.821   5.359  11.858  0.00  0.00    +0.000 C 
ENDROOT
BRANCH   1   7
ATOM      3  C   UNL     1      47.629   4.700  15.728  0.00  0.00    +0.000 A 
ATOM      4  C   UNL     1      48.286   5.915  15.529  0.00  0.00    +0.000 A 
ATOM      5  C   UNL     1      48.034   6.606  14.354  0.00  0.00    +0.000 A 
ATOM      6  N   UNL     1      47.193   6.180  13.387  0.00  0.00    +0.000 NA
ATOM      7  C   UNL     1      46.562   4.997  13.579  0.00  0.00    +0.000 A 
ATOM      8  C   UNL     1      46.743   4.248  14.737  0.00  0.00    +0.000 A 
BRANCH   3   9
ATOM      9  C   UNL     1      47.879   3.852  16.946  0.00  0.00    +0.000 C 
BRANCH   9  10
ATOM     10  N   UNL     1      46.624   3.290  17.433  0.00  0.00    +0.000 NA
ATOM     11  H   UNL     1      46.814   2.556  18.108  0.00  0.00    +0.000 HD
ATOM     12  H   UNL     1      46.131   2.855  16.654  0.00  0.00    +0.000 HD
ENDBRANCH   9  10
ENDBRANCH   3   9
ENDBRANCH   1   7
BRANCH   2  13
ATOM     13  S   UNL     1      43.728   4.802  10.638  0.00  0.00    +0.000 S 
BRANCH  13  14
ATOM     14  C   UNL     1      44.779   3.851   9.534  0.00  0.00    +0.000 A 
ATOM     15  C   UNL     1      44.901   2.458   9.538  0.00  0.00    +0.000 A 
ATOM     16  C   UNL     1      45.751   1.806   8.631  0.00  0.00    +0.000 A 
ATOM     17  C   UNL     1      46.507   2.533   7.704  0.00  0.00    +0.000 A 
ATOM     18  C   UNL     1      46.408   3.926   7.699  0.00  0.00    +0.000 A 
ATOM     19  C   UNL     1      45.555   4.574   8.609  0.00  0.00    +0.000 A 
BRANCH  17  20
ATOM     20  C   UNL     1      47.418   1.771   6.804  0.00  0.00    +0.000 C 
ATOM     21  N   UNL     1      48.533   2.408   6.327  0.00  0.00    +0.000 N 
ATOM     22  O   UNL     1      47.177   0.620   6.479  0.00  0.00    +0.000 OA
ATOM     23  H   UNL     1      48.773   3.369   6.511  0.00  0.00    +0.000 HD
ATOM     24  H   UNL     1      49.123   1.876   5.698  0.00  0.00    +0.000 HD
ENDBRANCH  17  20
ENDBRANCH  13  14
ENDBRANCH   2  13
TORSDOF 6
ENDMDL
MODEL 2
REMARK VINA RESULT:    -7.390      1.137      2.117
REMARK INTER + INTRA:         -10.245
REMARK INTER:                  -9.774
REMARK INTRA:                  -0.471
REMARK UNBOUND:                -0.479
REMARK  Name = 
REMARK  6 active torsions:
REMARK  status: ('A' for Active; 'I' for Inactive)
REMARK    1  A    between atoms: N_1  and  C_2
REMARK    2  A    between atoms: C_2  and  C_3
REMARK    3  A    between atoms: C_7  and  C_8
REMARK    4  A    between atoms: C_9  and  S_10
REMARK    5  A    between atoms: S_10  and  C_11
REMARK    6  A    between atoms: C_14  and  C_15
REMARK                            x       y       z     vdW  Elec       q    Type
REMARK                         _______ _______ _______ _____ _____    ______ ____
ROOT
ATOM      1  C   UNL     1      45.648   4.169  12.736  0.00  0.00    +0.000 C 
ATOM      2  C   UNL     1      44.791   4.985  12.088  0.00  0.00    +0.000 C 
ENDROOT
BRANCH   1   7
ATOM      3  C   UNL     1      48.151   6.242  14.662  0.00  0.00    +0.000 A 
ATOM      4  C   UNL     1      48.189   5.502  15.845  0.00  0.00    +0.000 A 
ATOM      5  C   UNL     1      47.401   4.366  15.927  0.00  0.00    +0.000 A 
ATOM      6  N   UNL     1      46.596   3.925  14.937  0.00  0.00    +0.000 NA
ATOM      7  C   UNL     1      46.555   4.648  13.792  0.00  0.00    +0.000 A 
ATOM      8  C   UNL     1      47.328   5.791  13.618  0.00  0.00    +0.000 A 
BRANCH   3   9
ATOM      9  C   UNL     1      48.930   7.519  14.498  0.00  0.00    +0.000 C 
BRANCH   9  10
ATOM     10  N   UNL     1      50.267   7.231  13.991  0.00  0.00    +0.000 NA
ATOM     11  H   UNL     1      50.781   6.679  14.670  0.00  0.00    +0.000 HD
ATOM     12  H   UNL     1      50.774   8.107  13.877  0.00  0.00    +0.000 HD
ENDBRANCH   9  10
ENDBRANCH   3   9
ENDBRANCH   1   7
BRANCH   2  13
ATOM     13  S   UNL     1      43.677   4.410  10.897  0.00  0.00    +0.000 S 
BRANCH  13  14
ATOM     14  C   UNL     1      44.740   3.696   9.637  0.00  0.00    +0.000 A 
ATOM     15  C   UNL     1      44.962   2.329   9.449  0.00  0.00    +0.000 A 
ATOM     16  C   UNL     1      45.812   1.869   8.431  0.00  0.00    +0.000 A 
ATOM     17  C   UNL     1      46.468   2.768   7.582  0.00  0.00    +0.000 A 
ATOM     18  C   UNL     1      46.269   4.138   7.767  0.00  0.00    +0.000 A 
ATOM     19  C   UNL     1      45.416   4.592   8.788  0.00  0.00    +0.000 A 
BRANCH  17  20
ATOM     20  C   UNL     1      47.388   2.203   6.554  0.00  0.00    +0.000 C 
ATOM     21  N   UNL     1      47.485   2.851   5.351  0.00  0.00    +0.000 N 
ATOM     22  O   UNL     1      48.024   1.183   6.760  0.00  0.00    +0.000 OA
ATOM     23  H   UNL     1      46.957   3.668   5.090  0.00  0.00    +0.000 HD
ATOM     24  H   UNL     1      48.099   2.433   4.661  0.00  0.00    +0.000 HD
ENDBRANCH  17  20
ENDBRANCH  13  14
ENDBRANCH   2  13
TORSDOF 6
ENDMDL
MODEL 3
REMARK VINA RESULT:    -7.105      2.312      3.574
REMARK INTER + INTRA:          -9.869
REMARK INTER:                  -9.465
REMARK INTRA:                  -0.403
REMARK UNBOUND:                -0.479
REMARK  Name = 
REMARK  6 active torsions:
REMARK  status: ('A' for Active; 'I' for Inactive)
REMARK    1  A    between atoms: N_1  and  C_2
REMARK    2  A    between atoms: C_2  and  C_3
REMARK    3  A    between atoms: C_7  and  C_8
REMARK    4  A    between atoms: C_9  and  S_10
REMARK    5  A    between atoms: S_10  and  C_11
REMARK    6  A    between atoms: C_14  and  C_15
REMARK                            x       y       z     vdW  Elec       q    Type
REMARK                         _______ _______ _______ _____ _____    ______ ____
ROOT
ATOM      1  C   UNL     1      45.442   5.522  11.966  0.00  0.00    +0.000 C 
ATOM      2  C   UNL     1      44.333   5.398  11.209  0.00  0.00    +0.000 C 
ENDROOT
BRANCH   1   7
ATOM      3  C   UNL     1      45.873   9.243  12.457  0.00  0.00    +0.000 A 
ATOM      4  C   UNL     1      46.933   9.226  13.366  0.00  0.00    +0.000 A 
ATOM      5  C   UNL     1      47.444   7.995  13.747  0.00  0.00    +0.000 A 
ATOM      6  N   UNL     1      46.983   6.809  13.297  0.00  0.00    +0.000 NA
ATOM      7  C   UNL     1      45.950   6.827  12.421  0.00  0.00    +0.000 A 
ATOM      8  C   UNL     1      45.390   8.018  11.972  0.00  0.00    +0.000 A 
BRANCH   3   9
ATOM      9  C   UNL     1      45.217  10.527  12.026  0.00  0.00    +0.000 C 
BRANCH   9  10
ATOM     10  N   UNL     1      43.766  10.397  12.096  0.00  0.00    +0.000 NA
ATOM     11  H   UNL     1      43.505   9.899  12.941  0.00  0.00    +0.000 HD
ATOM     12  H   UNL     1      43.445   9.834  11.310  0.00  0.00    +0.000 HD
ENDBRANCH   9  10
ENDBRANCH   3   9
ENDBRANCH   1   7
BRANCH   2  13
ATOM     13  S   UNL     1      43.696   3.861  10.734  0.00  0.00    +0.000 S 
BRANCH  13  14
ATOM     14  C   UNL     1      44.822   3.320   9.443  0.00  0.00    +0.000 A 
ATOM     15  C   UNL     1      45.194   1.995   9.201  0.00  0.00    +0.000 A 
ATOM     16  C   UNL     1      46.082   1.672   8.163  0.00  0.00    +0.000 A 
ATOM     17  C   UNL     1      46.627   2.671   7.348  0.00  0.00    +0.000 A 
ATOM     18  C   UNL     1      46.278   4.002   7.587  0.00  0.00    +0.000 A 
ATOM     19  C   UNL     1      45.387   4.318   8.628  0.00  0.00    +0.000 A 
BRANCH  17  20
ATOM     20  C   UNL     1      47.597   2.253   6.295  0.00  0.00    +0.000 C 
ATOM     21  N   UNL     1      47.707   3.033   5.175  0.00  0.00    +0.000 N 
ATOM     22  O   UNL     1      48.261   1.236   6.409  0.00  0.00    +0.000 OA
ATOM     23  H   UNL     1      47.159   3.857   4.987  0.00  0.00    +0.000 HD
ATOM     24  H   UNL     1      48.355   2.713   4.464  0.00  0.00    +0.000 HD
ENDBRANCH  17  20
ENDBRANCH  13  14
ENDBRANCH   2  13
TORSDOF 6
ENDMDL
MODEL 4
REMARK VINA RESULT:    -7.002      2.919      3.349
REMARK INTER + INTRA:          -9.731
REMARK INTER:                  -9.353
REMARK INTRA:                  -0.379
REMARK UNBOUND:                -0.479
REMARK  Name = 
REMARK  6 active torsions:
REMARK  status: ('A' for Active; 'I' for Inactive)
REMARK    1  A    between atoms: N_1  and  C_2
REMARK    2  A    between atoms: C_2  and  C_3
REMARK    3  A    between atoms: C_7  and  C_8
REMARK    4  A    between atoms: C_9  and  S_10
REMARK    5  A    between atoms: S_10  and  C_11
REMARK    6  A    between atoms: C_14  and  C_15
REMARK                            x       y       z     vdW  Elec       q    Type
REMARK                         _______ _______ _______ _____ _____    ______ ____
ROOT
ATOM      1  C   UNL     1      45.695   6.029  11.587  0.00  0.00    +0.000 C 
ATOM      2  C   UNL     1      44.487   5.996  10.989  0.00  0.00    +0.000 C 
ENDROOT
BRANCH   1   7
ATOM      3  C   UNL     1      48.407   8.617  12.059  0.00  0.00    +0.000 A 
ATOM      4  C   UNL     1      47.616   9.699  12.447  0.00  0.00    +0.000 A 
ATOM      5  C   UNL     1      46.247   9.505  12.540  0.00  0.00    +0.000 A 
ATOM      6  N   UNL     1      45.626   8.335  12.280  0.00  0.00    +0.000 NA
ATOM      7  C   UNL     1      46.394   7.287  11.897  0.00  0.00    +0.000 A 
ATOM      8  C   UNL     1      47.777   7.390  11.795  0.00  0.00    +0.000 A 
BRANCH   3   9
ATOM      9  C   UNL     1      49.895   8.745  11.877  0.00  0.00    +0.000 C 
BRANCH   9  10
ATOM     10  N   UNL     1      50.538   7.450  12.072  0.00  0.00    +0.000 NA
ATOM     11  H   UNL     1      50.967   7.414  12.992  0.00  0.00    +0.000 HD
ATOM     12  H   UNL     1      51.289   7.346  11.392  0.00  0.00    +0.000 HD
ENDBRANCH   9  10
ENDBRANCH   3   9
ENDBRANCH   1   7
BRANCH   2  13
ATOM     13  S   UNL     1      43.635   4.521  10.689  0.00  0.00    +0.000 S 
BRANCH  13  14
ATOM     14  C   UNL     1      44.712   3.637   9.554  0.00  0.00    +0.000 A 
ATOM     15  C   UNL     1      44.931   2.257   9.562  0.00  0.00    +0.000 A 
ATOM     16  C   UNL     1      45.792   1.657   8.630  0.00  0.00    +0.000 A 
ATOM     17  C   UNL     1      46.463   2.428   7.672  0.00  0.00    +0.000 A 
ATOM     18  C   UNL     1      46.267   3.811   7.662  0.00  0.00    +0.000 A 
ATOM     19  C   UNL     1      45.402   4.405   8.599  0.00  0.00    +0.000 A 
BRANCH  17  20
ATOM     20  C   UNL     1      47.394   1.724   6.745  0.00  0.00    +0.000 C 
ATOM     21  N   UNL     1      48.482   2.413   6.279  0.00  0.00    +0.000 N 
ATOM     22  O   UNL     1      47.191   0.575   6.390  0.00  0.00    +0.000 OA
ATOM     23  H   UNL     1      48.689   3.377   6.488  0.00  0.00    +0.000 HD
ATOM     24  H   UNL     1      49.086   1.920   5.632  0.00  0.00    +0.000 HD
ENDBRANCH  17  20
ENDBRANCH  13  14
ENDBRANCH   2  13
TORSDOF 6
ENDMDL
MODEL 5
REMARK VINA RESULT:    -6.770      3.354      7.729
REMARK INTER + INTRA:          -9.425
REMARK INTER:                  -8.927
REMARK INTRA:                  -0.498
REMARK UNBOUND:                -0.479
REMARK  Name = 
REMARK  6 active torsions:
REMARK  status: ('A' for Active; 'I' for Inactive)
REMARK    1  A    between atoms: N_1  and  C_2
REMARK    2  A    between atoms: C_2  and  C_3
REMARK    3  A    between atoms: C_7  and  C_8
REMARK    4  A    between atoms: C_9  and  S_10
REMARK    5  A    between atoms: S_10  and  C_11
REMARK    6  A    between atoms: C_14  and  C_15
REMARK                            x       y       z     vdW  Elec       q    Type
REMARK                         _______ _______ _______ _____ _____    ______ ____
ROOT
ATOM      1  C   UNL     1      44.771   3.723   9.549  0.00  0.00    +0.000 C 
ATOM      2  C   UNL     1      43.946   3.244  10.502  0.00  0.00    +0.000 C 
ENDROOT
BRANCH   1   7
ATOM      3  C   UNL     1      46.708   2.492   6.548  0.00  0.00    +0.000 A 
ATOM      4  C   UNL     1      46.841   1.149   6.905  0.00  0.00    +0.000 A 
ATOM      5  C   UNL     1      46.276   0.735   8.100  0.00  0.00    +0.000 A 
ATOM      6  N   UNL     1      45.604   1.545   8.945  0.00  0.00    +0.000 NA
ATOM      7  C   UNL     1      45.481   2.850   8.601  0.00  0.00    +0.000 A 
ATOM      8  C   UNL     1      46.002   3.346   7.411  0.00  0.00    +0.000 A 
BRANCH   3   9
ATOM      9  C   UNL     1      47.334   3.048   5.298  0.00  0.00    +0.000 C 
BRANCH   9  10
ATOM     10  N   UNL     1      48.435   2.196   4.865  0.00  0.00    +0.000 NA
ATOM     11  H   UNL     1      48.136   1.614   4.088  0.00  0.00    +0.000 HD
ATOM     12  H   UNL     1      48.687   1.567   5.626  0.00  0.00    +0.000 HD
ENDBRANCH   9  10
ENDBRANCH   3   9
ENDBRANCH   1   7
BRANCH   2  13
ATOM     13  S   UNL     1      43.058   4.274  11.570  0.00  0.00    +0.000 S 
BRANCH  13  14
ATOM     14  C   UNL     1      44.272   5.498  12.079  0.00  0.00    +0.000 A 
ATOM     15  C   UNL     1      45.327   5.266  12.966  0.00  0.00    +0.000 A 
ATOM     16  C   UNL     1      46.227   6.289  13.301  0.00  0.00    +0.000 A 
ATOM     17  C   UNL     1      46.086   7.574  12.762  0.00  0.00    +0.000 A 
ATOM     18  C   UNL     1      45.027   7.826  11.887  0.00  0.00    +0.000 A 
ATOM     19  C   UNL     1      44.129   6.795  11.555  0.00  0.00    +0.000 A 
BRANCH  17  20
ATOM     20  C   UNL     1      47.056   8.618  13.200  0.00  0.00    +0.000 C 
ATOM     21  N   UNL     1      47.055   8.984  14.520  0.00  0.00    +0.000 N 
ATOM     22  O   UNL     1      47.817   9.152  12.410  0.00  0.00    +0.000 OA
ATOM     23  H   UNL     1      46.425   8.625  15.220  0.00  0.00    +0.000 HD
ATOM     24  H   UNL     1      47.707   9.713  14.787  0.00  0.00    +0.000 HD
ENDBRANCH  17  20
ENDBRANCH  13  14
ENDBRANCH   2  13
TORSDOF 6
ENDMDL
MODEL 6
REMARK VINA RESULT:    -6.559      1.648      3.038
REMARK INTER + INTRA:          -9.147
REMARK INTER:                  -8.861
REMARK INTRA:                  -0.285
REMARK UNBOUND:                -0.479
REMARK  Name = 
REMARK  6 active torsions:
REMARK  status: ('A' for Active; 'I' for Inactive)
REMARK    1  A    between atoms: N_1  and  C_2
REMARK    2  A    between atoms: C_2  and  C_3
REMARK    3  A    between atoms: C_7  and  C_8
REMARK    4  A    between atoms: C_9  and  S_10
REMARK    5  A    between atoms: S_10  and  C_11
REMARK    6  A    between atoms: C_14  and  C_15
REMARK                            x       y       z     vdW  Elec       q    Type
REMARK                         _______ _______ _______ _____ _____    ______ ____
ROOT
ATOM      1  C   UNL     1      45.712   6.050  11.718  0.00  0.00    +0.000 C 
ATOM      2  C   UNL     1      44.886   5.032  12.031  0.00  0.00    +0.000 C 
ENDROOT
BRANCH   1   7
ATOM      3  C   UNL     1      47.998   8.433  13.554  0.00  0.00    +0.000 A 
ATOM      4  C   UNL     1      48.482   7.565  14.535  0.00  0.00    +0.000 A 
ATOM      5  C   UNL     1      48.036   6.253  14.520  0.00  0.00    +0.000 A 
ATOM      6  N   UNL     1      47.162   5.757  13.619  0.00  0.00    +0.000 NA
ATOM      7  C   UNL     1      46.688   6.602  12.672  0.00  0.00    +0.000 A 
ATOM      8  C   UNL     1      47.096   7.929  12.603  0.00  0.00    +0.000 A 
BRANCH   3   9
ATOM      9  C   UNL     1      48.381   9.888  13.520  0.00  0.00    +0.000 C 
BRANCH   9  10
ATOM     10  N   UNL     1      48.453  10.420  14.876  0.00  0.00    +0.000 NA
ATOM     11  H   UNL     1      47.602  10.192  15.382  0.00  0.00    +0.000 HD
ATOM     12  H   UNL     1      48.507  11.436  14.832  0.00  0.00    +0.000 HD
ENDBRANCH   9  10
ENDBRANCH   3   9
ENDBRANCH   1   7
BRANCH   2  13
ATOM     13  S   UNL     1      43.789   4.337  10.887  0.00  0.00    +0.000 S 
BRANCH  13  14
ATOM     14  C   UNL     1      44.863   3.782   9.558  0.00  0.00    +0.000 A 
ATOM     15  C   UNL     1      45.532   4.619   8.661  0.00  0.00    +0.000 A 
ATOM     16  C   UNL     1      46.354   4.087   7.654  0.00  0.00    +0.000 A 
ATOM     17  C   UNL     1      46.517   2.704   7.516  0.00  0.00    +0.000 A 
ATOM     18  C   UNL     1      45.841   1.854   8.394  0.00  0.00    +0.000 A 
ATOM     19  C   UNL     1      45.021   2.393   9.401  0.00  0.00    +0.000 A 
BRANCH  17  20
ATOM     20  C   UNL     1      47.370   2.216   6.395  0.00  0.00    +0.000 C 
ATOM     21  N   UNL     1      47.351   2.918   5.219  0.00  0.00    +0.000 N 
ATOM     22  O   UNL     1      48.052   1.211   6.504  0.00  0.00    +0.000 OA
ATOM     23  H   UNL     1      46.778   3.726   5.037  0.00  0.00    +0.000 HD
ATOM     24  H   UNL     1      47.921   2.552   4.465  0.00  0.00    +0.000 HD
ENDBRANCH  17  20
ENDBRANCH  13  14
ENDBRANCH   2  13
TORSDOF 6
ENDMDL
MODEL 7
REMARK VINA RESULT:    -6.264      1.390      1.963
REMARK INTER + INTRA:          -8.756
REMARK INTER:                  -8.470
REMARK INTRA:                  -0.286
REMARK UNBOUND:                -0.479
REMARK  Name = 
REMARK  6 active torsions:
REMARK  status: ('A' for Active; 'I' for Inactive)
REMARK    1  A    between atoms: N_1  and  C_2
REMARK    2  A    between atoms: C_2  and  C_3
REMARK    3  A    between atoms: C_7  and  C_8
REMARK    4  A    between atoms: C_9  and  S_10
REMARK    5  A    between atoms: S_10  and  C_11
REMARK    6  A    between atoms: C_14  and  C_15
REMARK                            x       y       z     vdW  Elec       q    Type
REMARK                         _______ _______ _______ _____ _____    ______ ____
ROOT
ATOM      1  C   UNL     1      46.250   6.020  11.830  0.00  0.00    +0.000 C 
ATOM      2  C   UNL     1      45.505   4.944  12.155  0.00  0.00    +0.000 C 
ENDROOT
BRANCH   1   7
ATOM      3  C   UNL     1      48.537   6.581  14.785  0.00  0.00    +0.000 A 
ATOM      4  C   UNL     1      49.449   7.458  14.197  0.00  0.00    +0.000 A 
ATOM      5  C   UNL     1      49.247   7.817  12.874  0.00  0.00    +0.000 A 
ATOM      6  N   UNL     1      48.223   7.374  12.114  0.00  0.00    +0.000 NA
ATOM      7  C   UNL     1      47.342   6.517  12.684  0.00  0.00    +0.000 A 
ATOM      8  C   UNL     1      47.460   6.119  14.011  0.00  0.00    +0.000 A 
BRANCH   3   9
ATOM      9  C   UNL     1      48.703   6.091  16.198  0.00  0.00    +0.000 C 
BRANCH   9  10
ATOM     10  N   UNL     1      48.389   4.669  16.277  0.00  0.00    +0.000 NA
ATOM     11  H   UNL     1      49.246   4.125  16.247  0.00  0.00    +0.000 HD
ATOM     12  H   UNL     1      47.842   4.404  15.459  0.00  0.00    +0.000 HD
ENDBRANCH   9  10
ENDBRANCH   3   9
ENDBRANCH   1   7
BRANCH   2  13
ATOM     13  S   UNL     1      44.270   4.319  11.118  0.00  0.00    +0.000 S 
BRANCH  13  14
ATOM     14  C   UNL     1      45.165   3.856   9.630  0.00  0.00    +0.000 A 
ATOM     15  C   UNL     1      45.753   4.751   8.732  0.00  0.00    +0.000 A 
ATOM     16  C   UNL     1      46.434   4.289   7.596  0.00  0.00    +0.000 A 
ATOM     17  C   UNL     1      46.535   2.919   7.325  0.00  0.00    +0.000 A 
ATOM     18  C   UNL     1      45.939   2.013   8.204  0.00  0.00    +0.000 A 
ATOM     19  C   UNL     1      45.258   2.482   9.342  0.00  0.00    +0.000 A 
BRANCH  17  20
ATOM     20  C   UNL     1      47.237   2.511   6.075  0.00  0.00    +0.000 C 
ATOM     21  N   UNL     1      48.507   2.010   6.185  0.00  0.00    +0.000 N 
ATOM     22  O   UNL     1      46.713   2.634   4.981  0.00  0.00    +0.000 OA
ATOM     23  H   UNL     1      49.023   1.924   7.045  0.00  0.00    +0.000 HD
ATOM     24  H   UNL     1      48.971   1.762   5.318  0.00  0.00    +0.000 HD
ENDBRANCH  17  20
ENDBRANCH  13  14
ENDBRANCH   2  13
TORSDOF 6
ENDMDL
MODEL 8
REMARK VINA RESULT:    -6.024      3.969      8.084
REMARK INTER + INTRA:          -8.440
REMARK INTER:                  -8.101
REMARK INTRA:                  -0.339
REMARK UNBOUND:                -0.479
REMARK  Name = 
REMARK  6 active torsions:
REMARK  status: ('A' for Active; 'I' for Inactive)
REMARK    1  A    between atoms: N_1  and  C_2
REMARK    2  A    between atoms: C_2  and  C_3
REMARK    3  A    between atoms: C_7  and  C_8
REMARK    4  A    between atoms: C_9  and  S_10
REMARK    5  A    between atoms: S_10  and  C_11
REMARK    6  A    between atoms: C_14  and  C_15
REMARK                            x       y       z     vdW  Elec       q    Type
REMARK                         _______ _______ _______ _____ _____    ______ ____
ROOT
ATOM      1  C   UNL     1      45.318   5.188   9.476  0.00  0.00    +0.000 C 
ATOM      2  C   UNL     1      45.485   5.340  10.806  0.00  0.00    +0.000 C 
ENDROOT
BRANCH   1   7
ATOM      3  C   UNL     1      46.627   2.710   6.943  0.00  0.00    +0.000 A 
ATOM      4  C   UNL     1      46.217   1.526   7.558  0.00  0.00    +0.000 A 
ATOM      5  C   UNL     1      45.528   1.620   8.756  0.00  0.00    +0.000 A 
ATOM      6  N   UNL     1      45.225   2.783   9.370  0.00  0.00    +0.000 NA
ATOM      7  C   UNL     1      45.630   3.932   8.776  0.00  0.00    +0.000 A 
ATOM      8  C   UNL     1      46.311   3.929   7.563  0.00  0.00    +0.000 A 
BRANCH   3   9
ATOM      9  C   UNL     1      47.429   2.709   5.669  0.00  0.00    +0.000 C 
BRANCH   9  10
ATOM     10  N   UNL     1      48.547   1.780   5.780  0.00  0.00    +0.000 NA
ATOM     11  H   UNL     1      48.199   0.831   5.874  0.00  0.00    +0.000 HD
ATOM     12  H   UNL     1      49.069   1.989   6.630  0.00  0.00    +0.000 HD
ENDBRANCH   9  10
ENDBRANCH   3   9
ENDBRANCH   1   7
BRANCH   2  13
ATOM     13  S   UNL     1      45.053   6.792  11.640  0.00  0.00    +0.000 S 
BRANCH  13  14
ATOM     14  C   UNL     1      46.556   7.235  12.520  0.00  0.00    +0.000 A 
ATOM     15  C   UNL     1      47.731   6.479  12.537  0.00  0.00    +0.000 A 
ATOM     16  C   UNL     1      48.857   6.912  13.255  0.00  0.00    +0.000 A 
ATOM     17  C   UNL     1      48.829   8.108  13.982  0.00  0.00    +0.000 A 
ATOM     18  C   UNL     1      47.656   8.866  13.988  0.00  0.00    +0.000 A 
ATOM     19  C   UNL     1      46.532   8.427  13.266  0.00  0.00    +0.000 A 
BRANCH  17  20
ATOM     20  C   UNL     1      50.049   8.477  14.755  0.00  0.00    +0.000 C 
ATOM     21  N   UNL     1      51.188   7.744  14.548  0.00  0.00    +0.000 N 
ATOM     22  O   UNL     1      50.039   9.389  15.564  0.00  0.00    +0.000 OA
ATOM     23  H   UNL     1      51.261   6.948  13.935  0.00  0.00    +0.000 HD
ATOM     24  H   UNL     1      51.996   8.000  15.104  0.00  0.00    +0.000 HD
ENDBRANCH  17  20
ENDBRANCH  13  14
ENDBRANCH   2  13
TORSDOF 6
ENDMDL
MODEL 9
REMARK VINA RESULT:    -5.778      4.194      7.721
REMARK INTER + INTRA:          -8.114
REMARK INTER:                  -7.727
REMARK INTRA:                  -0.387
REMARK UNBOUND:                -0.479
REMARK  Name = 
REMARK  6 active torsions:
REMARK  status: ('A' for Active; 'I' for Inactive)
REMARK    1  A    between atoms: N_1  and  C_2
REMARK    2  A    between atoms: C_2  and  C_3
REMARK    3  A    between atoms: C_7  and  C_8
REMARK    4  A    between atoms: C_9  and  S_10
REMARK    5  A    between atoms: S_10  and  C_11
REMARK    6  A    between atoms: C_14  and  C_15
REMARK                            x       y       z     vdW  Elec       q    Type
REMARK                         _______ _______ _______ _____ _____    ______ ____
ROOT
ATOM      1  C   UNL     1      45.251   5.388  10.071  0.00  0.00    +0.000 C 
ATOM      2  C   UNL     1      45.423   5.403  11.408  0.00  0.00    +0.000 C 
ENDROOT
BRANCH   1   7
ATOM      3  C   UNL     1      46.333   3.057   7.302  0.00  0.00    +0.000 A 
ATOM      4  C   UNL     1      45.854   1.855   7.824  0.00  0.00    +0.000 A 
ATOM      5  C   UNL     1      45.197   1.890   9.043  0.00  0.00    +0.000 A 
ATOM      6  N   UNL     1      44.989   3.013   9.762  0.00  0.00    +0.000 NA
ATOM      7  C   UNL     1      45.460   4.179   9.258  0.00  0.00    +0.000 A 
ATOM      8  C   UNL     1      46.115   4.236   8.032  0.00  0.00    +0.000 A 
BRANCH   3   9
ATOM      9  C   UNL     1      47.106   3.112   6.012  0.00  0.00    +0.000 C 
BRANCH   9  10
ATOM     10  N   UNL     1      48.419   2.501   6.187  0.00  0.00    +0.000 NA
ATOM     11  H   UNL     1      48.577   1.812   5.458  0.00  0.00    +0.000 HD
ATOM     12  H   UNL     1      48.438   2.003   7.075  0.00  0.00    +0.000 HD
ENDBRANCH   9  10
ENDBRANCH   3   9
ENDBRANCH   1   7
BRANCH   2  13
ATOM     13  S   UNL     1      45.110   6.804  12.373  0.00  0.00    +0.000 S 
BRANCH  13  14
ATOM     14  C   UNL     1      46.560   7.831  12.106  0.00  0.00    +0.000 A 
ATOM     15  C   UNL     1      46.579   9.228  12.160  0.00  0.00    +0.000 A 
ATOM     16  C   UNL     1      47.767   9.943  11.938  0.00  0.00    +0.000 A 
ATOM     17  C   UNL     1      48.963   9.275  11.648  0.00  0.00    +0.000 A 
ATOM     18  C   UNL     1      48.956   7.881  11.574  0.00  0.00    +0.000 A 
ATOM     19  C   UNL     1      47.763   7.171  11.798  0.00  0.00    +0.000 A 
BRANCH  17  20
ATOM     20  C   UNL     1      50.171  10.106  11.382  0.00  0.00    +0.000 C 
ATOM     21  N   UNL     1      51.401   9.526  11.548  0.00  0.00    +0.000 N 
ATOM     22  O   UNL     1      50.080  11.275  11.046  0.00  0.00    +0.000 OA
ATOM     23  H   UNL     1      51.558   8.584  11.869  0.00  0.00    +0.000 HD
ATOM     24  H   UNL     1      52.206  10.119  11.384  0.00  0.00    +0.000 HD
ENDBRANCH  17  20
ENDBRANCH  13  14
ENDBRANCH   2  13
TORSDOF 6
ENDMDL
