MODEL 1
REMARK VINA RESULT:    -8.673      0.000      0.000
REMARK INTER + INTRA:         -12.184
REMARK INTER:                 -11.208
REMARK INTRA:                  -0.976
REMARK UNBOUND:                -0.976
REMARK  Name = 
REMARK  7 active torsions:
REMARK  status: ('A' for Active; 'I' for Inactive)
REMARK    1  A    between atoms: C_1  and  C_2
REMARK    2  A    between atoms: C_4  and  C_5
REMARK    3  A    between atoms: C_12  and  C_13
REMARK    4  A    between atoms: C_13  and  C_14
REMARK    5  A    between atoms: C_13  and  C_15
REMARK    6  A    between atoms: C_15  and  N_16
REMARK    7  A    between atoms: C_20  and  C_21
REMARK                            x       y       z     vdW  Elec       q    Type
REMARK                         _______ _______ _______ _____ _____    ______ ____
ROOT
ATOM      1  C   UNL     1      43.188   4.923  12.305  0.00  0.00    +0.000 C 
ATOM      2  C   UNL     1      42.385   6.207  12.048  0.00  0.00    +0.000 C 
ENDROOT
BRANCH   1   8
ATOM      3  C   UNL     1      47.285   3.883  15.080  0.00  0.00    +0.000 C 
ATOM      4  C   UNL     1      46.569   4.783  14.116  0.00  0.00    +0.000 A 
ATOM      5  C   UNL     1      47.171   5.969  13.664  0.00  0.00    +0.000 A 
ATOM      6  C   UNL     1      46.516   6.839  12.776  0.00  0.00    +0.000 A 
ATOM      7  C   UNL     1      45.223   6.468  12.356  0.00  0.00    +0.000 A 
ATOM      8  C   UNL     1      44.596   5.280  12.779  0.00  0.00    +0.000 A 
ATOM      9  C   UNL     1      45.287   4.442  13.660  0.00  0.00    +0.000 A 
BRANCH   6  10
ATOM     10  C   UNL     1      47.139   8.101  12.302  0.00  0.00    +0.000 A 
ATOM     11  C   UNL     1      46.414   9.309  12.287  0.00  0.00    +0.000 A 
ATOM     12  C   UNL     1      47.001  10.516  11.891  0.00  0.00    +0.000 A 
ATOM     13  C   UNL     1      48.328  10.540  11.479  0.00  0.00    +0.000 A 
ATOM     14  C   UNL     1      49.064   9.359  11.459  0.00  0.00    +0.000 A 
ATOM     15  C   UNL     1      48.476   8.157  11.870  0.00  0.00    +0.000 A 
ENDBRANCH   6  10
ENDBRANCH   1   8
BRANCH   1  16
ATOM     16  C   UNL     1      43.240   4.003  11.061  0.00  0.00    +0.000 C 
BRANCH  16  17
ATOM     17  N   UNL     1      43.870   4.665   9.908  0.00  0.00    +0.000 N 
ATOM     18  C   UNL     1      44.709   3.808   9.166  0.00  0.00    +0.000 A 
ATOM     19  C   UNL     1      45.400   4.331   8.075  0.00  0.00    +0.000 A 
ATOM     20  C   UNL     1      46.249   3.505   7.334  0.00  0.00    +0.000 A 
ATOM     21  C   UNL     1      46.391   2.165   7.690  0.00  0.00    +0.000 A 
ATOM     22  C   UNL     1      45.650   1.723   8.776  0.00  0.00    +0.000 A 
ATOM     23  N   UNL     1      44.824   2.509   9.504  0.00  0.00    +0.000 NA
ATOM     24  H   UNL     1      44.431   5.465  10.185  0.00  0.00    +0.000 HD
BRANCH  21  25
ATOM     25  C   UNL     1      47.310   1.293   6.920  0.00  0.00    +0.000 C 
ATOM     26  N   UNL     1      48.376   1.855   6.271  0.00  0.00    +0.000 N 
ATOM     27  O   UNL     1      47.123   0.084   6.850  0.00  0.00    +0.000 OA
ATOM     28  H   UNL     1      48.624   2.832   6.264  0.00  0.00    +0.000 HD
ATOM     29  H   UNL     1      48.973   1.222   5.753  0.00  0.00    +0.000 HD
ENDBRANCH  21  25
ENDBRANCH  16  17
ENDBRANCH   1  16
TORSDOF 5
ENDMDL
MODEL 2
REMARK VINA RESULT:    -8.252      3.619      7.412
REMARK INTER + INTRA:         -11.640
REMARK INTER:                 -10.817
REMARK INTRA:                  -0.822
REMARK UNBOUND:                -0.976
REMARK  Name = 
REMARK  7 active torsions:
REMARK  status: ('A' for Active; 'I' for Inactive)
REMARK    1  A    between atoms: C_1  and  C_2
REMARK    2  A    between atoms: C_4  and  C_5
REMARK    3  A    between atoms: C_12  and  C_13
REMARK    4  A    between atoms: C_13  and  C_14
REMARK    5  A    between atoms: C_13  and  C_15
REMARK    6  A    between atoms: C_15  and  N_16
REMARK    7  A    between atoms: C_20  and  C_21
REMARK                            x       y       z     vdW  Elec       q    Type
REMARK                         _______ _______ _______ _____ _____    ______ ____
ROOT
ATOM      1  C   UNL     1      46.694   7.644  11.810  0.00  0.00    +0.000 C 
ATOM      2  C   UNL     1      46.077   8.355  13.024  0.00  0.00    +0.000 C 
ENDROOT
BRANCH   1   8
ATOM      3  C   UNL     1      42.099   5.532  11.780  0.00  0.00    +0.000 C 
ATOM      4  C   UNL     1      43.504   5.583  11.254  0.00  0.00    +0.000 A 
ATOM      5  C   UNL     1      43.937   4.664  10.284  0.00  0.00    +0.000 A 
ATOM      6  C   UNL     1      45.251   4.678   9.787  0.00  0.00    +0.000 A 
ATOM      7  C   UNL     1      46.120   5.659  10.306  0.00  0.00    +0.000 A 
ATOM      8  C   UNL     1      45.714   6.603  11.268  0.00  0.00    +0.000 A 
ATOM      9  C   UNL     1      44.395   6.555  11.731  0.00  0.00    +0.000 A 
BRANCH   6  10
ATOM     10  C   UNL     1      45.723   3.703   8.771  0.00  0.00    +0.000 A 
ATOM     11  C   UNL     1      46.258   4.135   7.541  0.00  0.00    +0.000 A 
ATOM     12  C   UNL     1      46.753   3.230   6.595  0.00  0.00    +0.000 A 
ATOM     13  C   UNL     1      46.706   1.865   6.848  0.00  0.00    +0.000 A 
ATOM     14  C   UNL     1      46.161   1.406   8.043  0.00  0.00    +0.000 A 
ATOM     15  C   UNL     1      45.680   2.315   8.993  0.00  0.00    +0.000 A 
ENDBRANCH   6  10
ENDBRANCH   1   8
BRANCH   1  16
ATOM     16  C   UNL     1      48.061   6.998  12.138  0.00  0.00    +0.000 C 
BRANCH  16  17
ATOM     17  N   UNL     1      48.563   7.404  13.459  0.00  0.00    +0.000 N 
ATOM     18  C   UNL     1      48.283   6.466  14.473  0.00  0.00    +0.000 A 
ATOM     19  C   UNL     1      48.669   6.760  15.780  0.00  0.00    +0.000 A 
ATOM     20  C   UNL     1      48.388   5.851  16.804  0.00  0.00    +0.000 A 
ATOM     21  C   UNL     1      47.730   4.658  16.508  0.00  0.00    +0.000 A 
ATOM     22  C   UNL     1      47.402   4.438  15.178  0.00  0.00    +0.000 A 
ATOM     23  N   UNL     1      47.667   5.306  14.175  0.00  0.00    +0.000 NA
ATOM     24  H   UNL     1      48.175   8.294  13.761  0.00  0.00    +0.000 HD
BRANCH  21  25
ATOM     25  C   UNL     1      47.410   3.706  17.596  0.00  0.00    +0.000 C 
ATOM     26  N   UNL     1      48.058   3.820  18.797  0.00  0.00    +0.000 N 
ATOM     27  O   UNL     1      46.584   2.815  17.433  0.00  0.00    +0.000 OA
ATOM     28  H   UNL     1      48.749   4.514  19.039  0.00  0.00    +0.000 HD
ATOM     29  H   UNL     1      47.811   3.144  19.508  0.00  0.00    +0.000 HD
ENDBRANCH  21  25
ENDBRANCH  16  17
ENDBRANCH   1  16
TORSDOF 5
ENDMDL
MODEL 3
REMARK VINA RESULT:    -6.973      3.941      7.654
REMARK INTER + INTRA:          -9.987
REMARK INTER:                  -8.804
REMARK INTRA:                  -1.184
REMARK UNBOUND:                -0.976
REMARK  Name = 
REMARK  7 active torsions:
REMARK  status: ('A' for Active; 'I' for Inactive)
REMARK    1  A    between atoms: C_1  and  C_2
REMARK    2  A    between atoms: C_4  and  C_5
REMARK    3  A    between atoms: C_12  and  C_13
REMARK    4  A    between atoms: C_13  and  C_14
REMARK    5  A    between atoms: C_13  and  C_15
REMARK    6  A    between atoms: C_15  and  N_16
REMARK    7  A    between atoms: C_20  and  C_21
REMARK                            x       y       z     vdW  Elec       q    Type
REMARK                         _______ _______ _______ _____ _____    ______ ____
ROOT
ATOM      1  C   UNL     1      48.437   8.875  12.544  0.00  0.00    +0.000 C 
ATOM      2  C   UNL     1      48.474   9.926  13.664  0.00  0.00    +0.000 C 
ENDROOT
BRANCH   1   8
ATOM      3  C   UNL     1      43.809  10.618  11.490  0.00  0.00    +0.000 C 
ATOM      4  C   UNL     1      44.762   9.464  11.608  0.00  0.00    +0.000 A 
ATOM      5  C   UNL     1      44.330   8.152  11.354  0.00  0.00    +0.000 A 
ATOM      6  C   UNL     1      45.196   7.052  11.475  0.00  0.00    +0.000 A 
ATOM      7  C   UNL     1      46.523   7.324  11.865  0.00  0.00    +0.000 A 
ATOM      8  C   UNL     1      46.992   8.628  12.114  0.00  0.00    +0.000 A 
ATOM      9  C   UNL     1      46.095   9.693  11.977  0.00  0.00    +0.000 A 
BRANCH   6  10
ATOM     10  C   UNL     1      44.747   5.660  11.221  0.00  0.00    +0.000 A 
ATOM     11  C   UNL     1      45.141   4.969  10.058  0.00  0.00    +0.000 A 
ATOM     12  C   UNL     1      44.768   3.640   9.829  0.00  0.00    +0.000 A 
ATOM     13  C   UNL     1      43.970   2.973  10.750  0.00  0.00    +0.000 A 
ATOM     14  C   UNL     1      43.544   3.636  11.898  0.00  0.00    +0.000 A 
ATOM     15  C   UNL     1      43.932   4.961  12.130  0.00  0.00    +0.000 A 
ENDBRANCH   6  10
ENDBRANCH   1   8
BRANCH   1  16
ATOM     16  C   UNL     1      49.125   7.552  12.957  0.00  0.00    +0.000 C 
BRANCH  16  17
ATOM     17  N   UNL     1      49.634   7.598  14.336  0.00  0.00    +0.000 N 
ATOM     18  C   UNL     1      49.083   6.600  15.165  0.00  0.00    +0.000 A 
ATOM     19  C   UNL     1      49.454   6.569  16.509  0.00  0.00    +0.000 A 
ATOM     20  C   UNL     1      48.908   5.599  17.354  0.00  0.00    +0.000 A 
ATOM     21  C   UNL     1      48.005   4.668  16.843  0.00  0.00    +0.000 A 
ATOM     22  C   UNL     1      47.709   4.758  15.491  0.00  0.00    +0.000 A 
ATOM     23  N   UNL     1      48.228   5.691  14.659  0.00  0.00    +0.000 NA
ATOM     24  H   UNL     1      49.451   8.492  14.783  0.00  0.00    +0.000 HD
BRANCH  21  25
ATOM     25  C   UNL     1      47.408   3.654  17.743  0.00  0.00    +0.000 C 
ATOM     26  N   UNL     1      47.951   3.459  18.984  0.00  0.00    +0.000 N 
ATOM     27  O   UNL     1      46.444   2.983  17.388  0.00  0.00    +0.000 OA
ATOM     28  H   UNL     1      48.737   3.954  19.377  0.00  0.00    +0.000 HD
ATOM     29  H   UNL     1      47.514   2.752  19.562  0.00  0.00    +0.000 HD
ENDBRANCH  21  25
ENDBRANCH  16  17
ENDBRANCH   1  16
TORSDOF 5
ENDMDL
MODEL 4
REMARK VINA RESULT:    -6.850      4.816      8.205
REMARK INTER + INTRA:          -9.828
REMARK INTER:                  -8.991
REMARK INTRA:                  -0.837
REMARK UNBOUND:                -0.976
REMARK  Name = 
REMARK  7 active torsions:
REMARK  status: ('A' for Active; 'I' for Inactive)
REMARK    1  A    between atoms: C_1  and  C_2
REMARK    2  A    between atoms: C_4  and  C_5
REMARK    3  A    between atoms: C_12  and  C_13
REMARK    4  A    between atoms: C_13  and  C_14
REMARK    5  A    between atoms: C_13  and  C_15
REMARK    6  A    between atoms: C_15  and  N_16
REMARK    7  A    between atoms: C_20  and  C_21
REMARK                            x       y       z     vdW  Elec       q    Type
REMARK                         _______ _______ _______ _____ _____    ______ ____
ROOT
ATOM      1  C   UNL     1      48.807   7.236  13.560  0.00  0.00    +0.000 C 
ATOM      2  C   UNL     1      49.829   8.219  12.970  0.00  0.00    +0.000 C 
ENDROOT
BRANCH   1   8
ATOM      3  C   UNL     1      44.723   9.876  12.175  0.00  0.00    +0.000 C 
ATOM      4  C   UNL     1      45.521   8.605  12.127  0.00  0.00    +0.000 A 
ATOM      5  C   UNL     1      45.054   7.495  11.403  0.00  0.00    +0.000 A 
ATOM      6  C   UNL     1      45.772   6.289  11.356  0.00  0.00    +0.000 A 
ATOM      7  C   UNL     1      46.986   6.239  12.070  0.00  0.00    +0.000 A 
ATOM      8  C   UNL     1      47.489   7.337  12.793  0.00  0.00    +0.000 A 
ATOM      9  C   UNL     1      46.743   8.521  12.809  0.00  0.00    +0.000 A 
BRANCH   6  10
ATOM     10  C   UNL     1      45.281   5.105  10.605  0.00  0.00    +0.000 A 
ATOM     11  C   UNL     1      45.504   4.979   9.219  0.00  0.00    +0.000 A 
ATOM     12  C   UNL     1      45.093   3.847   8.507  0.00  0.00    +0.000 A 
ATOM     13  C   UNL     1      44.426   2.819   9.162  0.00  0.00    +0.000 A 
ATOM     14  C   UNL     1      44.168   2.924  10.525  0.00  0.00    +0.000 A 
ATOM     15  C   UNL     1      44.595   4.052  11.237  0.00  0.00    +0.000 A 
ENDBRANCH   6  10
ENDBRANCH   1   8
BRANCH   1  16
ATOM     16  C   UNL     1      48.584   7.458  15.075  0.00  0.00    +0.000 C 
BRANCH  16  17
ATOM     17  N   UNL     1      48.074   6.251  15.743  0.00  0.00    +0.000 N 
ATOM     18  C   UNL     1      49.074   5.533  16.432  0.00  0.00    +0.000 A 
ATOM     19  C   UNL     1      48.723   4.344  17.068  0.00  0.00    +0.000 A 
ATOM     20  C   UNL     1      49.700   3.607  17.744  0.00  0.00    +0.000 A 
ATOM     21  C   UNL     1      51.013   4.073  17.780  0.00  0.00    +0.000 A 
ATOM     22  C   UNL     1      51.269   5.276  17.138  0.00  0.00    +0.000 A 
ATOM     23  N   UNL     1      50.336   6.001  16.480  0.00  0.00    +0.000 NA
ATOM     24  H   UNL     1      47.640   5.605  15.090  0.00  0.00    +0.000 HD
BRANCH  21  25
ATOM     25  C   UNL     1      52.055   3.281  18.475  0.00  0.00    +0.000 C 
ATOM     26  N   UNL     1      52.548   3.730  19.670  0.00  0.00    +0.000 N 
ATOM     27  O   UNL     1      52.485   2.240  17.991  0.00  0.00    +0.000 OA
ATOM     28  H   UNL     1      52.265   4.566  20.157  0.00  0.00    +0.000 HD
ATOM     29  H   UNL     1      53.263   3.160  20.106  0.00  0.00    +0.000 HD
ENDBRANCH  21  25
ENDBRANCH  16  17
ENDBRANCH   1  16
TORSDOF 5
ENDMDL
MODEL 5
REMARK VINA RESULT:    -6.730      3.113      6.043
REMARK INTER + INTRA:          -9.672
REMARK INTER:                  -8.699
REMARK INTRA:                  -0.974
REMARK UNBOUND:                -0.976
REMARK  Name = 
REMARK  7 active torsions:
REMARK  status: ('A' for Active; 'I' for Inactive)
REMARK    1  A    between atoms: C_1  and  C_2
REMARK    2  A    between atoms: C_4  and  C_5
REMARK    3  A    between atoms: C_12  and  C_13
REMARK    4  A    between atoms: C_13  and  C_14
REMARK    5  A    between atoms: C_13  and  C_15
REMARK    6  A    between atoms: C_15  and  N_16
REMARK    7  A    between atoms: C_20  and  C_21
REMARK                            x       y       z     vdW  Elec       q    Type
REMARK                         _______ _______ _______ _____ _____    ______ ____
ROOT
ATOM      1  C   UNL     1      48.392   8.567  12.856  0.00  0.00    +0.000 C 
ATOM      2  C   UNL     1      49.233   7.528  12.100  0.00  0.00    +0.000 C 
ENDROOT
BRANCH   1   8
ATOM      3  C   UNL     1      48.337  10.286  17.611  0.00  0.00    +0.000 C 
ATOM      4  C   UNL     1      48.464   9.140  16.650  0.00  0.00    +0.000 A 
ATOM      5  C   UNL     1      48.700   7.837  17.119  0.00  0.00    +0.000 A 
ATOM      6  C   UNL     1      48.842   6.750  16.242  0.00  0.00    +0.000 A 
ATOM      7  C   UNL     1      48.737   7.024  14.863  0.00  0.00    +0.000 A 
ATOM      8  C   UNL     1      48.488   8.315  14.360  0.00  0.00    +0.000 A 
ATOM      9  C   UNL     1      48.350   9.367  15.271  0.00  0.00    +0.000 A 
BRANCH   6  10
ATOM     10  C   UNL     1      49.104   5.370  16.727  0.00  0.00    +0.000 A 
ATOM     11  C   UNL     1      48.132   4.358  16.601  0.00  0.00    +0.000 A 
ATOM     12  C   UNL     1      48.382   3.042  17.006  0.00  0.00    +0.000 A 
ATOM     13  C   UNL     1      49.608   2.710  17.570  0.00  0.00    +0.000 A 
ATOM     14  C   UNL     1      50.580   3.693  17.731  0.00  0.00    +0.000 A 
ATOM     15  C   UNL     1      50.330   5.005  17.310  0.00  0.00    +0.000 A 
ENDBRANCH   6  10
ENDBRANCH   1   8
BRANCH   1  16
ATOM     16  C   UNL     1      46.916   8.580  12.391  0.00  0.00    +0.000 C 
BRANCH  16  17
ATOM     17  N   UNL     1      46.066   7.708  13.216  0.00  0.00    +0.000 N 
ATOM     18  C   UNL     1      45.576   6.586  12.517  0.00  0.00    +0.000 A 
ATOM     19  C   UNL     1      44.721   5.708  13.180  0.00  0.00    +0.000 A 
ATOM     20  C   UNL     1      44.209   4.598  12.502  0.00  0.00    +0.000 A 
ATOM     21  C   UNL     1      44.564   4.378  11.172  0.00  0.00    +0.000 A 
ATOM     22  C   UNL     1      45.437   5.290  10.597  0.00  0.00    +0.000 A 
ATOM     23  N   UNL     1      45.941   6.369  11.238  0.00  0.00    +0.000 NA
ATOM     24  H   UNL     1      45.262   8.200  13.593  0.00  0.00    +0.000 HD
BRANCH  21  25
ATOM     25  C   UNL     1      44.003   3.215  10.445  0.00  0.00    +0.000 C 
ATOM     26  N   UNL     1      44.306   3.046   9.121  0.00  0.00    +0.000 N 
ATOM     27  O   UNL     1      43.267   2.413  11.008  0.00  0.00    +0.000 OA
ATOM     28  H   UNL     1      44.900   3.640   8.563  0.00  0.00    +0.000 HD
ATOM     29  H   UNL     1      43.896   2.241   8.663  0.00  0.00    +0.000 HD
ENDBRANCH  21  25
ENDBRANCH  16  17
ENDBRANCH   1  16
TORSDOF 5
ENDMDL
MODEL 6
REMARK VINA RESULT:    -6.668      4.236      7.708
REMARK INTER + INTRA:          -9.592
REMARK INTER:                  -8.736
REMARK INTRA:                  -0.856
REMARK UNBOUND:                -0.976
REMARK  Name = 
REMARK  7 active torsions:
REMARK  status: ('A' for Active; 'I' for Inactive)
REMARK    1  A    between atoms: C_1  and  C_2
REMARK    2  A    between atoms: C_4  and  C_5
REMARK    3  A    between atoms: C_12  and  C_13
REMARK    4  A    between atoms: C_13  and  C_14
REMARK    5  A    between atoms: C_13  and  C_15
REMARK    6  A    between atoms: C_15  and  N_16
REMARK    7  A    between atoms: C_20  and  C_21
REMARK                            x       y       z     vdW  Elec       q    Type
REMARK                         _______ _______ _______ _____ _____    ______ ____
ROOT
ATOM      1  C   UNL     1      45.423   6.916  11.182  0.00  0.00    +0.000 C 
ATOM      2  C   UNL     1      44.373   7.375  12.205  0.00  0.00    +0.000 C 
ENDROOT
BRANCH   1   8
ATOM      3  C   UNL     1      43.205   2.453  12.041  0.00  0.00    +0.000 C 
ATOM      4  C   UNL     1      44.084   3.319  11.186  0.00  0.00    +0.000 A 
ATOM      5  C   UNL     1      44.681   2.803  10.024  0.00  0.00    +0.000 A 
ATOM      6  C   UNL     1      45.523   3.586   9.216  0.00  0.00    +0.000 A 
ATOM      7  C   UNL     1      45.743   4.916   9.623  0.00  0.00    +0.000 A 
ATOM      8  C   UNL     1      45.149   5.469  10.774  0.00  0.00    +0.000 A 
ATOM      9  C   UNL     1      44.315   4.654  11.547  0.00  0.00    +0.000 A 
BRANCH   6  10
ATOM     10  C   UNL     1      46.169   3.046   7.992  0.00  0.00    +0.000 A 
ATOM     11  C   UNL     1      46.573   1.699   7.916  0.00  0.00    +0.000 A 
ATOM     12  C   UNL     1      47.136   1.163   6.752  0.00  0.00    +0.000 A 
ATOM     13  C   UNL     1      47.331   1.971   5.639  0.00  0.00    +0.000 A 
ATOM     14  C   UNL     1      46.965   3.313   5.691  0.00  0.00    +0.000 A 
ATOM     15  C   UNL     1      46.388   3.841   6.852  0.00  0.00    +0.000 A 
ENDBRANCH   6  10
ENDBRANCH   1   8
BRANCH   1  16
ATOM     16  C   UNL     1      46.869   7.076  11.711  0.00  0.00    +0.000 C 
BRANCH  16  17
ATOM     17  N   UNL     1      46.995   6.659  13.116  0.00  0.00    +0.000 N 
ATOM     18  C   UNL     1      48.240   6.993  13.685  0.00  0.00    +0.000 A 
ATOM     19  C   UNL     1      48.498   6.609  15.000  0.00  0.00    +0.000 A 
ATOM     20  C   UNL     1      49.732   6.915  15.580  0.00  0.00    +0.000 A 
ATOM     21  C   UNL     1      50.690   7.607  14.841  0.00  0.00    +0.000 A 
ATOM     22  C   UNL     1      50.341   7.969  13.547  0.00  0.00    +0.000 A 
ATOM     23  N   UNL     1      49.153   7.680  12.971  0.00  0.00    +0.000 NA
ATOM     24  H   UNL     1      46.873   5.657  13.231  0.00  0.00    +0.000 HD
BRANCH  21  25
ATOM     25  C   UNL     1      52.008   7.910  15.446  0.00  0.00    +0.000 C 
ATOM     26  N   UNL     1      52.955   6.925  15.514  0.00  0.00    +0.000 N 
ATOM     27  O   UNL     1      52.255   9.024  15.894  0.00  0.00    +0.000 OA
ATOM     28  H   UNL     1      52.859   5.980  15.176  0.00  0.00    +0.000 HD
ATOM     29  H   UNL     1      53.837   7.176  15.941  0.00  0.00    +0.000 HD
ENDBRANCH  21  25
ENDBRANCH  16  17
ENDBRANCH   1  16
TORSDOF 5
ENDMDL
MODEL 7
REMARK VINA RESULT:    -6.640      4.275      7.327
REMARK INTER + INTRA:          -9.557
REMARK INTER:                  -8.709
REMARK INTRA:                  -0.848
REMARK UNBOUND:                -0.976
REMARK  Name = 
REMARK  7 active torsions:
REMARK  status: ('A' for Active; 'I' for Inactive)
REMARK    1  A    between atoms: C_1  and  C_2
REMARK    2  A    between atoms: C_4  and  C_5
REMARK    3  A    between atoms: C_12  and  C_13
REMARK    4  A    between atoms: C_13  and  C_14
REMARK    5  A    between atoms: C_13  and  C_15
REMARK    6  A    between atoms: C_15  and  N_16
REMARK    7  A    between atoms: C_20  and  C_21
REMARK                            x       y       z     vdW  Elec       q    Type
REMARK                         _______ _______ _______ _____ _____    ______ ____
ROOT
ATOM      1  C   UNL     1      48.750   7.602  15.910  0.00  0.00    +0.000 C 
ATOM      2  C   UNL     1      49.995   8.500  15.853  0.00  0.00    +0.000 C 
ENDROOT
BRANCH   1   8
ATOM      3  C   UNL     1      47.434   6.108  20.559  0.00  0.00    +0.000 C 
ATOM      4  C   UNL     1      48.244   5.900  19.312  0.00  0.00    +0.000 A 
ATOM      5  C   UNL     1      49.140   4.822  19.215  0.00  0.00    +0.000 A 
ATOM      6  C   UNL     1      49.924   4.613  18.068  0.00  0.00    +0.000 A 
ATOM      7  C   UNL     1      49.773   5.537  17.015  0.00  0.00    +0.000 A 
ATOM      8  C   UNL     1      48.874   6.619  17.074  0.00  0.00    +0.000 A 
ATOM      9  C   UNL     1      48.111   6.786  18.234  0.00  0.00    +0.000 A 
BRANCH   6  10
ATOM     10  C   UNL     1      50.883   3.484  17.960  0.00  0.00    +0.000 A 
ATOM     11  C   UNL     1      50.495   2.250  17.402  0.00  0.00    +0.000 A 
ATOM     12  C   UNL     1      51.400   1.195  17.247  0.00  0.00    +0.000 A 
ATOM     13  C   UNL     1      52.716   1.340  17.667  0.00  0.00    +0.000 A 
ATOM     14  C   UNL     1      53.124   2.538  18.246  0.00  0.00    +0.000 A 
ATOM     15  C   UNL     1      52.219   3.597  18.385  0.00  0.00    +0.000 A 
ENDBRANCH   6  10
ENDBRANCH   1   8
BRANCH   1  16
ATOM     16  C   UNL     1      48.503   6.853  14.578  0.00  0.00    +0.000 C 
BRANCH  16  17
ATOM     17  N   UNL     1      47.327   7.370  13.861  0.00  0.00    +0.000 N 
ATOM     18  C   UNL     1      46.502   6.353  13.341  0.00  0.00    +0.000 A 
ATOM     19  C   UNL     1      45.378   6.718  12.601  0.00  0.00    +0.000 A 
ATOM     20  C   UNL     1      44.554   5.727  12.061  0.00  0.00    +0.000 A 
ATOM     21  C   UNL     1      44.860   4.384  12.275  0.00  0.00    +0.000 A 
ATOM     22  C   UNL     1      45.984   4.111  13.041  0.00  0.00    +0.000 A 
ATOM     23  N   UNL     1      46.792   5.058  13.570  0.00  0.00    +0.000 NA
ATOM     24  H   UNL     1      47.585   7.972  13.084  0.00  0.00    +0.000 HD
BRANCH  21  25
ATOM     25  C   UNL     1      44.000   3.332  11.684  0.00  0.00    +0.000 C 
ATOM     26  N   UNL     1      43.703   2.218  12.423  0.00  0.00    +0.000 N 
ATOM     27  O   UNL     1      43.563   3.440  10.544  0.00  0.00    +0.000 OA
ATOM     28  H   UNL     1      44.005   2.029  13.366  0.00  0.00    +0.000 HD
ATOM     29  H   UNL     1      43.118   1.524  11.976  0.00  0.00    +0.000 HD
ENDBRANCH  21  25
ENDBRANCH  16  17
ENDBRANCH   1  16
TORSDOF 5
ENDMDL
MODEL 8
REMARK VINA RESULT:    -6.572      3.682      7.224
REMARK INTER + INTRA:          -9.469
REMARK INTER:                  -8.529
REMARK INTRA:                  -0.940
REMARK UNBOUND:                -0.976
REMARK  Name = 
REMARK  7 active torsions:
REMARK  status: ('A' for Active; 'I' for Inactive)
REMARK    1  A    between atoms: C_1  and  C_2
REMARK    2  A    between atoms: C_4  and  C_5
REMARK    3  A    between atoms: C_12  and  C_13
REMARK    4  A    between atoms: C_13  and  C_14
REMARK    5  A    between atoms: C_13  and  C_15
REMARK    6  A    between atoms: C_15  and  N_16
REMARK    7  A    between atoms: C_20  and  C_21
REMARK                            x       y       z     vdW  Elec       q    Type
REMARK                         _______ _______ _______ _____ _____    ______ ____
ROOT
ATOM      1  C   UNL     1      44.548   6.831  11.088  0.00  0.00    +0.000 C 
ATOM      2  C   UNL     1      43.108   7.358  11.168  0.00  0.00    +0.000 C 
ENDROOT
BRANCH   1   8
ATOM      3  C   UNL     1      43.112   2.095  12.128  0.00  0.00    +0.000 C 
ATOM      4  C   UNL     1      43.846   3.061  11.244  0.00  0.00    +0.000 A 
ATOM      5  C   UNL     1      44.547   2.605  10.115  0.00  0.00    +0.000 A 
ATOM      6  C   UNL     1      45.258   3.484   9.281  0.00  0.00    +0.000 A 
ATOM      7  C   UNL     1      45.238   4.850   9.628  0.00  0.00    +0.000 A 
ATOM      8  C   UNL     1      44.534   5.342  10.744  0.00  0.00    +0.000 A 
ATOM      9  C   UNL     1      43.837   4.431  11.544  0.00  0.00    +0.000 A 
BRANCH   6  10
ATOM     10  C   UNL     1      46.012   3.011   8.092  0.00  0.00    +0.000 A 
ATOM     11  C   UNL     1      46.421   1.668   7.977  0.00  0.00    +0.000 A 
ATOM     12  C   UNL     1      47.088   1.196   6.841  0.00  0.00    +0.000 A 
ATOM     13  C   UNL     1      47.382   2.063   5.797  0.00  0.00    +0.000 A 
ATOM     14  C   UNL     1      47.013   3.402   5.891  0.00  0.00    +0.000 A 
ATOM     15  C   UNL     1      46.333   3.867   7.023  0.00  0.00    +0.000 A 
ENDBRANCH   6  10
ENDBRANCH   1   8
BRANCH   1  16
ATOM     16  C   UNL     1      45.343   7.091  12.389  0.00  0.00    +0.000 C 
BRANCH  16  17
ATOM     17  N   UNL     1      46.719   6.575  12.311  0.00  0.00    +0.000 N 
ATOM     18  C   UNL     1      47.681   7.586  12.114  0.00  0.00    +0.000 A 
ATOM     19  C   UNL     1      49.018   7.216  11.977  0.00  0.00    +0.000 A 
ATOM     20  C   UNL     1      49.988   8.200  11.764  0.00  0.00    +0.000 A 
ATOM     21  C   UNL     1      49.610   9.540  11.698  0.00  0.00    +0.000 A 
ATOM     22  C   UNL     1      48.261   9.819  11.866  0.00  0.00    +0.000 A 
ATOM     23  N   UNL     1      47.310   8.880  12.072  0.00  0.00    +0.000 NA
ATOM     24  H   UNL     1      46.834   5.902  11.559  0.00  0.00    +0.000 HD
BRANCH  21  25
ATOM     25  C   UNL     1      50.634  10.581  11.448  0.00  0.00    +0.000 C 
ATOM     26  N   UNL     1      51.929  10.203  11.220  0.00  0.00    +0.000 N 
ATOM     27  O   UNL     1      50.339  11.771  11.453  0.00  0.00    +0.000 OA
ATOM     28  H   UNL     1      52.279   9.258  11.190  0.00  0.00    +0.000 HD
ATOM     29  H   UNL     1      52.595  10.949  11.060  0.00  0.00    +0.000 HD
ENDBRANCH  21  25
ENDBRANCH  16  17
ENDBRANCH   1  16
TORSDOF 5
ENDMDL
MODEL 9
REMARK VINA RESULT:    -6.539      4.603      7.398
REMARK INTER + INTRA:          -9.426
REMARK INTER:                  -8.491
REMARK INTRA:                  -0.936
REMARK UNBOUND:                -0.976
REMARK  Name = 
REMARK  7 active torsions:
REMARK  status: ('A' for Active; 'I' for Inactive)
REMARK    1  A    between atoms: C_1  and  C_2
REMARK    2  A    between atoms: C_4  and  C_5
REMARK    3  A    between atoms: C_12  and  C_13
REMARK    4  A    between atoms: C_13  and  C_14
REMARK    5  A    between atoms: C_13  and  C_15
REMARK    6  A    between atoms: C_15  and  N_16
REMARK    7  A    between atoms: C_20  and  C_21
REMARK                            x       y       z     vdW  Elec       q    Type
REMARK                         _______ _______ _______ _____ _____    ______ ____
ROOT
ATOM      1  C   UNL     1      45.886   5.405  13.326  0.00  0.00    +0.000 C 
ATOM      2  C   UNL     1      45.052   4.671  12.264  0.00  0.00    +0.000 C 
ENDROOT
BRANCH   1   8
ATOM      3  C   UNL     1      44.533  10.112  12.069  0.00  0.00    +0.000 C 
ATOM      4  C   UNL     1      45.601   9.067  12.215  0.00  0.00    +0.000 A 
ATOM      5  C   UNL     1      46.931   9.352  11.867  0.00  0.00    +0.000 A 
ATOM      6  C   UNL     1      47.947   8.388  11.977  0.00  0.00    +0.000 A 
ATOM      7  C   UNL     1      47.571   7.116  12.453  0.00  0.00    +0.000 A 
ATOM      8  C   UNL     1      46.250   6.801  12.823  0.00  0.00    +0.000 A 
ATOM      9  C   UNL     1      45.271   7.794  12.702  0.00  0.00    +0.000 A 
BRANCH   6  10
ATOM     10  C   UNL     1      49.355   8.675  11.600  0.00  0.00    +0.000 A 
ATOM     11  C   UNL     1      50.278   7.633  11.386  0.00  0.00    +0.000 A 
ATOM     12  C   UNL     1      51.593   7.885  10.981  0.00  0.00    +0.000 A 
ATOM     13  C   UNL     1      52.025   9.193  10.800  0.00  0.00    +0.000 A 
ATOM     14  C   UNL     1      51.144  10.246  11.028  0.00  0.00    +0.000 A 
ATOM     15  C   UNL     1      49.825   9.988  11.419  0.00  0.00    +0.000 A 
ENDBRANCH   6  10
ENDBRANCH   1   8
BRANCH   1  16
ATOM     16  C   UNL     1      47.153   4.614  13.729  0.00  0.00    +0.000 C 
BRANCH  16  17
ATOM     17  N   UNL     1      46.890   3.663  14.820  0.00  0.00    +0.000 N 
ATOM     18  C   UNL     1      47.604   3.960  15.999  0.00  0.00    +0.000 A 
ATOM     19  C   UNL     1      47.473   3.103  17.091  0.00  0.00    +0.000 A 
ATOM     20  C   UNL     1      48.183   3.368  18.266  0.00  0.00    +0.000 A 
ATOM     21  C   UNL     1      49.009   4.489  18.335  0.00  0.00    +0.000 A 
ATOM     22  C   UNL     1      49.063   5.298  17.209  0.00  0.00    +0.000 A 
ATOM     23  N   UNL     1      48.383   5.057  16.065  0.00  0.00    +0.000 NA
ATOM     24  H   UNL     1      47.124   2.709  14.562  0.00  0.00    +0.000 HD
BRANCH  21  25
ATOM     25  C   UNL     1      49.781   4.758  19.571  0.00  0.00    +0.000 C 
ATOM     26  N   UNL     1      49.319   4.275  20.765  0.00  0.00    +0.000 N 
ATOM     27  O   UNL     1      50.817   5.412  19.539  0.00  0.00    +0.000 OA
ATOM     28  H   UNL     1      48.485   3.725  20.905  0.00  0.00    +0.000 HD
ATOM     29  H   UNL     1      49.875   4.488  21.584  0.00  0.00    +0.000 HD
ENDBRANCH  21  25
ENDBRANCH  16  17
ENDBRANCH   1  16
TORSDOF 5
ENDMDL
