MODEL 1
REMARK VINA RESULT:    -8.926      0.000      0.000
REMARK INTER + INTRA:         -14.303
REMARK INTER:                 -13.101
REMARK INTRA:                  -1.202
REMARK UNBOUND:                -1.202
REMARK  Name = 
REMARK  8 active torsions:
REMARK  status: ('A' for Active; 'I' for Inactive)
REMARK    1  A    between atoms: C_2  and  C_3
REMARK    2  A    between atoms: C_3  and  N_4
REMARK    3  A    between atoms: C_3  and  C_12
REMARK    4  A    between atoms: N_4  and  C_5
REMARK    5  A    between atoms: C_5  and  C_6
REMARK    6  A    between atoms: C_15  and  C_16
REMARK    7  A    between atoms: C_16  and  N_17
REMARK    8  A    between atoms: C_18  and  C_20
REMARK                            x       y       z     vdW  Elec       q    Type
REMARK                         _______ _______ _______ _____ _____    ______ ____
ROOT
ATOM      1  C   UNL     1      44.557   5.550  11.100  0.00  0.00    +0.000 A 
ATOM      2  C   UNL     1      45.857   5.793  10.614  0.00  0.00    +0.000 A 
ATOM      3  C   UNL     1      46.744   6.633  11.302  0.00  0.00    +0.000 A 
ATOM      4  C   UNL     1      46.354   7.257  12.493  0.00  0.00    +0.000 A 
ATOM      5  C   UNL     1      45.048   7.064  12.952  0.00  0.00    +0.000 A 
ATOM      6  C   UNL     1      44.169   6.214  12.277  0.00  0.00    +0.000 A 
ENDROOT
BRANCH   1   7
ATOM      7  C   UNL     1      43.626   4.582  10.354  0.00  0.00    +0.000 C 
BRANCH   7   9
ATOM      8  N   UNL     1      43.083   2.395  11.761  0.00  0.00    +0.000 NA
ATOM      9  C   UNL     1      43.315   3.350  11.143  0.00  0.00    +0.000 C 
ENDBRANCH   7   9
BRANCH   7  10
ATOM     10  N   UNL     1      44.193   4.284   9.014  0.00  0.00    +0.000 NA
ATOM     11  H   UNL     1      43.536   4.595   8.302  0.00  0.00    +0.000 HD
BRANCH  10  12
ATOM     12  C   UNL     1      44.448   2.857   8.806  0.00  0.00    +0.000 C 
BRANCH  12  13
ATOM     13  C   UNL     1      45.670   2.618   7.947  0.00  0.00    +0.000 A 
ATOM     14  C   UNL     1      46.388   1.416   8.053  0.00  0.00    +0.000 A 
ATOM     15  C   UNL     1      47.438   1.132   7.178  0.00  0.00    +0.000 A 
ATOM     16  C   UNL     1      47.786   2.047   6.188  0.00  0.00    +0.000 A 
ATOM     17  C   UNL     1      47.099   3.255   6.085  0.00  0.00    +0.000 A 
ATOM     18  C   UNL     1      46.048   3.542   6.961  0.00  0.00    +0.000 A 
ENDBRANCH  12  13
ENDBRANCH  10  12
ENDBRANCH   7  10
ENDBRANCH   1   7
BRANCH   4  19
ATOM     19  C   UNL     1      47.293   8.144  13.267  0.00  0.00    +0.000 C 
BRANCH  19  20
ATOM     20  N   UNL     1      47.658   7.529  14.515  0.00  0.00    +0.000 N 
ATOM     21  C   UNL     1      48.896   6.976  14.714  0.00  0.00    +0.000 C 
ATOM     22  O   UNL     1      49.780   7.012  13.861  0.00  0.00    +0.000 OA
ATOM     23  H   UNL     1      46.891   7.222  15.104  0.00  0.00    +0.000 HD
BRANCH  21  24
ATOM     24  C   UNL     1      49.130   6.407  16.046  0.00  0.00    +0.000 A 
ATOM     25  C   UNL     1      49.978   7.048  16.940  0.00  0.00    +0.000 A 
ATOM     26  S   UNL     1      50.048   6.292  18.468  0.00  0.00    +0.000 S 
ATOM     27  C   UNL     1      48.999   5.051  17.967  0.00  0.00    +0.000 A 
ATOM     28  N   UNL     1      48.646   4.044  18.807  0.00  0.00    +0.000 NA
ATOM     29  C   UNL     1      47.865   3.153  18.286  0.00  0.00    +0.000 A 
ATOM     30  N   UNL     1      47.405   3.186  16.996  0.00  0.00    +0.000 N 
ATOM     31  C   UNL     1      47.713   4.196  16.119  0.00  0.00    +0.000 A 
ATOM     32  O   UNL     1      47.258   4.204  14.979  0.00  0.00    +0.000 OA
ATOM     33  C   UNL     1      48.593   5.215  16.655  0.00  0.00    +0.000 A 
ATOM     34  H   UNL     1      46.793   2.462  16.649  0.00  0.00    +0.000 HD
ENDBRANCH  21  24
ENDBRANCH  19  20
ENDBRANCH   4  19
TORSDOF 8
ENDMDL
MODEL 2
REMARK VINA RESULT:    -8.579      1.428      1.820
REMARK INTER + INTRA:         -13.793
REMARK INTER:                 -12.712
REMARK INTRA:                  -1.082
REMARK UNBOUND:                -1.202
REMARK  Name = 
REMARK  8 active torsions:
REMARK  status: ('A' for Active; 'I' for Inactive)
REMARK    1  A    between atoms: C_2  and  C_3
REMARK    2  A    between atoms: C_3  and  N_4
REMARK    3  A    between atoms: C_3  and  C_12
REMARK    4  A    between atoms: N_4  and  C_5
REMARK    5  A    between atoms: C_5  and  C_6
REMARK    6  A    between atoms: C_15  and  C_16
REMARK    7  A    between atoms: C_16  and  N_17
REMARK    8  A    between atoms: C_18  and  C_20
REMARK                            x       y       z     vdW  Elec       q    Type
REMARK                         _______ _______ _______ _____ _____    ______ ____
ROOT
ATOM      1  C   UNL     1      44.965   4.849  11.582  0.00  0.00    +0.000 A 
ATOM      2  C   UNL     1      45.661   5.853  10.880  0.00  0.00    +0.000 A 
ATOM      3  C   UNL     1      46.740   6.534  11.465  0.00  0.00    +0.000 A 
ATOM      4  C   UNL     1      47.149   6.230  12.769  0.00  0.00    +0.000 A 
ATOM      5  C   UNL     1      46.429   5.274  13.491  0.00  0.00    +0.000 A 
ATOM      6  C   UNL     1      45.366   4.584  12.903  0.00  0.00    +0.000 A 
ENDROOT
BRANCH   1   7
ATOM      7  C   UNL     1      43.823   4.083  10.897  0.00  0.00    +0.000 C 
BRANCH   7   9
ATOM      8  N   UNL     1      43.074   1.925  12.253  0.00  0.00    +0.000 NA
ATOM      9  C   UNL     1      43.396   2.870  11.661  0.00  0.00    +0.000 C 
ENDBRANCH   7   9
BRANCH   7  10
ATOM     10  N   UNL     1      44.204   3.779   9.494  0.00  0.00    +0.000 NA
ATOM     11  H   UNL     1      43.372   3.822   8.910  0.00  0.00    +0.000 HD
BRANCH  10  12
ATOM     12  C   UNL     1      44.801   2.451   9.338  0.00  0.00    +0.000 C 
BRANCH  12  13
ATOM     13  C   UNL     1      45.732   2.383   8.148  0.00  0.00    +0.000 A 
ATOM     14  C   UNL     1      45.871   3.486   7.291  0.00  0.00    +0.000 A 
ATOM     15  C   UNL     1      46.820   3.480   6.267  0.00  0.00    +0.000 A 
ATOM     16  C   UNL     1      47.640   2.369   6.084  0.00  0.00    +0.000 A 
ATOM     17  C   UNL     1      47.497   1.256   6.911  0.00  0.00    +0.000 A 
ATOM     18  C   UNL     1      46.547   1.260   7.936  0.00  0.00    +0.000 A 
ENDBRANCH  12  13
ENDBRANCH  10  12
ENDBRANCH   7  10
ENDBRANCH   1   7
BRANCH   4  19
ATOM     19  C   UNL     1      48.318   6.926  13.414  0.00  0.00    +0.000 C 
BRANCH  19  20
ATOM     20  N   UNL     1      48.161   6.962  14.843  0.00  0.00    +0.000 N 
ATOM     21  C   UNL     1      49.235   6.883  15.691  0.00  0.00    +0.000 C 
ATOM     22  O   UNL     1      50.393   6.825  15.286  0.00  0.00    +0.000 OA
ATOM     23  H   UNL     1      47.244   6.711  15.199  0.00  0.00    +0.000 HD
BRANCH  21  24
ATOM     24  C   UNL     1      48.920   6.956  17.122  0.00  0.00    +0.000 A 
ATOM     25  C   UNL     1      48.523   8.160  17.689  0.00  0.00    +0.000 A 
ATOM     26  S   UNL     1      48.106   8.028  19.338  0.00  0.00    +0.000 S 
ATOM     27  C   UNL     1      48.500   6.373  19.366  0.00  0.00    +0.000 A 
ATOM     28  N   UNL     1      48.382   5.638  20.501  0.00  0.00    +0.000 NA
ATOM     29  C   UNL     1      48.744   4.401  20.386  0.00  0.00    +0.000 A 
ATOM     30  N   UNL     1      49.210   3.836  19.228  0.00  0.00    +0.000 N 
ATOM     31  C   UNL     1      49.321   4.531  18.049  0.00  0.00    +0.000 A 
ATOM     32  O   UNL     1      49.717   3.982  17.026  0.00  0.00    +0.000 OA
ATOM     33  C   UNL     1      48.936   5.925  18.132  0.00  0.00    +0.000 A 
ATOM     34  H   UNL     1      49.471   2.861  19.200  0.00  0.00    +0.000 HD
ENDBRANCH  21  24
ENDBRANCH  19  20
ENDBRANCH   4  19
TORSDOF 8
ENDMDL
MODEL 3
REMARK VINA RESULT:    -8.218      2.393      3.020
REMARK INTER + INTRA:         -13.263
REMARK INTER:                 -12.347
REMARK INTRA:                  -0.916
REMARK UNBOUND:                -1.202
REMARK  Name = 
REMARK  8 active torsions:
REMARK  status: ('A' for Active; 'I' for Inactive)
REMARK    1  A    between atoms: C_2  and  C_3
REMARK    2  A    between atoms: C_3  and  N_4
REMARK    3  A    between atoms: C_3  and  C_12
REMARK    4  A    between atoms: N_4  and  C_5
REMARK    5  A    between atoms: C_5  and  C_6
REMARK    6  A    between atoms: C_15  and  C_16
REMARK    7  A    between atoms: C_16  and  N_17
REMARK    8  A    between atoms: C_18  and  C_20
REMARK                            x       y       z     vdW  Elec       q    Type
REMARK                         _______ _______ _______ _____ _____    ______ ____
ROOT
ATOM      1  C   UNL     1      45.490   5.455  11.781  0.00  0.00    +0.000 A 
ATOM      2  C   UNL     1      46.116   6.700  11.571  0.00  0.00    +0.000 A 
ATOM      3  C   UNL     1      47.165   7.134  12.394  0.00  0.00    +0.000 A 
ATOM      4  C   UNL     1      47.616   6.336  13.452  0.00  0.00    +0.000 A 
ATOM      5  C   UNL     1      46.965   5.124  13.700  0.00  0.00    +0.000 A 
ATOM      6  C   UNL     1      45.931   4.683  12.870  0.00  0.00    +0.000 A 
ENDROOT
BRANCH   1   7
ATOM      7  C   UNL     1      44.380   4.982  10.830  0.00  0.00    +0.000 C 
BRANCH   7   9
ATOM      8  N   UNL     1      43.233   2.717  11.611  0.00  0.00    +0.000 NA
ATOM      9  C   UNL     1      43.738   3.707  11.275  0.00  0.00    +0.000 C 
ENDBRANCH   7   9
BRANCH   7  10
ATOM     10  N   UNL     1      44.912   4.911   9.446  0.00  0.00    +0.000 NA
ATOM     11  H   UNL     1      44.606   5.735   8.932  0.00  0.00    +0.000 HD
BRANCH  10  12
ATOM     12  C   UNL     1      44.454   3.727   8.718  0.00  0.00    +0.000 C 
BRANCH  12  13
ATOM     13  C   UNL     1      45.597   2.989   8.055  0.00  0.00    +0.000 A 
ATOM     14  C   UNL     1      45.878   1.658   8.400  0.00  0.00    +0.000 A 
ATOM     15  C   UNL     1      46.845   0.929   7.706  0.00  0.00    +0.000 A 
ATOM     16  C   UNL     1      47.548   1.523   6.660  0.00  0.00    +0.000 A 
ATOM     17  C   UNL     1      47.298   2.852   6.322  0.00  0.00    +0.000 A 
ATOM     18  C   UNL     1      46.330   3.583   7.017  0.00  0.00    +0.000 A 
ENDBRANCH  12  13
ENDBRANCH  10  12
ENDBRANCH   7  10
ENDBRANCH   1   7
BRANCH   4  19
ATOM     19  C   UNL     1      48.757   6.763  14.336  0.00  0.00    +0.000 C 
BRANCH  19  20
ATOM     20  N   UNL     1      48.317   6.902  15.699  0.00  0.00    +0.000 N 
ATOM     21  C   UNL     1      48.946   6.256  16.731  0.00  0.00    +0.000 C 
ATOM     22  O   UNL     1      49.946   5.561  16.564  0.00  0.00    +0.000 OA
ATOM     23  H   UNL     1      47.358   7.204  15.831  0.00  0.00    +0.000 HD
BRANCH  21  24
ATOM     24  C   UNL     1      48.399   6.513  18.068  0.00  0.00    +0.000 A 
ATOM     25  C   UNL     1      48.230   5.467  18.966  0.00  0.00    +0.000 A 
ATOM     26  S   UNL     1      47.676   5.973  20.499  0.00  0.00    +0.000 S 
ATOM     27  C   UNL     1      47.585   7.595  19.996  0.00  0.00    +0.000 A 
ATOM     28  N   UNL     1      47.162   8.572  20.837  0.00  0.00    +0.000 NA
ATOM     29  C   UNL     1      47.115   9.755  20.315  0.00  0.00    +0.000 A 
ATOM     30  N   UNL     1      47.460  10.044  19.020  0.00  0.00    +0.000 N 
ATOM     31  C   UNL     1      47.919   9.095  18.141  0.00  0.00    +0.000 A 
ATOM     32  O   UNL     1      48.243   9.397  16.997  0.00  0.00    +0.000 OA
ATOM     33  C   UNL     1      47.980   7.751  18.679  0.00  0.00    +0.000 A 
ATOM     34  H   UNL     1      47.406  10.990  18.672  0.00  0.00    +0.000 HD
ENDBRANCH  21  24
ENDBRANCH  19  20
ENDBRANCH   4  19
TORSDOF 8
ENDMDL
MODEL 4
REMARK VINA RESULT:    -7.840      1.411      1.535
REMARK INTER + INTRA:         -12.709
REMARK INTER:                 -11.737
REMARK INTRA:                  -0.972
REMARK UNBOUND:                -1.202
REMARK  Name = 
REMARK  8 active torsions:
REMARK  status: ('A' for Active; 'I' for Inactive)
REMARK    1  A    between atoms: C_2  and  C_3
REMARK    2  A    between atoms: C_3  and  N_4
REMARK    3  A    between atoms: C_3  and  C_12
REMARK    4  A    between atoms: N_4  and  C_5
REMARK    5  A    between atoms: C_5  and  C_6
REMARK    6  A    between atoms: C_15  and  C_16
REMARK    7  A    between atoms: C_16  and  N_17
REMARK    8  A    between atoms: C_18  and  C_20
REMARK                            x       y       z     vdW  Elec       q    Type
REMARK                         _______ _______ _______ _____ _____    ______ ____
ROOT
ATOM      1  C   UNL     1      44.859   5.869  11.359  0.00  0.00    +0.000 A 
ATOM      2  C   UNL     1      46.055   5.398  11.935  0.00  0.00    +0.000 A 
ATOM      3  C   UNL     1      46.925   6.264  12.614  0.00  0.00    +0.000 A 
ATOM      4  C   UNL     1      46.622   7.625  12.733  0.00  0.00    +0.000 A 
ATOM      5  C   UNL     1      45.465   8.110  12.118  0.00  0.00    +0.000 A 
ATOM      6  C   UNL     1      44.590   7.245  11.456  0.00  0.00    +0.000 A 
ENDROOT
BRANCH   1   7
ATOM      7  C   UNL     1      43.899   4.887  10.669  0.00  0.00    +0.000 C 
BRANCH   7   9
ATOM      8  N   UNL     1      43.374   2.747  12.153  0.00  0.00    +0.000 NA
ATOM      9  C   UNL     1      43.606   3.679  11.500  0.00  0.00    +0.000 C 
ENDBRANCH   7   9
BRANCH   7  10
ATOM     10  N   UNL     1      44.423   4.549   9.321  0.00  0.00    +0.000 NA
ATOM     11  H   UNL     1      43.824   4.977   8.618  0.00  0.00    +0.000 HD
BRANCH  10  12
ATOM     12  C   UNL     1      44.462   3.108   9.068  0.00  0.00    +0.000 C 
BRANCH  12  13
ATOM     13  C   UNL     1      45.604   2.723   8.153  0.00  0.00    +0.000 A 
ATOM     14  C   UNL     1      46.178   1.444   8.234  0.00  0.00    +0.000 A 
ATOM     15  C   UNL     1      47.143   1.035   7.311  0.00  0.00    +0.000 A 
ATOM     16  C   UNL     1      47.550   1.900   6.298  0.00  0.00    +0.000 A 
ATOM     17  C   UNL     1      47.007   3.182   6.220  0.00  0.00    +0.000 A 
ATOM     18  C   UNL     1      46.041   3.593   7.143  0.00  0.00    +0.000 A 
ENDBRANCH  12  13
ENDBRANCH  10  12
ENDBRANCH   7  10
ENDBRANCH   1   7
BRANCH   4  19
ATOM     19  C   UNL     1      47.523   8.575  13.477  0.00  0.00    +0.000 C 
BRANCH  19  20
ATOM     20  N   UNL     1      48.596   7.860  14.116  0.00  0.00    +0.000 N 
ATOM     21  C   UNL     1      48.862   7.998  15.453  0.00  0.00    +0.000 C 
ATOM     22  O   UNL     1      48.176   8.700  16.194  0.00  0.00    +0.000 OA
ATOM     23  H   UNL     1      49.337   7.528  13.508  0.00  0.00    +0.000 HD
BRANCH  21  24
ATOM     24  C   UNL     1      49.971   7.188  15.967  0.00  0.00    +0.000 A 
ATOM     25  C   UNL     1      51.276   7.659  15.888  0.00  0.00    +0.000 A 
ATOM     26  S   UNL     1      52.416   6.625  16.624  0.00  0.00    +0.000 S 
ATOM     27  C   UNL     1      51.216   5.486  17.019  0.00  0.00    +0.000 A 
ATOM     28  N   UNL     1      51.523   4.332  17.663  0.00  0.00    +0.000 NA
ATOM     29  C   UNL     1      50.518   3.545  17.875  0.00  0.00    +0.000 A 
ATOM     30  N   UNL     1      49.229   3.818  17.498  0.00  0.00    +0.000 N 
ATOM     31  C   UNL     1      48.865   4.982  16.869  0.00  0.00    +0.000 A 
ATOM     32  O   UNL     1      47.695   5.202  16.572  0.00  0.00    +0.000 OA
ATOM     33  C   UNL     1      49.961   5.893  16.602  0.00  0.00    +0.000 A 
ATOM     34  H   UNL     1      48.486   3.164  17.697  0.00  0.00    +0.000 HD
ENDBRANCH  21  24
ENDBRANCH  19  20
ENDBRANCH   4  19
TORSDOF 8
ENDMDL
MODEL 5
REMARK VINA RESULT:    -7.240      1.953      2.551
REMARK INTER + INTRA:         -11.828
REMARK INTER:                 -10.829
REMARK INTRA:                  -1.000
REMARK UNBOUND:                -1.202
REMARK  Name = 
REMARK  8 active torsions:
REMARK  status: ('A' for Active; 'I' for Inactive)
REMARK    1  A    between atoms: C_2  and  C_3
REMARK    2  A    between atoms: C_3  and  N_4
REMARK    3  A    between atoms: C_3  and  C_12
REMARK    4  A    between atoms: N_4  and  C_5
REMARK    5  A    between atoms: C_5  and  C_6
REMARK    6  A    between atoms: C_15  and  C_16
REMARK    7  A    between atoms: C_16  and  N_17
REMARK    8  A    between atoms: C_18  and  C_20
REMARK                            x       y       z     vdW  Elec       q    Type
REMARK                         _______ _______ _______ _____ _____    ______ ____
ROOT
ATOM      1  C   UNL     1      45.490   5.909  11.748  0.00  0.00    +0.000 A 
ATOM      2  C   UNL     1      45.953   7.195  11.407  0.00  0.00    +0.000 A 
ATOM      3  C   UNL     1      47.046   7.773  12.070  0.00  0.00    +0.000 A 
ATOM      4  C   UNL     1      47.702   7.082  13.095  0.00  0.00    +0.000 A 
ATOM      5  C   UNL     1      47.214   5.828  13.476  0.00  0.00    +0.000 A 
ATOM      6  C   UNL     1      46.137   5.245  12.805  0.00  0.00    +0.000 A 
ENDROOT
BRANCH   1   7
ATOM      7  C   UNL     1      44.326   5.279  10.967  0.00  0.00    +0.000 C 
BRANCH   7   9
ATOM      8  N   UNL     1      43.180   3.263  12.264  0.00  0.00    +0.000 NA
ATOM      9  C   UNL     1      43.686   4.141  11.696  0.00  0.00    +0.000 C 
ENDBRANCH   7   9
BRANCH   7  10
ATOM     10  N   UNL     1      44.787   4.909   9.606  0.00  0.00    +0.000 NA
ATOM     11  H   UNL     1      44.317   5.502   8.925  0.00  0.00    +0.000 HD
BRANCH  10  12
ATOM     12  C   UNL     1      44.503   3.514   9.266  0.00  0.00    +0.000 C 
BRANCH  12  13
ATOM     13  C   UNL     1      45.589   2.906   8.405  0.00  0.00    +0.000 A 
ATOM     14  C   UNL     1      45.857   1.529   8.467  0.00  0.00    +0.000 A 
ATOM     15  C   UNL     1      46.766   0.938   7.588  0.00  0.00    +0.000 A 
ATOM     16  C   UNL     1      47.422   1.716   6.637  0.00  0.00    +0.000 A 
ATOM     17  C   UNL     1      47.184   3.088   6.579  0.00  0.00    +0.000 A 
ATOM     18  C   UNL     1      46.275   3.682   7.459  0.00  0.00    +0.000 A 
ENDBRANCH  12  13
ENDBRANCH  10  12
ENDBRANCH   7  10
ENDBRANCH   1   7
BRANCH   4  19
ATOM     19  C   UNL     1      48.893   7.665  13.808  0.00  0.00    +0.000 C 
BRANCH  19  20
ATOM     20  N   UNL     1      49.321   6.798  14.873  0.00  0.00    +0.000 N 
ATOM     21  C   UNL     1      49.116   7.114  16.191  0.00  0.00    +0.000 C 
ATOM     22  O   UNL     1      48.515   8.128  16.540  0.00  0.00    +0.000 OA
ATOM     23  H   UNL     1      50.057   6.138  14.643  0.00  0.00    +0.000 HD
BRANCH  21  24
ATOM     24  C   UNL     1      49.587   6.122  17.163  0.00  0.00    +0.000 A 
ATOM     25  C   UNL     1      48.696   5.542  18.057  0.00  0.00    +0.000 A 
ATOM     26  S   UNL     1      49.407   4.343  19.040  0.00  0.00    +0.000 S 
ATOM     27  C   UNL     1      50.939   4.600  18.348  0.00  0.00    +0.000 A 
ATOM     28  N   UNL     1      52.025   3.893  18.754  0.00  0.00    +0.000 NA
ATOM     29  C   UNL     1      53.131   4.211  18.163  0.00  0.00    +0.000 A 
ATOM     30  N   UNL     1      53.242   5.176  17.196  0.00  0.00    +0.000 N 
ATOM     31  C   UNL     1      52.169   5.897  16.734  0.00  0.00    +0.000 A 
ATOM     32  O   UNL     1      52.305   6.734  15.847  0.00  0.00    +0.000 OA
ATOM     33  C   UNL     1      50.908   5.582  17.374  0.00  0.00    +0.000 A 
ATOM     34  H   UNL     1      54.135   5.375  16.768  0.00  0.00    +0.000 HD
ENDBRANCH  21  24
ENDBRANCH  19  20
ENDBRANCH   4  19
TORSDOF 8
ENDMDL
MODEL 6
REMARK VINA RESULT:    -7.181      2.843      4.758
REMARK INTER + INTRA:         -11.742
REMARK INTER:                 -10.651
REMARK INTRA:                  -1.091
REMARK UNBOUND:                -1.202
REMARK  Name = 
REMARK  8 active torsions:
REMARK  status: ('A' for Active; 'I' for Inactive)
REMARK    1  A    between atoms: C_2  and  C_3
REMARK    2  A    between atoms: C_3  and  N_4
REMARK    3  A    between atoms: C_3  and  C_12
REMARK    4  A    between atoms: N_4  and  C_5
REMARK    5  A    between atoms: C_5  and  C_6
REMARK    6  A    between atoms: C_15  and  C_16
REMARK    7  A    between atoms: C_16  and  N_17
REMARK    8  A    between atoms: C_18  and  C_20
REMARK                            x       y       z     vdW  Elec       q    Type
REMARK                         _______ _______ _______ _____ _____    ______ ____
ROOT
ATOM      1  C   UNL     1      45.015   4.874  11.899  0.00  0.00    +0.000 A 
ATOM      2  C   UNL     1      45.415   6.223  11.816  0.00  0.00    +0.000 A 
ATOM      3  C   UNL     1      46.452   6.724  12.617  0.00  0.00    +0.000 A 
ATOM      4  C   UNL     1      47.116   5.889  13.524  0.00  0.00    +0.000 A 
ATOM      5  C   UNL     1      46.688   4.564  13.651  0.00  0.00    +0.000 A 
ATOM      6  C   UNL     1      45.667   4.061  12.841  0.00  0.00    +0.000 A 
ENDROOT
BRANCH   1   7
ATOM      7  C   UNL     1      43.913   4.341  10.970  0.00  0.00    +0.000 C 
BRANCH   7   9
ATOM      8  N   UNL     1      42.926   2.005  11.762  0.00  0.00    +0.000 NA
ATOM      9  C   UNL     1      43.358   3.028  11.421  0.00  0.00    +0.000 C 
ENDBRANCH   7   9
BRANCH   7  10
ATOM     10  N   UNL     1      44.416   4.309   9.574  0.00  0.00    +0.000 NA
ATOM     11  H   UNL     1      43.823   4.900   8.996  0.00  0.00    +0.000 HD
BRANCH  10  12
ATOM     12  C   UNL     1      44.416   2.963   8.997  0.00  0.00    +0.000 C 
BRANCH  12  13
ATOM     13  C   UNL     1      45.624   2.720   8.119  0.00  0.00    +0.000 A 
ATOM     14  C   UNL     1      46.267   1.472   8.125  0.00  0.00    +0.000 A 
ATOM     15  C   UNL     1      47.300   1.197   7.228  0.00  0.00    +0.000 A 
ATOM     16  C   UNL     1      47.708   2.167   6.316  0.00  0.00    +0.000 A 
ATOM     17  C   UNL     1      47.097   3.420   6.315  0.00  0.00    +0.000 A 
ATOM     18  C   UNL     1      46.062   3.697   7.213  0.00  0.00    +0.000 A 
ENDBRANCH  12  13
ENDBRANCH  10  12
ENDBRANCH   7  10
ENDBRANCH   1   7
BRANCH   4  19
ATOM     19  C   UNL     1      48.249   6.391  14.379  0.00  0.00    +0.000 C 
BRANCH  19  20
ATOM     20  N   UNL     1      48.462   7.798  14.164  0.00  0.00    +0.000 N 
ATOM     21  C   UNL     1      49.674   8.391  14.400  0.00  0.00    +0.000 C 
ATOM     22  O   UNL     1      50.661   7.753  14.761  0.00  0.00    +0.000 OA
ATOM     23  H   UNL     1      47.631   8.381  14.163  0.00  0.00    +0.000 HD
BRANCH  21  24
ATOM     24  C   UNL     1      49.745   9.827  14.113  0.00  0.00    +0.000 A 
ATOM     25  C   UNL     1      50.131  10.719  15.106  0.00  0.00    +0.000 A 
ATOM     26  S   UNL     1      50.249  12.331  14.559  0.00  0.00    +0.000 S 
ATOM     27  C   UNL     1      49.731  11.902  12.997  0.00  0.00    +0.000 A 
ATOM     28  N   UNL     1      49.598  12.832  12.017  0.00  0.00    +0.000 NA
ATOM     29  C   UNL     1      49.168  12.371  10.887  0.00  0.00    +0.000 A 
ATOM     30  N   UNL     1      48.864  11.055  10.653  0.00  0.00    +0.000 N 
ATOM     31  C   UNL     1      49.009  10.075  11.603  0.00  0.00    +0.000 A 
ATOM     32  O   UNL     1      48.752   8.903  11.347  0.00  0.00    +0.000 OA
ATOM     33  C   UNL     1      49.479  10.546  12.890  0.00  0.00    +0.000 A 
ATOM     34  H   UNL     1      48.538  10.756   9.746  0.00  0.00    +0.000 HD
ENDBRANCH  21  24
ENDBRANCH  19  20
ENDBRANCH   4  19
TORSDOF 8
ENDMDL
MODEL 7
REMARK VINA RESULT:    -7.010      2.927      8.563
REMARK INTER + INTRA:         -11.492
REMARK INTER:                  -9.645
REMARK INTRA:                  -1.847
REMARK UNBOUND:                -1.202
REMARK  Name = 
REMARK  8 active torsions:
REMARK  status: ('A' for Active; 'I' for Inactive)
REMARK    1  A    between atoms: C_2  and  C_3
REMARK    2  A    between atoms: C_3  and  N_4
REMARK    3  A    between atoms: C_3  and  C_12
REMARK    4  A    between atoms: N_4  and  C_5
REMARK    5  A    between atoms: C_5  and  C_6
REMARK    6  A    between atoms: C_15  and  C_16
REMARK    7  A    between atoms: C_16  and  N_17
REMARK    8  A    between atoms: C_18  and  C_20
REMARK                            x       y       z     vdW  Elec       q    Type
REMARK                         _______ _______ _______ _____ _____    ______ ____
ROOT
ATOM      1  C   UNL     1      49.057   8.100  16.277  0.00  0.00    +0.000 A 
ATOM      2  C   UNL     1      48.456   9.199  15.634  0.00  0.00    +0.000 A 
ATOM      3  C   UNL     1      48.048   9.123  14.294  0.00  0.00    +0.000 A 
ATOM      4  C   UNL     1      48.234   7.945  13.560  0.00  0.00    +0.000 A 
ATOM      5  C   UNL     1      48.880   6.869  14.175  0.00  0.00    +0.000 A 
ATOM      6  C   UNL     1      49.270   6.938  15.515  0.00  0.00    +0.000 A 
ENDROOT
BRANCH   1   7
ATOM      7  C   UNL     1      49.444   8.195  17.762  0.00  0.00    +0.000 C 
BRANCH   7   9
ATOM      8  N   UNL     1      51.949   7.440  18.222  0.00  0.00    +0.000 NA
ATOM      9  C   UNL     1      50.852   7.765  18.024  0.00  0.00    +0.000 C 
ENDBRANCH   7   9
BRANCH   7  10
ATOM     10  N   UNL     1      48.450   7.454  18.580  0.00  0.00    +0.000 NA
ATOM     11  H   UNL     1      48.099   8.071  19.309  0.00  0.00    +0.000 HD
BRANCH  10  12
ATOM     12  C   UNL     1      49.012   6.264  19.222  0.00  0.00    +0.000 C 
BRANCH  12  13
ATOM     13  C   UNL     1      48.697   5.001  18.452  0.00  0.00    +0.000 A 
ATOM     14  C   UNL     1      47.419   4.804  17.903  0.00  0.00    +0.000 A 
ATOM     15  C   UNL     1      47.155   3.704  17.084  0.00  0.00    +0.000 A 
ATOM     16  C   UNL     1      48.164   2.785  16.807  0.00  0.00    +0.000 A 
ATOM     17  C   UNL     1      49.431   2.953  17.364  0.00  0.00    +0.000 A 
ATOM     18  C   UNL     1      49.696   4.053  18.184  0.00  0.00    +0.000 A 
ENDBRANCH  12  13
ENDBRANCH  10  12
ENDBRANCH   7  10
ENDBRANCH   1   7
BRANCH   4  19
ATOM     19  C   UNL     1      47.784   7.825  12.129  0.00  0.00    +0.000 C 
BRANCH  19  20
ATOM     20  N   UNL     1      47.049   6.604  11.929  0.00  0.00    +0.000 N 
ATOM     21  C   UNL     1      45.683   6.559  12.025  0.00  0.00    +0.000 C 
ATOM     22  O   UNL     1      45.002   7.560  12.239  0.00  0.00    +0.000 OA
ATOM     23  H   UNL     1      47.571   5.743  12.051  0.00  0.00    +0.000 HD
BRANCH  21  24
ATOM     24  C   UNL     1      45.071   5.250  11.773  0.00  0.00    +0.000 A 
ATOM     25  C   UNL     1      44.414   4.577  12.796  0.00  0.00    +0.000 A 
ATOM     26  S   UNL     1      43.685   3.120  12.289  0.00  0.00    +0.000 S 
ATOM     27  C   UNL     1      44.274   3.308  10.704  0.00  0.00    +0.000 A 
ATOM     28  N   UNL     1      44.018   2.384   9.742  0.00  0.00    +0.000 NA
ATOM     29  C   UNL     1      44.551   2.639   8.591  0.00  0.00    +0.000 A 
ATOM     30  N   UNL     1      45.316   3.743   8.320  0.00  0.00    +0.000 N 
ATOM     31  C   UNL     1      45.579   4.717   9.251  0.00  0.00    +0.000 A 
ATOM     32  O   UNL     1      46.246   5.705   8.961  0.00  0.00    +0.000 OA
ATOM     33  C   UNL     1      45.010   4.470  10.560  0.00  0.00    +0.000 A 
ATOM     34  H   UNL     1      45.700   3.889   7.397  0.00  0.00    +0.000 HD
ENDBRANCH  21  24
ENDBRANCH  19  20
ENDBRANCH   4  19
TORSDOF 8
ENDMDL
MODEL 8
REMARK VINA RESULT:    -6.946      3.432      4.933
REMARK INTER + INTRA:         -11.396
REMARK INTER:                 -10.375
REMARK INTRA:                  -1.022
REMARK UNBOUND:                -1.202
REMARK  Name = 
REMARK  8 active torsions:
REMARK  status: ('A' for Active; 'I' for Inactive)
REMARK    1  A    between atoms: C_2  and  C_3
REMARK    2  A    between atoms: C_3  and  N_4
REMARK    3  A    between atoms: C_3  and  C_12
REMARK    4  A    between atoms: N_4  and  C_5
REMARK    5  A    between atoms: C_5  and  C_6
REMARK    6  A    between atoms: C_15  and  C_16
REMARK    7  A    between atoms: C_16  and  N_17
REMARK    8  A    between atoms: C_18  and  C_20
REMARK                            x       y       z     vdW  Elec       q    Type
REMARK                         _______ _______ _______ _____ _____    ______ ____
ROOT
ATOM      1  C   UNL     1      45.585   5.633  11.653  0.00  0.00    +0.000 A 
ATOM      2  C   UNL     1      46.265   6.851  11.452  0.00  0.00    +0.000 A 
ATOM      3  C   UNL     1      47.271   7.275  12.333  0.00  0.00    +0.000 A 
ATOM      4  C   UNL     1      47.621   6.495  13.441  0.00  0.00    +0.000 A 
ATOM      5  C   UNL     1      46.914   5.313  13.677  0.00  0.00    +0.000 A 
ATOM      6  C   UNL     1      45.924   4.881  12.791  0.00  0.00    +0.000 A 
ENDROOT
BRANCH   1   7
ATOM      7  C   UNL     1      44.526   5.168  10.642  0.00  0.00    +0.000 C 
BRANCH   7   9
ATOM      8  N   UNL     1      43.230   2.983  11.420  0.00  0.00    +0.000 NA
ATOM      9  C   UNL     1      43.800   3.938  11.085  0.00  0.00    +0.000 C 
ENDBRANCH   7   9
BRANCH   7  10
ATOM     10  N   UNL     1      45.151   5.021   9.303  0.00  0.00    +0.000 NA
ATOM     11  H   UNL     1      45.013   5.882   8.778  0.00  0.00    +0.000 HD
BRANCH  10  12
ATOM     12  C   UNL     1      44.585   3.918   8.526  0.00  0.00    +0.000 C 
BRANCH  12  13
ATOM     13  C   UNL     1      45.658   3.032   7.930  0.00  0.00    +0.000 A 
ATOM     14  C   UNL     1      45.830   1.717   8.391  0.00  0.00    +0.000 A 
ATOM     15  C   UNL     1      46.728   0.852   7.763  0.00  0.00    +0.000 A 
ATOM     16  C   UNL     1      47.470   1.292   6.669  0.00  0.00    +0.000 A 
ATOM     17  C   UNL     1      47.329   2.603   6.216  0.00  0.00    +0.000 A 
ATOM     18  C   UNL     1      46.430   3.470   6.844  0.00  0.00    +0.000 A 
ENDBRANCH  12  13
ENDBRANCH  10  12
ENDBRANCH   7  10
ENDBRANCH   1   7
BRANCH   4  19
ATOM     19  C   UNL     1      48.713   6.912  14.389  0.00  0.00    +0.000 C 
BRANCH  19  20
ATOM     20  N   UNL     1      49.307   8.151  13.966  0.00  0.00    +0.000 N 
ATOM     21  C   UNL     1      49.497   9.196  14.832  0.00  0.00    +0.000 C 
ATOM     22  O   UNL     1      49.217   9.123  16.026  0.00  0.00    +0.000 OA
ATOM     23  H   UNL     1      49.269   8.349  12.971  0.00  0.00    +0.000 HD
BRANCH  21  24
ATOM     24  C   UNL     1      50.135  10.387  14.260  0.00  0.00    +0.000 A 
ATOM     25  C   UNL     1      49.517  11.626  14.359  0.00  0.00    +0.000 A 
ATOM     26  S   UNL     1      50.453  12.904  13.724  0.00  0.00    +0.000 S 
ATOM     27  C   UNL     1      51.688  11.837  13.243  0.00  0.00    +0.000 A 
ATOM     28  N   UNL     1      52.803  12.287  12.612  0.00  0.00    +0.000 NA
ATOM     29  C   UNL     1      53.646  11.364  12.277  0.00  0.00    +0.000 A 
ATOM     30  N   UNL     1      53.468  10.028  12.523  0.00  0.00    +0.000 N 
ATOM     31  C   UNL     1      52.372   9.529  13.181  0.00  0.00    +0.000 A 
ATOM     32  O   UNL     1      52.263   8.328  13.406  0.00  0.00    +0.000 OA
ATOM     33  C   UNL     1      51.394  10.525  13.568  0.00  0.00    +0.000 A 
ATOM     34  H   UNL     1      54.167   9.356  12.241  0.00  0.00    +0.000 HD
ENDBRANCH  21  24
ENDBRANCH  19  20
ENDBRANCH   4  19
TORSDOF 8
ENDMDL
MODEL 9
REMARK VINA RESULT:    -6.945      3.818      9.087
REMARK INTER + INTRA:         -11.396
REMARK INTER:                  -9.087
REMARK INTRA:                  -2.308
REMARK UNBOUND:                -1.202
REMARK  Name = 
REMARK  8 active torsions:
REMARK  status: ('A' for Active; 'I' for Inactive)
REMARK    1  A    between atoms: C_2  and  C_3
REMARK    2  A    between atoms: C_3  and  N_4
REMARK    3  A    between atoms: C_3  and  C_12
REMARK    4  A    between atoms: N_4  and  C_5
REMARK    5  A    between atoms: C_5  and  C_6
REMARK    6  A    between atoms: C_15  and  C_16
REMARK    7  A    between atoms: C_16  and  N_17
REMARK    8  A    between atoms: C_18  and  C_20
REMARK                            x       y       z     vdW  Elec       q    Type
REMARK                         _______ _______ _______ _____ _____    ______ ____
ROOT
ATOM      1  C   UNL     1      49.230   5.611  19.719  0.00  0.00    +0.000 A 
ATOM      2  C   UNL     1      49.945   4.667  18.955  0.00  0.00    +0.000 A 
ATOM      3  C   UNL     1      49.334   3.971  17.902  0.00  0.00    +0.000 A 
ATOM      4  C   UNL     1      47.989   4.198  17.586  0.00  0.00    +0.000 A 
ATOM      5  C   UNL     1      47.258   5.092  18.374  0.00  0.00    +0.000 A 
ATOM      6  C   UNL     1      47.871   5.799  19.412  0.00  0.00    +0.000 A 
ENDROOT
BRANCH   1   7
ATOM      7  C   UNL     1      49.941   6.398  20.831  0.00  0.00    +0.000 C 
BRANCH   7   9
ATOM      8  N   UNL     1      48.292   7.945  22.226  0.00  0.00    +0.000 NA
ATOM      9  C   UNL     1      49.010   7.271  21.611  0.00  0.00    +0.000 C 
ENDBRANCH   7   9
BRANCH   7  10
ATOM     10  N   UNL     1      51.087   7.144  20.253  0.00  0.00    +0.000 NA
ATOM     11  H   UNL     1      51.709   7.428  21.007  0.00  0.00    +0.000 HD
BRANCH  10  12
ATOM     12  C   UNL     1      50.678   8.345  19.523  0.00  0.00    +0.000 C 
BRANCH  12  13
ATOM     13  C   UNL     1      50.392   8.054  18.066  0.00  0.00    +0.000 A 
ATOM     14  C   UNL     1      51.346   7.396  17.273  0.00  0.00    +0.000 A 
ATOM     15  C   UNL     1      51.044   7.010  15.966  0.00  0.00    +0.000 A 
ATOM     16  C   UNL     1      49.786   7.280  15.433  0.00  0.00    +0.000 A 
ATOM     17  C   UNL     1      48.837   7.955  16.199  0.00  0.00    +0.000 A 
ATOM     18  C   UNL     1      49.138   8.342  17.508  0.00  0.00    +0.000 A 
ENDBRANCH  12  13
ENDBRANCH  10  12
ENDBRANCH   7  10
ENDBRANCH   1   7
BRANCH   4  19
ATOM     19  C   UNL     1      47.312   3.485  16.446  0.00  0.00    +0.000 C 
BRANCH  19  20
ATOM     20  N   UNL     1      46.689   4.429  15.556  0.00  0.00    +0.000 N 
ATOM     21  C   UNL     1      46.849   4.356  14.198  0.00  0.00    +0.000 C 
ATOM     22  O   UNL     1      47.491   3.460  13.655  0.00  0.00    +0.000 OA
ATOM     23  H   UNL     1      46.419   5.317  15.965  0.00  0.00    +0.000 HD
BRANCH  21  24
ATOM     24  C   UNL     1      46.134   5.373  13.419  0.00  0.00    +0.000 A 
ATOM     25  C   UNL     1      46.717   6.612  13.185  0.00  0.00    +0.000 A 
ATOM     26  S   UNL     1      45.779   7.623  12.181  0.00  0.00    +0.000 S 
ATOM     27  C   UNL     1      44.537   6.466  12.075  0.00  0.00    +0.000 A 
ATOM     28  N   UNL     1      43.408   6.705  11.360  0.00  0.00    +0.000 NA
ATOM     29  C   UNL     1      42.536   5.751  11.388  0.00  0.00    +0.000 A 
ATOM     30  N   UNL     1      42.699   4.573  12.071  0.00  0.00    +0.000 N 
ATOM     31  C   UNL     1      43.833   4.275  12.784  0.00  0.00    +0.000 A 
ATOM     32  O   UNL     1      43.953   3.198  13.359  0.00  0.00    +0.000 OA
ATOM     33  C   UNL     1      44.837   5.320  12.789  0.00  0.00    +0.000 A 
ATOM     34  H   UNL     1      41.982   3.863  12.049  0.00  0.00    +0.000 HD
ENDBRANCH  21  24
ENDBRANCH  19  20
ENDBRANCH   4  19
TORSDOF 8
ENDMDL
