MODEL 1
REMARK VINA RESULT:    -8.709      0.000      0.000
REMARK INTER + INTRA:         -12.221
REMARK INTER:                 -11.255
REMARK INTRA:                  -0.966
REMARK UNBOUND:                -0.966
REMARK  Name = 
REMARK  5 active torsions:
REMARK  status: ('A' for Active; 'I' for Inactive)
REMARK    1  A    between atoms: C_2  and  C_4
REMARK    2  A    between atoms: C_7  and  O_8
REMARK    3  A    between atoms: O_8  and  C_9
REMARK    4  A    between atoms: C_9  and  C_10
REMARK    5  A    between atoms: C_15  and  C_16
REMARK                            x       y       z     vdW  Elec       q    Type
REMARK                         _______ _______ _______ _____ _____    ______ ____
ROOT
ATOM      1  C   UNL     1      43.577   4.419  11.363  0.00  0.00    +0.000 C 
ENDROOT
BRANCH   1   2
ATOM      2  C   UNL     1      44.860   4.816  12.057  0.00  0.00    +0.000 A 
ATOM      3  C   UNL     1      45.477   3.915  12.932  0.00  0.00    +0.000 A 
ATOM      4  C   UNL     1      46.682   4.252  13.533  0.00  0.00    +0.000 A 
ATOM      5  F   UNL     1      47.259   3.383  14.374  0.00  0.00    +0.000 F 
ATOM      6  C   UNL     1      47.300   5.471  13.278  0.00  0.00    +0.000 A 
ATOM      7  C   UNL     1      46.716   6.408  12.410  0.00  0.00    +0.000 A 
ATOM      8  C   UNL     1      45.494   6.047  11.801  0.00  0.00    +0.000 A 
BRANCH   7   9
ATOM      9  C   UNL     1      47.340   7.730  12.163  0.00  0.00    +0.000 A 
ATOM     10  C   UNL     1      48.685   7.852  11.768  0.00  0.00    +0.000 A 
ATOM     11  C   UNL     1      49.257   9.098  11.488  0.00  0.00    +0.000 A 
ATOM     12  C   UNL     1      48.499  10.257  11.614  0.00  0.00    +0.000 A 
ATOM     13  C   UNL     1      47.173  10.171  12.022  0.00  0.00    +0.000 A 
ATOM     14  C   UNL     1      46.601   8.922  12.289  0.00  0.00    +0.000 A 
ENDBRANCH   7   9
ENDBRANCH   1   2
BRANCH   1  15
ATOM     15  O   UNL     1      43.668   4.628   9.950  0.00  0.00    +0.000 OA
BRANCH  15  19
ATOM     16  C   UNL     1      46.415   2.506   7.754  0.00  0.00    +0.000 A 
ATOM     17  C   UNL     1      45.606   1.771   8.609  0.00  0.00    +0.000 A 
ATOM     18  C   UNL     1      44.663   2.449   9.381  0.00  0.00    +0.000 A 
ATOM     19  C   UNL     1      44.547   3.833   9.272  0.00  0.00    +0.000 A 
ATOM     20  C   UNL     1      45.407   4.480   8.385  0.00  0.00    +0.000 A 
ATOM     21  N   UNL     1      46.344   3.860   7.623  0.00  0.00    +0.000 NA
BRANCH  16  23
ATOM     22  N   UNL     1      48.448   2.576   6.434  0.00  0.00    +0.000 N 
ATOM     23  C   UNL     1      47.435   1.797   6.919  0.00  0.00    +0.000 C 
ATOM     24  O   UNL     1      47.377   0.595   6.685  0.00  0.00    +0.000 OA
ATOM     25  H   UNL     1      49.173   2.158   5.869  0.00  0.00    +0.000 HD
ATOM     26  H   UNL     1      48.471   3.566   6.658  0.00  0.00    +0.000 HD
ENDBRANCH  16  23
ENDBRANCH  15  19
ENDBRANCH   1  15
TORSDOF 5
ENDMDL
MODEL 2
REMARK VINA RESULT:    -7.848      3.183      6.671
REMARK INTER + INTRA:         -11.109
REMARK INTER:                 -10.230
REMARK INTRA:                  -0.879
REMARK UNBOUND:                -0.966
REMARK  Name = 
REMARK  5 active torsions:
REMARK  status: ('A' for Active; 'I' for Inactive)
REMARK    1  A    between atoms: C_2  and  C_4
REMARK    2  A    between atoms: C_7  and  O_8
REMARK    3  A    between atoms: O_8  and  C_9
REMARK    4  A    between atoms: C_9  and  C_10
REMARK    5  A    between atoms: C_15  and  C_16
REMARK                            x       y       z     vdW  Elec       q    Type
REMARK                         _______ _______ _______ _____ _____    ______ ____
ROOT
ATOM      1  C   UNL     1      44.378   6.522  11.451  0.00  0.00    +0.000 C 
ENDROOT
BRANCH   1   2
ATOM      2  C   UNL     1      44.385   5.078  11.003  0.00  0.00    +0.000 A 
ATOM      3  C   UNL     1      43.620   4.138  11.701  0.00  0.00    +0.000 A 
ATOM      4  C   UNL     1      43.580   2.821  11.265  0.00  0.00    +0.000 A 
ATOM      5  F   UNL     1      42.849   1.928  11.946  0.00  0.00    +0.000 F 
ATOM      6  C   UNL     1      44.282   2.412  10.137  0.00  0.00    +0.000 A 
ATOM      7  C   UNL     1      45.066   3.320   9.407  0.00  0.00    +0.000 A 
ATOM      8  C   UNL     1      45.090   4.658   9.859  0.00  0.00    +0.000 A 
BRANCH   7   9
ATOM      9  C   UNL     1      45.855   2.890   8.228  0.00  0.00    +0.000 A 
ATOM     10  C   UNL     1      46.229   3.795   7.217  0.00  0.00    +0.000 A 
ATOM     11  C   UNL     1      47.015   3.396   6.131  0.00  0.00    +0.000 A 
ATOM     12  C   UNL     1      47.433   2.074   6.019  0.00  0.00    +0.000 A 
ATOM     13  C   UNL     1      47.062   1.152   6.992  0.00  0.00    +0.000 A 
ATOM     14  C   UNL     1      46.287   1.558   8.084  0.00  0.00    +0.000 A 
ENDBRANCH   7   9
ENDBRANCH   1   2
BRANCH   1  15
ATOM     15  O   UNL     1      45.106   6.689  12.672  0.00  0.00    +0.000 OA
BRANCH  15  19
ATOM     16  C   UNL     1      49.092   7.656  12.444  0.00  0.00    +0.000 A 
ATOM     17  C   UNL     1      48.193   8.646  12.072  0.00  0.00    +0.000 A 
ATOM     18  C   UNL     1      46.828   8.362  12.125  0.00  0.00    +0.000 A 
ATOM     19  C   UNL     1      46.401   7.107  12.556  0.00  0.00    +0.000 A 
ATOM     20  C   UNL     1      47.382   6.181  12.908  0.00  0.00    +0.000 A 
ATOM     21  N   UNL     1      48.719   6.415  12.861  0.00  0.00    +0.000 NA
BRANCH  16  23
ATOM     22  N   UNL     1      51.240   7.354  11.361  0.00  0.00    +0.000 N 
ATOM     23  C   UNL     1      50.560   7.941  12.391  0.00  0.00    +0.000 C 
ATOM     24  O   UNL     1      51.123   8.659  13.210  0.00  0.00    +0.000 OA
ATOM     25  H   UNL     1      52.233   7.512  11.265  0.00  0.00    +0.000 HD
ATOM     26  H   UNL     1      50.740   6.776  10.694  0.00  0.00    +0.000 HD
ENDBRANCH  16  23
ENDBRANCH  15  19
ENDBRANCH   1  15
TORSDOF 5
ENDMDL
MODEL 3
REMARK VINA RESULT:    -7.837      4.039      7.314
REMARK INTER + INTRA:         -11.094
REMARK INTER:                 -10.503
REMARK INTRA:                  -0.592
REMARK UNBOUND:                -0.966
REMARK  Name = 
REMARK  5 active torsions:
REMARK  status: ('A' for Active; 'I' for Inactive)
REMARK    1  A    between atoms: C_2  and  C_4
REMARK    2  A    between atoms: C_7  and  O_8
REMARK    3  A    between atoms: O_8  and  C_9
REMARK    4  A    between atoms: C_9  and  C_10
REMARK    5  A    between atoms: C_15  and  C_16
REMARK                            x       y       z     vdW  Elec       q    Type
REMARK                         _______ _______ _______ _____ _____    ______ ____
ROOT
ATOM      1  C   UNL     1      46.231   7.208  12.576  0.00  0.00    +0.000 C 
ENDROOT
BRANCH   1   2
ATOM      2  C   UNL     1      45.327   6.278  11.800  0.00  0.00    +0.000 A 
ATOM      3  C   UNL     1      43.952   6.280  12.061  0.00  0.00    +0.000 A 
ATOM      4  C   UNL     1      43.108   5.467  11.317  0.00  0.00    +0.000 A 
ATOM      5  F   UNL     1      41.794   5.472  11.580  0.00  0.00    +0.000 F 
ATOM      6  C   UNL     1      43.599   4.649  10.305  0.00  0.00    +0.000 A 
ATOM      7  C   UNL     1      44.972   4.612  10.010  0.00  0.00    +0.000 A 
ATOM      8  C   UNL     1      45.816   5.451  10.771  0.00  0.00    +0.000 A 
BRANCH   7   9
ATOM      9  C   UNL     1      45.517   3.714   8.965  0.00  0.00    +0.000 A 
ATOM     10  C   UNL     1      46.107   4.216   7.790  0.00  0.00    +0.000 A 
ATOM     11  C   UNL     1      46.664   3.366   6.829  0.00  0.00    +0.000 A 
ATOM     12  C   UNL     1      46.628   1.988   7.010  0.00  0.00    +0.000 A 
ATOM     13  C   UNL     1      46.033   1.460   8.151  0.00  0.00    +0.000 A 
ATOM     14  C   UNL     1      45.489   2.314   9.117  0.00  0.00    +0.000 A 
ENDBRANCH   7   9
ENDBRANCH   1   2
BRANCH   1  15
ATOM     15  O   UNL     1      47.500   6.598  12.837  0.00  0.00    +0.000 OA
BRANCH  15  19
ATOM     16  C   UNL     1      47.721   4.551  16.392  0.00  0.00    +0.000 A 
ATOM     17  C   UNL     1      48.467   5.719  16.302  0.00  0.00    +0.000 A 
ATOM     18  C   UNL     1      48.429   6.444  15.112  0.00  0.00    +0.000 A 
ATOM     19  C   UNL     1      47.645   5.992  14.052  0.00  0.00    +0.000 A 
ATOM     20  C   UNL     1      46.934   4.808  14.241  0.00  0.00    +0.000 A 
ATOM     21  N   UNL     1      46.951   4.068  15.379  0.00  0.00    +0.000 NA
BRANCH  16  23
ATOM     22  N   UNL     1      46.866   2.717  17.728  0.00  0.00    +0.000 N 
ATOM     23  C   UNL     1      47.750   3.758  17.660  0.00  0.00    +0.000 C 
ATOM     24  O   UNL     1      48.518   4.013  18.581  0.00  0.00    +0.000 OA
ATOM     25  H   UNL     1      46.840   2.138  18.554  0.00  0.00    +0.000 HD
ATOM     26  H   UNL     1      46.254   2.528  16.941  0.00  0.00    +0.000 HD
ENDBRANCH  16  23
ENDBRANCH  15  19
ENDBRANCH   1  15
TORSDOF 5
ENDMDL
MODEL 4
REMARK VINA RESULT:    -7.160      4.879      7.895
REMARK INTER + INTRA:         -10.218
REMARK INTER:                  -9.615
REMARK INTRA:                  -0.603
REMARK UNBOUND:                -0.966
REMARK  Name = 
REMARK  5 active torsions:
REMARK  status: ('A' for Active; 'I' for Inactive)
REMARK    1  A    between atoms: C_2  and  C_4
REMARK    2  A    between atoms: C_7  and  O_8
REMARK    3  A    between atoms: O_8  and  C_9
REMARK    4  A    between atoms: C_9  and  C_10
REMARK    5  A    between atoms: C_15  and  C_16
REMARK                            x       y       z     vdW  Elec       q    Type
REMARK                         _______ _______ _______ _____ _____    ______ ____
ROOT
ATOM      1  C   UNL     1      46.100   5.142  14.013  0.00  0.00    +0.000 C 
ENDROOT
BRANCH   1   2
ATOM      2  C   UNL     1      45.207   4.905  12.816  0.00  0.00    +0.000 A 
ATOM      3  C   UNL     1      43.868   5.307  12.867  0.00  0.00    +0.000 A 
ATOM      4  C   UNL     1      43.055   5.141  11.754  0.00  0.00    +0.000 A 
ATOM      5  F   UNL     1      41.773   5.523  11.817  0.00  0.00    +0.000 F 
ATOM      6  C   UNL     1      43.547   4.587  10.577  0.00  0.00    +0.000 A 
ATOM      7  C   UNL     1      44.883   4.166  10.481  0.00  0.00    +0.000 A 
ATOM      8  C   UNL     1      45.699   4.349  11.620  0.00  0.00    +0.000 A 
BRANCH   7   9
ATOM      9  C   UNL     1      45.411   3.533   9.249  0.00  0.00    +0.000 A 
ATOM     10  C   UNL     1      45.846   4.298   8.151  0.00  0.00    +0.000 A 
ATOM     11  C   UNL     1      46.389   3.699   7.010  0.00  0.00    +0.000 A 
ATOM     12  C   UNL     1      46.493   2.314   6.930  0.00  0.00    +0.000 A 
ATOM     13  C   UNL     1      46.052   1.530   7.991  0.00  0.00    +0.000 A 
ATOM     14  C   UNL     1      45.522   2.134   9.136  0.00  0.00    +0.000 A 
ENDBRANCH   7   9
ENDBRANCH   1   2
BRANCH   1  15
ATOM     15  O   UNL     1      46.559   3.906  14.569  0.00  0.00    +0.000 OA
BRANCH  15  19
ATOM     16  C   UNL     1      49.138   4.478  17.715  0.00  0.00    +0.000 A 
ATOM     17  C   UNL     1      48.541   3.228  17.623  0.00  0.00    +0.000 A 
ATOM     18  C   UNL     1      47.652   2.989  16.576  0.00  0.00    +0.000 A 
ATOM     19  C   UNL     1      47.391   3.995  15.648  0.00  0.00    +0.000 A 
ATOM     20  C   UNL     1      48.041   5.216  15.827  0.00  0.00    +0.000 A 
ATOM     21  N   UNL     1      48.905   5.493  16.836  0.00  0.00    +0.000 NA
BRANCH  16  23
ATOM     22  N   UNL     1      51.187   3.936  18.893  0.00  0.00    +0.000 N 
ATOM     23  C   UNL     1      50.093   4.755  18.832  0.00  0.00    +0.000 C 
ATOM     24  O   UNL     1      49.919   5.659  19.641  0.00  0.00    +0.000 OA
ATOM     25  H   UNL     1      51.873   4.074  19.620  0.00  0.00    +0.000 HD
ATOM     26  H   UNL     1      51.305   3.205  18.199  0.00  0.00    +0.000 HD
ENDBRANCH  16  23
ENDBRANCH  15  19
ENDBRANCH   1  15
TORSDOF 5
ENDMDL
MODEL 5
REMARK VINA RESULT:    -7.146      2.253      3.902
REMARK INTER + INTRA:         -10.201
REMARK INTER:                  -9.561
REMARK INTRA:                  -0.640
REMARK UNBOUND:                -0.966
REMARK  Name = 
REMARK  5 active torsions:
REMARK  status: ('A' for Active; 'I' for Inactive)
REMARK    1  A    between atoms: C_2  and  C_4
REMARK    2  A    between atoms: C_7  and  O_8
REMARK    3  A    between atoms: O_8  and  C_9
REMARK    4  A    between atoms: C_9  and  C_10
REMARK    5  A    between atoms: C_15  and  C_16
REMARK                            x       y       z     vdW  Elec       q    Type
REMARK                         _______ _______ _______ _____ _____    ______ ____
ROOT
ATOM      1  C   UNL     1      44.677   6.035  11.323  0.00  0.00    +0.000 C 
ENDROOT
BRANCH   1   2
ATOM      2  C   UNL     1      46.005   6.200  12.026  0.00  0.00    +0.000 A 
ATOM      3  C   UNL     1      46.993   7.005  11.448  0.00  0.00    +0.000 A 
ATOM      4  C   UNL     1      48.196   7.203  12.112  0.00  0.00    +0.000 A 
ATOM      5  F   UNL     1      49.137   7.971  11.545  0.00  0.00    +0.000 F 
ATOM      6  C   UNL     1      48.442   6.622  13.350  0.00  0.00    +0.000 A 
ATOM      7  C   UNL     1      47.482   5.803  13.966  0.00  0.00    +0.000 A 
ATOM      8  C   UNL     1      46.260   5.618  13.282  0.00  0.00    +0.000 A 
BRANCH   7   9
ATOM      9  C   UNL     1      47.745   5.140  15.266  0.00  0.00    +0.000 A 
ATOM     10  C   UNL     1      48.448   5.788  16.299  0.00  0.00    +0.000 A 
ATOM     11  C   UNL     1      48.652   5.178  17.541  0.00  0.00    +0.000 A 
ATOM     12  C   UNL     1      48.173   3.893  17.775  0.00  0.00    +0.000 A 
ATOM     13  C   UNL     1      47.492   3.219  16.766  0.00  0.00    +0.000 A 
ATOM     14  C   UNL     1      47.279   3.838  15.530  0.00  0.00    +0.000 A 
ENDBRANCH   7   9
ENDBRANCH   1   2
BRANCH   1  15
ATOM     15  O   UNL     1      44.337   4.653  11.175  0.00  0.00    +0.000 OA
BRANCH  15  19
ATOM     16  C   UNL     1      46.103   2.969   7.871  0.00  0.00    +0.000 A 
ATOM     17  C   UNL     1      45.606   2.090   8.822  0.00  0.00    +0.000 A 
ATOM     18  C   UNL     1      45.004   2.615   9.966  0.00  0.00    +0.000 A 
ATOM     19  C   UNL     1      44.907   3.996  10.122  0.00  0.00    +0.000 A 
ATOM     20  C   UNL     1      45.438   4.795   9.110  0.00  0.00    +0.000 A 
ATOM     21  N   UNL     1      46.039   4.324   7.988  0.00  0.00    +0.000 NA
BRANCH  16  23
ATOM     22  N   UNL     1      46.942   3.321   5.623  0.00  0.00    +0.000 N 
ATOM     23  C   UNL     1      46.755   2.425   6.639  0.00  0.00    +0.000 C 
ATOM     24  O   UNL     1      47.106   1.255   6.539  0.00  0.00    +0.000 OA
ATOM     25  H   UNL     1      47.383   3.020   4.767  0.00  0.00    +0.000 HD
ATOM     26  H   UNL     1      46.650   4.285   5.745  0.00  0.00    +0.000 HD
ENDBRANCH  16  23
ENDBRANCH  15  19
ENDBRANCH   1  15
TORSDOF 5
ENDMDL
MODEL 6
REMARK VINA RESULT:    -7.142      3.599      7.019
REMARK INTER + INTRA:         -10.196
REMARK INTER:                  -9.445
REMARK INTRA:                  -0.751
REMARK UNBOUND:                -0.966
REMARK  Name = 
REMARK  5 active torsions:
REMARK  status: ('A' for Active; 'I' for Inactive)
REMARK    1  A    between atoms: C_2  and  C_4
REMARK    2  A    between atoms: C_7  and  O_8
REMARK    3  A    between atoms: O_8  and  C_9
REMARK    4  A    between atoms: C_9  and  C_10
REMARK    5  A    between atoms: C_15  and  C_16
REMARK                            x       y       z     vdW  Elec       q    Type
REMARK                         _______ _______ _______ _____ _____    ______ ____
ROOT
ATOM      1  C   UNL     1      43.281   6.344  11.212  0.00  0.00    +0.000 C 
ENDROOT
BRANCH   1   2
ATOM      2  C   UNL     1      43.668   4.907  10.947  0.00  0.00    +0.000 A 
ATOM      3  C   UNL     1      43.189   3.899  11.790  0.00  0.00    +0.000 A 
ATOM      4  C   UNL     1      43.497   2.572  11.524  0.00  0.00    +0.000 A 
ATOM      5  F   UNL     1      43.038   1.616  12.343  0.00  0.00    +0.000 F 
ATOM      6  C   UNL     1      44.270   2.217  10.424  0.00  0.00    +0.000 A 
ATOM      7  C   UNL     1      44.776   3.195   9.552  0.00  0.00    +0.000 A 
ATOM      8  C   UNL     1      44.447   4.540   9.833  0.00  0.00    +0.000 A 
BRANCH   7   9
ATOM      9  C   UNL     1      45.638   2.837   8.401  0.00  0.00    +0.000 A 
ATOM     10  C   UNL     1      45.897   3.746   7.358  0.00  0.00    +0.000 A 
ATOM     11  C   UNL     1      46.750   3.421   6.298  0.00  0.00    +0.000 A 
ATOM     12  C   UNL     1      47.353   2.169   6.246  0.00  0.00    +0.000 A 
ATOM     13  C   UNL     1      47.101   1.242   7.251  0.00  0.00    +0.000 A 
ATOM     14  C   UNL     1      46.257   1.575   8.316  0.00  0.00    +0.000 A 
ENDBRANCH   7   9
ENDBRANCH   1   2
BRANCH   1  15
ATOM     15  O   UNL     1      44.298   7.245  10.763  0.00  0.00    +0.000 OA
BRANCH  15  19
ATOM     16  C   UNL     1      47.098   8.610  13.441  0.00  0.00    +0.000 A 
ATOM     17  C   UNL     1      46.976   7.232  13.321  0.00  0.00    +0.000 A 
ATOM     18  C   UNL     1      46.033   6.721  12.430  0.00  0.00    +0.000 A 
ATOM     19  C   UNL     1      45.249   7.595  11.680  0.00  0.00    +0.000 A 
ATOM     20  C   UNL     1      45.447   8.962  11.872  0.00  0.00    +0.000 A 
ATOM     21  N   UNL     1      46.346   9.499  12.736  0.00  0.00    +0.000 NA
BRANCH  16  23
ATOM     22  N   UNL     1      47.764   9.117  15.717  0.00  0.00    +0.000 N 
ATOM     23  C   UNL     1      48.103   9.177  14.394  0.00  0.00    +0.000 C 
ATOM     24  O   UNL     1      49.166   9.660  14.022  0.00  0.00    +0.000 OA
ATOM     25  H   UNL     1      48.402   9.476  16.412  0.00  0.00    +0.000 HD
ATOM     26  H   UNL     1      46.881   8.698  15.990  0.00  0.00    +0.000 HD
ENDBRANCH  16  23
ENDBRANCH  15  19
ENDBRANCH   1  15
TORSDOF 5
ENDMDL
MODEL 7
REMARK VINA RESULT:    -6.785      3.814      7.182
REMARK INTER + INTRA:          -9.734
REMARK INTER:                  -8.912
REMARK INTRA:                  -0.823
REMARK UNBOUND:                -0.966
REMARK  Name = 
REMARK  5 active torsions:
REMARK  status: ('A' for Active; 'I' for Inactive)
REMARK    1  A    between atoms: C_2  and  C_4
REMARK    2  A    between atoms: C_7  and  O_8
REMARK    3  A    between atoms: O_8  and  C_9
REMARK    4  A    between atoms: C_9  and  C_10
REMARK    5  A    between atoms: C_15  and  C_16
REMARK                            x       y       z     vdW  Elec       q    Type
REMARK                         _______ _______ _______ _____ _____    ______ ____
ROOT
ATOM      1  C   UNL     1      46.084   4.980  14.017  0.00  0.00    +0.000 C 
ENDROOT
BRANCH   1   2
ATOM      2  C   UNL     1      45.202   4.805  12.801  0.00  0.00    +0.000 A 
ATOM      3  C   UNL     1      43.882   5.268  12.838  0.00  0.00    +0.000 A 
ATOM      4  C   UNL     1      43.082   5.159  11.709  0.00  0.00    +0.000 A 
ATOM      5  F   UNL     1      41.818   5.599  11.758  0.00  0.00    +0.000 F 
ATOM      6  C   UNL     1      43.567   4.602  10.531  0.00  0.00    +0.000 A 
ATOM      7  C   UNL     1      44.884   4.121  10.449  0.00  0.00    +0.000 A 
ATOM      8  C   UNL     1      45.687   4.247  11.604  0.00  0.00    +0.000 A 
BRANCH   7   9
ATOM      9  C   UNL     1      45.402   3.484   9.215  0.00  0.00    +0.000 A 
ATOM     10  C   UNL     1      45.823   4.246   8.109  0.00  0.00    +0.000 A 
ATOM     11  C   UNL     1      46.357   3.644   6.965  0.00  0.00    +0.000 A 
ATOM     12  C   UNL     1      46.467   2.260   6.891  0.00  0.00    +0.000 A 
ATOM     13  C   UNL     1      46.041   1.478   7.960  0.00  0.00    +0.000 A 
ATOM     14  C   UNL     1      45.519   2.085   9.108  0.00  0.00    +0.000 A 
ENDBRANCH   7   9
ENDBRANCH   1   2
BRANCH   1  15
ATOM     15  O   UNL     1      47.449   5.190  13.640  0.00  0.00    +0.000 OA
BRANCH  15  19
ATOM     16  C   UNL     1      48.572   9.108  13.126  0.00  0.00    +0.000 A 
ATOM     17  C   UNL     1      48.249   8.401  11.976  0.00  0.00    +0.000 A 
ATOM     18  C   UNL     1      47.869   7.065  12.099  0.00  0.00    +0.000 A 
ATOM     19  C   UNL     1      47.813   6.477  13.361  0.00  0.00    +0.000 A 
ATOM     20  C   UNL     1      48.157   7.271  14.455  0.00  0.00    +0.000 A 
ATOM     21  N   UNL     1      48.540   8.571  14.377  0.00  0.00    +0.000 NA
BRANCH  16  23
ATOM     22  N   UNL     1      47.993  11.461  13.220  0.00  0.00    +0.000 N 
ATOM     23  C   UNL     1      48.984  10.542  13.014  0.00  0.00    +0.000 C 
ATOM     24  O   UNL     1      50.135  10.880  12.760  0.00  0.00    +0.000 OA
ATOM     25  H   UNL     1      48.206  12.446  13.166  0.00  0.00    +0.000 HD
ATOM     26  H   UNL     1      47.054  11.144  13.440  0.00  0.00    +0.000 HD
ENDBRANCH  16  23
ENDBRANCH  15  19
ENDBRANCH   1  15
TORSDOF 5
ENDMDL
MODEL 8
REMARK VINA RESULT:    -6.759      5.295      8.282
REMARK INTER + INTRA:          -9.701
REMARK INTER:                  -8.953
REMARK INTRA:                  -0.749
REMARK UNBOUND:                -0.966
REMARK  Name = 
REMARK  5 active torsions:
REMARK  status: ('A' for Active; 'I' for Inactive)
REMARK    1  A    between atoms: C_2  and  C_4
REMARK    2  A    between atoms: C_7  and  O_8
REMARK    3  A    between atoms: O_8  and  C_9
REMARK    4  A    between atoms: C_9  and  C_10
REMARK    5  A    between atoms: C_15  and  C_16
REMARK                            x       y       z     vdW  Elec       q    Type
REMARK                         _______ _______ _______ _____ _____    ______ ____
ROOT
ATOM      1  C   UNL     1      48.182   7.181  14.125  0.00  0.00    +0.000 C 
ENDROOT
BRANCH   1   2
ATOM      2  C   UNL     1      47.018   7.228  13.160  0.00  0.00    +0.000 A 
ATOM      3  C   UNL     1      46.251   8.394  13.066  0.00  0.00    +0.000 A 
ATOM      4  C   UNL     1      45.214   8.464  12.146  0.00  0.00    +0.000 A 
ATOM      5  F   UNL     1      44.481   9.583  12.069  0.00  0.00    +0.000 F 
ATOM      6  C   UNL     1      44.922   7.397  11.304  0.00  0.00    +0.000 A 
ATOM      7  C   UNL     1      45.664   6.206  11.365  0.00  0.00    +0.000 A 
ATOM      8  C   UNL     1      46.720   6.153  12.302  0.00  0.00    +0.000 A 
BRANCH   7   9
ATOM      9  C   UNL     1      45.337   5.043  10.505  0.00  0.00    +0.000 A 
ATOM     10  C   UNL     1      44.660   3.917  11.008  0.00  0.00    +0.000 A 
ATOM     11  C   UNL     1      44.311   2.843  10.182  0.00  0.00    +0.000 A 
ATOM     12  C   UNL     1      44.648   2.862   8.833  0.00  0.00    +0.000 A 
ATOM     13  C   UNL     1      45.336   3.952   8.311  0.00  0.00    +0.000 A 
ATOM     14  C   UNL     1      45.672   5.030   9.138  0.00  0.00    +0.000 A 
ENDBRANCH   7   9
ENDBRANCH   1   2
BRANCH   1  15
ATOM     15  O   UNL     1      48.456   5.839  14.539  0.00  0.00    +0.000 OA
BRANCH  15  19
ATOM     16  C   UNL     1      48.163   5.278  18.598  0.00  0.00    +0.000 A 
ATOM     17  C   UNL     1      47.517   4.347  17.796  0.00  0.00    +0.000 A 
ATOM     18  C   UNL     1      47.582   4.500  16.412  0.00  0.00    +0.000 A 
ATOM     19  C   UNL     1      48.294   5.567  15.868  0.00  0.00    +0.000 A 
ATOM     20  C   UNL     1      48.908   6.448  16.757  0.00  0.00    +0.000 A 
ATOM     21  N   UNL     1      48.861   6.340  18.110  0.00  0.00    +0.000 NA
BRANCH  16  23
ATOM     22  N   UNL     1      48.580   3.952  20.585  0.00  0.00    +0.000 N 
ATOM     23  C   UNL     1      48.103   5.132  20.086  0.00  0.00    +0.000 C 
ATOM     24  O   UNL     1      47.663   6.011  20.819  0.00  0.00    +0.000 OA
ATOM     25  H   UNL     1      48.575   3.793  21.582  0.00  0.00    +0.000 HD
ATOM     26  H   UNL     1      48.948   3.251  19.950  0.00  0.00    +0.000 HD
ENDBRANCH  16  23
ENDBRANCH  15  19
ENDBRANCH   1  15
TORSDOF 5
ENDMDL
MODEL 9
REMARK VINA RESULT:    -6.485      3.980      7.333
REMARK INTER + INTRA:          -9.347
REMARK INTER:                  -8.655
REMARK INTRA:                  -0.692
REMARK UNBOUND:                -0.966
REMARK  Name = 
REMARK  5 active torsions:
REMARK  status: ('A' for Active; 'I' for Inactive)
REMARK    1  A    between atoms: C_2  and  C_4
REMARK    2  A    between atoms: C_7  and  O_8
REMARK    3  A    between atoms: O_8  and  C_9
REMARK    4  A    between atoms: C_9  and  C_10
REMARK    5  A    between atoms: C_15  and  C_16
REMARK                            x       y       z     vdW  Elec       q    Type
REMARK                         _______ _______ _______ _____ _____    ______ ____
ROOT
ATOM      1  C   UNL     1      45.906   7.782  11.466  0.00  0.00    +0.000 C 
ENDROOT
BRANCH   1   2
ATOM      2  C   UNL     1      45.197   6.524  11.017  0.00  0.00    +0.000 A 
ATOM      3  C   UNL     1      43.911   6.252  11.495  0.00  0.00    +0.000 A 
ATOM      4  C   UNL     1      43.233   5.127  11.048  0.00  0.00    +0.000 A 
ATOM      5  F   UNL     1      42.004   4.873  11.518  0.00  0.00    +0.000 F 
ATOM      6  C   UNL     1      43.804   4.260  10.123  0.00  0.00    +0.000 A 
ATOM      7  C   UNL     1      45.094   4.491   9.618  0.00  0.00    +0.000 A 
ATOM      8  C   UNL     1      45.767   5.645  10.078  0.00  0.00    +0.000 A 
BRANCH   7   9
ATOM      9  C   UNL     1      45.734   3.553   8.665  0.00  0.00    +0.000 A 
ATOM     10  C   UNL     1      45.695   2.160   8.858  0.00  0.00    +0.000 A 
ATOM     11  C   UNL     1      46.258   1.276   7.931  0.00  0.00    +0.000 A 
ATOM     12  C   UNL     1      46.891   1.767   6.794  0.00  0.00    +0.000 A 
ATOM     13  C   UNL     1      46.963   3.140   6.585  0.00  0.00    +0.000 A 
ATOM     14  C   UNL     1      46.387   4.020   7.508  0.00  0.00    +0.000 A 
ENDBRANCH   7   9
ENDBRANCH   1   2
BRANCH   1  15
ATOM     15  O   UNL     1      46.097   7.790  12.884  0.00  0.00    +0.000 OA
BRANCH  15  19
ATOM     16  C   UNL     1      50.056   8.145  13.922  0.00  0.00    +0.000 A 
ATOM     17  C   UNL     1      49.128   8.523  14.883  0.00  0.00    +0.000 A 
ATOM     18  C   UNL     1      47.772   8.427  14.574  0.00  0.00    +0.000 A 
ATOM     19  C   UNL     1      47.381   7.950  13.325  0.00  0.00    +0.000 A 
ATOM     20  C   UNL     1      48.389   7.597  12.428  0.00  0.00    +0.000 A 
ATOM     21  N   UNL     1      49.719   7.684  12.686  0.00  0.00    +0.000 NA
BRANCH  16  23
ATOM     22  N   UNL     1      51.983   7.359  15.166  0.00  0.00    +0.000 N 
ATOM     23  C   UNL     1      51.516   8.243  14.234  0.00  0.00    +0.000 C 
ATOM     24  O   UNL     1      52.255   9.055  13.689  0.00  0.00    +0.000 OA
ATOM     25  H   UNL     1      52.960   7.368  15.417  0.00  0.00    +0.000 HD
ATOM     26  H   UNL     1      51.345   6.692  15.588  0.00  0.00    +0.000 HD
ENDBRANCH  16  23
ENDBRANCH  15  19
ENDBRANCH   1  15
TORSDOF 5
ENDMDL
