MODEL 1
REMARK VINA RESULT:    -8.140      0.000      0.000
REMARK INTER + INTRA:         -12.800
REMARK INTER:                 -11.947
REMARK INTRA:                  -0.852
REMARK UNBOUND:                -0.852
REMARK  Name = 
REMARK  8 active torsions:
REMARK  status: ('A' for Active; 'I' for Inactive)
REMARK    1  A    between atoms: C_2  and  C_3
REMARK    2  A    between atoms: C_3  and  N_4
REMARK    3  A    between atoms: C_3  and  C_27
REMARK    4  A    between atoms: C_5  and  C_7
REMARK    5  A    between atoms: C_10  and  C_11
REMARK    6  A    between atoms: C_11  and  N_12
REMARK    7  A    between atoms: C_13  and  C_15
REMARK    8  A    between atoms: C_27  and  C_29
REMARK                            x       y       z     vdW  Elec       q    Type
REMARK                         _______ _______ _______ _____ _____    ______ ____
ROOT
ATOM      1  C   UNL     1      47.023   6.837  12.241  0.00  0.00    +0.000 A 
ATOM      2  C   UNL     1      48.049   7.659  11.761  0.00  0.00    +0.000 A 
ATOM      3  C   UNL     1      49.199   7.877  12.525  0.00  0.00    +0.000 A 
ATOM      4  C   UNL     1      49.343   7.278  13.783  0.00  0.00    +0.000 A 
ATOM      5  C   UNL     1      48.293   6.491  14.282  0.00  0.00    +0.000 A 
ATOM      6  C   UNL     1      47.139   6.270  13.517  0.00  0.00    +0.000 A 
ENDROOT
BRANCH   1   8
ATOM      7  N   UNL     1      45.536   5.301  11.081  0.00  0.00    +0.000 N 
ATOM      8  C   UNL     1      45.796   6.610  11.424  0.00  0.00    +0.000 C 
ATOM      9  O   UNL     1      45.071   7.542  11.096  0.00  0.00    +0.000 OA
ATOM     10  H   UNL     1      45.992   4.546  11.582  0.00  0.00    +0.000 HD
BRANCH   7  11
ATOM     11  C   UNL     1      44.357   4.937  10.297  0.00  0.00    +0.000 C 
BRANCH  11  13
ATOM     12  N   UNL     1      42.057   5.401  11.790  0.00  0.00    +0.000 NA
ATOM     13  C   UNL     1      43.100   5.190  11.113  0.00  0.00    +0.000 C 
ENDBRANCH  11  13
BRANCH  11  14
ATOM     14  C   UNL     1      44.415   3.470   9.894  0.00  0.00    +0.000 C 
ATOM     15  O   UNL     1      43.729   2.621  10.468  0.00  0.00    +0.000 OA
BRANCH  14  16
ATOM     16  C   UNL     1      45.324   3.052   8.772  0.00  0.00    +0.000 A 
ATOM     17  C   UNL     1      45.801   3.938   7.796  0.00  0.00    +0.000 A 
ATOM     18  C   UNL     1      46.666   3.486   6.793  0.00  0.00    +0.000 A 
ATOM     19  C   UNL     1      47.056   2.149   6.750  0.00  0.00    +0.000 A 
ATOM     20  C   UNL     1      46.581   1.259   7.709  0.00  0.00    +0.000 A 
ATOM     21  C   UNL     1      45.718   1.706   8.716  0.00  0.00    +0.000 A 
ENDBRANCH  14  16
ENDBRANCH  11  14
ENDBRANCH   7  11
ENDBRANCH   1   8
BRANCH   4  22
ATOM     22  C   UNL     1      50.587   7.522  14.601  0.00  0.00    +0.000 C 
BRANCH  22  23
ATOM     23  N   UNL     1      50.286   7.556  16.010  0.00  0.00    +0.000 N 
ATOM     24  C   UNL     1      50.833   6.647  16.880  0.00  0.00    +0.000 C 
ATOM     25  O   UNL     1      51.639   5.797  16.513  0.00  0.00    +0.000 OA
ATOM     26  H   UNL     1      49.462   8.079  16.290  0.00  0.00    +0.000 HD
BRANCH  24  27
ATOM     27  C   UNL     1      50.452   6.783  18.293  0.00  0.00    +0.000 A 
ATOM     28  C   UNL     1      50.782   7.937  18.989  0.00  0.00    +0.000 A 
ATOM     29  S   UNL     1      50.218   7.952  20.599  0.00  0.00    +0.000 S 
ATOM     30  C   UNL     1      49.558   6.391  20.440  0.00  0.00    +0.000 A 
ATOM     31  N   UNL     1      48.938   5.783  21.485  0.00  0.00    +0.000 NA
ATOM     32  C   UNL     1      48.514   4.591  21.232  0.00  0.00    +0.000 A 
ATOM     33  N   UNL     1      48.644   3.955  20.025  0.00  0.00    +0.000 N 
ATOM     34  C   UNL     1      49.229   4.542  18.933  0.00  0.00    +0.000 A 
ATOM     35  O   UNL     1      49.282   3.967  17.847  0.00  0.00    +0.000 OA
ATOM     36  C   UNL     1      49.747   5.878  19.167  0.00  0.00    +0.000 A 
ATOM     37  H   UNL     1      48.279   3.024  19.889  0.00  0.00    +0.000 HD
ENDBRANCH  24  27
ENDBRANCH  22  23
ENDBRANCH   4  22
TORSDOF 8
ENDMDL
MODEL 2
REMARK VINA RESULT:    -7.766      2.401      2.990
REMARK INTER + INTRA:         -12.250
REMARK INTER:                 -11.868
REMARK INTRA:                  -0.382
REMARK UNBOUND:                -0.852
REMARK  Name = 
REMARK  8 active torsions:
REMARK  status: ('A' for Active; 'I' for Inactive)
REMARK    1  A    between atoms: C_2  and  C_3
REMARK    2  A    between atoms: C_3  and  N_4
REMARK    3  A    between atoms: C_3  and  C_27
REMARK    4  A    between atoms: C_5  and  C_7
REMARK    5  A    between atoms: C_10  and  C_11
REMARK    6  A    between atoms: C_11  and  N_12
REMARK    7  A    between atoms: C_13  and  C_15
REMARK    8  A    between atoms: C_27  and  C_29
REMARK                            x       y       z     vdW  Elec       q    Type
REMARK                         _______ _______ _______ _____ _____    ______ ____
ROOT
ATOM      1  C   UNL     1      46.830   5.645  13.382  0.00  0.00    +0.000 A 
ATOM      2  C   UNL     1      47.063   5.254  14.706  0.00  0.00    +0.000 A 
ATOM      3  C   UNL     1      48.152   5.765  15.415  0.00  0.00    +0.000 A 
ATOM      4  C   UNL     1      49.030   6.677  14.814  0.00  0.00    +0.000 A 
ATOM      5  C   UNL     1      48.822   7.033  13.472  0.00  0.00    +0.000 A 
ATOM      6  C   UNL     1      47.728   6.521  12.758  0.00  0.00    +0.000 A 
ENDROOT
BRANCH   1   8
ATOM      7  N   UNL     1      45.584   5.459  11.302  0.00  0.00    +0.000 N 
ATOM      8  C   UNL     1      45.668   5.092  12.627  0.00  0.00    +0.000 C 
ATOM      9  O   UNL     1      44.855   4.352  13.168  0.00  0.00    +0.000 OA
ATOM     10  H   UNL     1      46.396   5.841  10.828  0.00  0.00    +0.000 HD
BRANCH   7  11
ATOM     11  C   UNL     1      44.505   4.975  10.443  0.00  0.00    +0.000 C 
BRANCH  11  13
ATOM     12  N   UNL     1      42.053   5.406  11.684  0.00  0.00    +0.000 NA
ATOM     13  C   UNL     1      43.165   5.210  11.121  0.00  0.00    +0.000 C 
ENDBRANCH  11  13
BRANCH  11  14
ATOM     14  C   UNL     1      44.675   3.489  10.156  0.00  0.00    +0.000 C 
ATOM     15  O   UNL     1      44.163   2.634  10.882  0.00  0.00    +0.000 OA
BRANCH  14  16
ATOM     16  C   UNL     1      45.481   3.060   8.962  0.00  0.00    +0.000 A 
ATOM     17  C   UNL     1      45.858   1.729   8.725  0.00  0.00    +0.000 A 
ATOM     18  C   UNL     1      46.587   1.395   7.578  0.00  0.00    +0.000 A 
ATOM     19  C   UNL     1      46.954   2.381   6.664  0.00  0.00    +0.000 A 
ATOM     20  C   UNL     1      46.593   3.706   6.895  0.00  0.00    +0.000 A 
ATOM     21  C   UNL     1      45.860   4.045   8.038  0.00  0.00    +0.000 A 
ENDBRANCH  14  16
ENDBRANCH  11  14
ENDBRANCH   7  11
ENDBRANCH   1   8
BRANCH   4  22
ATOM     22  C   UNL     1      50.205   7.222  15.588  0.00  0.00    +0.000 C 
BRANCH  22  23
ATOM     23  N   UNL     1      51.029   6.157  16.102  0.00  0.00    +0.000 N 
ATOM     24  C   UNL     1      51.159   5.941  17.451  0.00  0.00    +0.000 C 
ATOM     25  O   UNL     1      50.546   6.607  18.279  0.00  0.00    +0.000 OA
ATOM     26  H   UNL     1      51.714   5.760  15.467  0.00  0.00    +0.000 HD
BRANCH  24  27
ATOM     27  C   UNL     1      52.026   4.824  17.853  0.00  0.00    +0.000 A 
ATOM     28  C   UNL     1      53.263   5.081  18.426  0.00  0.00    +0.000 A 
ATOM     29  S   UNL     1      54.114   3.675  18.881  0.00  0.00    +0.000 S 
ATOM     30  C   UNL     1      52.881   2.667  18.278  0.00  0.00    +0.000 A 
ATOM     31  N   UNL     1      52.993   1.315  18.331  0.00  0.00    +0.000 NA
ATOM     32  C   UNL     1      52.000   0.677  17.810  0.00  0.00    +0.000 A 
ATOM     33  N   UNL     1      50.899   1.270  17.249  0.00  0.00    +0.000 N 
ATOM     34  C   UNL     1      50.725   2.629  17.206  0.00  0.00    +0.000 A 
ATOM     35  O   UNL     1      49.701   3.130  16.747  0.00  0.00    +0.000 OA
ATOM     36  C   UNL     1      51.825   3.399  17.759  0.00  0.00    +0.000 A 
ATOM     37  H   UNL     1      50.149   0.712  16.868  0.00  0.00    +0.000 HD
ENDBRANCH  24  27
ENDBRANCH  22  23
ENDBRANCH   4  22
TORSDOF 8
ENDMDL
MODEL 3
REMARK VINA RESULT:    -7.491      2.327      3.089
REMARK INTER + INTRA:         -11.846
REMARK INTER:                 -10.951
REMARK INTRA:                  -0.895
REMARK UNBOUND:                -0.852
REMARK  Name = 
REMARK  8 active torsions:
REMARK  status: ('A' for Active; 'I' for Inactive)
REMARK    1  A    between atoms: C_2  and  C_3
REMARK    2  A    between atoms: C_3  and  N_4
REMARK    3  A    between atoms: C_3  and  C_27
REMARK    4  A    between atoms: C_5  and  C_7
REMARK    5  A    between atoms: C_10  and  C_11
REMARK    6  A    between atoms: C_11  and  N_12
REMARK    7  A    between atoms: C_13  and  C_15
REMARK    8  A    between atoms: C_27  and  C_29
REMARK                            x       y       z     vdW  Elec       q    Type
REMARK                         _______ _______ _______ _____ _____    ______ ____
ROOT
ATOM      1  C   UNL     1      46.783   7.308  12.041  0.00  0.00    +0.000 A 
ATOM      2  C   UNL     1      46.750   7.942  13.289  0.00  0.00    +0.000 A 
ATOM      3  C   UNL     1      47.936   8.291  13.938  0.00  0.00    +0.000 A 
ATOM      4  C   UNL     1      49.178   8.012  13.352  0.00  0.00    +0.000 A 
ATOM      5  C   UNL     1      49.210   7.336  12.122  0.00  0.00    +0.000 A 
ATOM      6  C   UNL     1      48.020   6.985  11.469  0.00  0.00    +0.000 A 
ENDROOT
BRANCH   1   8
ATOM      7  N   UNL     1      45.389   5.607  11.001  0.00  0.00    +0.000 N 
ATOM      8  C   UNL     1      45.512   6.933  11.354  0.00  0.00    +0.000 C 
ATOM      9  O   UNL     1      44.640   7.766  11.135  0.00  0.00    +0.000 OA
ATOM     10  H   UNL     1      45.993   4.911  11.426  0.00  0.00    +0.000 HD
BRANCH   7  11
ATOM     11  C   UNL     1      44.189   5.102  10.338  0.00  0.00    +0.000 C 
BRANCH  11  13
ATOM     12  N   UNL     1      41.979   5.468  11.987  0.00  0.00    +0.000 NA
ATOM     13  C   UNL     1      42.982   5.302  11.240  0.00  0.00    +0.000 C 
ENDBRANCH  11  13
BRANCH  11  14
ATOM     14  C   UNL     1      44.340   3.623  10.011  0.00  0.00    +0.000 C 
ATOM     15  O   UNL     1      43.705   2.763  10.627  0.00  0.00    +0.000 OA
BRANCH  14  16
ATOM     16  C   UNL     1      45.279   3.204   8.915  0.00  0.00    +0.000 A 
ATOM     17  C   UNL     1      45.833   4.102   7.991  0.00  0.00    +0.000 A 
ATOM     18  C   UNL     1      46.723   3.648   7.010  0.00  0.00    +0.000 A 
ATOM     19  C   UNL     1      47.062   2.298   6.937  0.00  0.00    +0.000 A 
ATOM     20  C   UNL     1      46.511   1.397   7.845  0.00  0.00    +0.000 A 
ATOM     21  C   UNL     1      45.623   1.847   8.829  0.00  0.00    +0.000 A 
ENDBRANCH  14  16
ENDBRANCH  11  14
ENDBRANCH   7  11
ENDBRANCH   1   8
BRANCH   4  22
ATOM     22  C   UNL     1      50.454   8.391  14.063  0.00  0.00    +0.000 C 
BRANCH  22  23
ATOM     23  N   UNL     1      50.966   7.289  14.838  0.00  0.00    +0.000 N 
ATOM     24  C   UNL     1      50.741   7.200  16.189  0.00  0.00    +0.000 C 
ATOM     25  O   UNL     1      50.057   8.021  16.791  0.00  0.00    +0.000 OA
ATOM     26  H   UNL     1      51.714   6.744  14.422  0.00  0.00    +0.000 HD
BRANCH  24  27
ATOM     27  C   UNL     1      51.312   6.030  16.871  0.00  0.00    +0.000 A 
ATOM     28  C   UNL     1      50.482   5.163  17.567  0.00  0.00    +0.000 A 
ATOM     29  S   UNL     1      51.300   3.831  18.251  0.00  0.00    +0.000 S 
ATOM     30  C   UNL     1      52.804   4.396  17.687  0.00  0.00    +0.000 A 
ATOM     31  N   UNL     1      53.951   3.721  17.957  0.00  0.00    +0.000 NA
ATOM     32  C   UNL     1      55.019   4.279  17.495  0.00  0.00    +0.000 A 
ATOM     33  N   UNL     1      55.042   5.447  16.779  0.00  0.00    +0.000 N 
ATOM     34  C   UNL     1      53.908   6.144  16.452  0.00  0.00    +0.000 A 
ATOM     35  O   UNL     1      53.956   7.159  15.761  0.00  0.00    +0.000 OA
ATOM     36  C   UNL     1      52.676   5.573  16.966  0.00  0.00    +0.000 A 
ATOM     37  H   UNL     1      55.913   5.826  16.436  0.00  0.00    +0.000 HD
ENDBRANCH  24  27
ENDBRANCH  22  23
ENDBRANCH   4  22
TORSDOF 8
ENDMDL
MODEL 4
REMARK VINA RESULT:    -7.132      5.432      7.881
REMARK INTER + INTRA:         -11.320
REMARK INTER:                 -10.320
REMARK INTRA:                  -1.000
REMARK UNBOUND:                -0.852
REMARK  Name = 
REMARK  8 active torsions:
REMARK  status: ('A' for Active; 'I' for Inactive)
REMARK    1  A    between atoms: C_2  and  C_3
REMARK    2  A    between atoms: C_3  and  N_4
REMARK    3  A    between atoms: C_3  and  C_27
REMARK    4  A    between atoms: C_5  and  C_7
REMARK    5  A    between atoms: C_10  and  C_11
REMARK    6  A    between atoms: C_11  and  N_12
REMARK    7  A    between atoms: C_13  and  C_15
REMARK    8  A    between atoms: C_27  and  C_29
REMARK                            x       y       z     vdW  Elec       q    Type
REMARK                         _______ _______ _______ _____ _____    ______ ____
ROOT
ATOM      1  C   UNL     1      48.284   8.151  12.084  0.00  0.00    +0.000 A 
ATOM      2  C   UNL     1      48.288   9.511  11.752  0.00  0.00    +0.000 A 
ATOM      3  C   UNL     1      49.454  10.124  11.288  0.00  0.00    +0.000 A 
ATOM      4  C   UNL     1      50.639   9.390  11.149  0.00  0.00    +0.000 A 
ATOM      5  C   UNL     1      50.645   8.038  11.526  0.00  0.00    +0.000 A 
ATOM      6  C   UNL     1      49.475   7.420  11.991  0.00  0.00    +0.000 A 
ENDROOT
BRANCH   1   8
ATOM      7  N   UNL     1      46.627   6.381  11.893  0.00  0.00    +0.000 N 
ATOM      8  C   UNL     1      47.037   7.501  12.583  0.00  0.00    +0.000 C 
ATOM      9  O   UNL     1      46.435   7.945  13.554  0.00  0.00    +0.000 OA
ATOM     10  H   UNL     1      47.275   5.896  11.282  0.00  0.00    +0.000 HD
BRANCH   7  11
ATOM     11  C   UNL     1      45.431   5.639  12.287  0.00  0.00    +0.000 C 
BRANCH  11  13
ATOM     12  N   UNL     1      46.160   3.143  13.276  0.00  0.00    +0.000 NA
ATOM     13  C   UNL     1      45.829   4.275  12.827  0.00  0.00    +0.000 C 
ENDBRANCH  11  13
BRANCH  11  14
ATOM     14  C   UNL     1      44.496   5.462  11.099  0.00  0.00    +0.000 C 
ATOM     15  O   UNL     1      43.406   6.038  11.051  0.00  0.00    +0.000 OA
BRANCH  14  16
ATOM     16  C   UNL     1      44.911   4.570   9.963  0.00  0.00    +0.000 A 
ATOM     17  C   UNL     1      45.777   4.980   8.938  0.00  0.00    +0.000 A 
ATOM     18  C   UNL     1      46.143   4.088   7.924  0.00  0.00    +0.000 A 
ATOM     19  C   UNL     1      45.646   2.787   7.916  0.00  0.00    +0.000 A 
ATOM     20  C   UNL     1      44.779   2.372   8.923  0.00  0.00    +0.000 A 
ATOM     21  C   UNL     1      44.411   3.259   9.943  0.00  0.00    +0.000 A 
ENDBRANCH  14  16
ENDBRANCH  11  14
ENDBRANCH   7  11
ENDBRANCH   1   8
BRANCH   4  22
ATOM     22  C   UNL     1      51.894  10.063  10.650  0.00  0.00    +0.000 C 
BRANCH  22  23
ATOM     23  N   UNL     1      52.434   9.374   9.505  0.00  0.00    +0.000 N 
ATOM     24  C   UNL     1      53.711   8.871   9.510  0.00  0.00    +0.000 C 
ATOM     25  O   UNL     1      54.433   8.938  10.499  0.00  0.00    +0.000 OA
ATOM     26  H   UNL     1      51.958   9.514   8.619  0.00  0.00    +0.000 HD
BRANCH  24  27
ATOM     27  C   UNL     1      54.149   8.187   8.285  0.00  0.00    +0.000 A 
ATOM     28  C   UNL     1      54.631   8.928   7.215  0.00  0.00    +0.000 A 
ATOM     29  S   UNL     1      55.144   7.975   5.897  0.00  0.00    +0.000 S 
ATOM     30  C   UNL     1      54.690   6.538   6.688  0.00  0.00    +0.000 A 
ATOM     31  N   UNL     1      54.839   5.330   6.086  0.00  0.00    +0.000 NA
ATOM     32  C   UNL     1      54.424   4.329   6.788  0.00  0.00    +0.000 A 
ATOM     33  N   UNL     1      53.882   4.428   8.042  0.00  0.00    +0.000 N 
ATOM     34  C   UNL     1      53.745   5.621   8.704  0.00  0.00    +0.000 A 
ATOM     35  O   UNL     1      53.305   5.671   9.851  0.00  0.00    +0.000 OA
ATOM     36  C   UNL     1      54.175   6.785   7.951  0.00  0.00    +0.000 A 
ATOM     37  H   UNL     1      53.586   3.603   8.544  0.00  0.00    +0.000 HD
ENDBRANCH  24  27
ENDBRANCH  22  23
ENDBRANCH   4  22
TORSDOF 8
ENDMDL
MODEL 5
REMARK VINA RESULT:    -7.098      3.327      9.196
REMARK INTER + INTRA:         -11.270
REMARK INTER:                  -9.703
REMARK INTRA:                  -1.568
REMARK UNBOUND:                -0.852
REMARK  Name = 
REMARK  8 active torsions:
REMARK  status: ('A' for Active; 'I' for Inactive)
REMARK    1  A    between atoms: C_2  and  C_3
REMARK    2  A    between atoms: C_3  and  N_4
REMARK    3  A    between atoms: C_3  and  C_27
REMARK    4  A    between atoms: C_5  and  C_7
REMARK    5  A    between atoms: C_10  and  C_11
REMARK    6  A    between atoms: C_11  and  N_12
REMARK    7  A    between atoms: C_13  and  C_15
REMARK    8  A    between atoms: C_27  and  C_29
REMARK                            x       y       z     vdW  Elec       q    Type
REMARK                         _______ _______ _______ _____ _____    ______ ____
ROOT
ATOM      1  C   UNL     1      48.816   7.763  16.153  0.00  0.00    +0.000 A 
ATOM      2  C   UNL     1      48.920   6.666  15.290  0.00  0.00    +0.000 A 
ATOM      3  C   UNL     1      48.713   6.822  13.917  0.00  0.00    +0.000 A 
ATOM      4  C   UNL     1      48.396   8.077  13.382  0.00  0.00    +0.000 A 
ATOM      5  C   UNL     1      48.247   9.167  14.254  0.00  0.00    +0.000 A 
ATOM      6  C   UNL     1      48.456   9.013  15.633  0.00  0.00    +0.000 A 
ENDROOT
BRANCH   1   8
ATOM      7  N   UNL     1      50.075   6.763  17.978  0.00  0.00    +0.000 N 
ATOM      8  C   UNL     1      49.034   7.591  17.619  0.00  0.00    +0.000 C 
ATOM      9  O   UNL     1      48.327   8.167  18.437  0.00  0.00    +0.000 OA
ATOM     10  H   UNL     1      50.790   6.524  17.298  0.00  0.00    +0.000 HD
BRANCH   7  11
ATOM     11  C   UNL     1      50.409   6.521  19.379  0.00  0.00    +0.000 C 
BRANCH  11  13
ATOM     12  N   UNL     1      53.137   6.896  19.774  0.00  0.00    +0.000 NA
ATOM     13  C   UNL     1      51.900   6.726  19.595  0.00  0.00    +0.000 C 
ENDBRANCH  11  13
BRANCH  11  14
ATOM     14  C   UNL     1      50.028   5.103  19.784  0.00  0.00    +0.000 C 
ATOM     15  O   UNL     1      50.143   4.717  20.950  0.00  0.00    +0.000 OA
BRANCH  14  16
ATOM     16  C   UNL     1      49.497   4.159  18.741  0.00  0.00    +0.000 A 
ATOM     17  C   UNL     1      48.134   4.033  18.439  0.00  0.00    +0.000 A 
ATOM     18  C   UNL     1      47.711   3.152  17.437  0.00  0.00    +0.000 A 
ATOM     19  C   UNL     1      48.639   2.386  16.734  0.00  0.00    +0.000 A 
ATOM     20  C   UNL     1      49.995   2.498  17.033  0.00  0.00    +0.000 A 
ATOM     21  C   UNL     1      50.423   3.380  18.032  0.00  0.00    +0.000 A 
ENDBRANCH  14  16
ENDBRANCH  11  14
ENDBRANCH   7  11
ENDBRANCH   1   8
BRANCH   4  22
ATOM     22  C   UNL     1      48.172   8.234  11.898  0.00  0.00    +0.000 C 
BRANCH  22  23
ATOM     23  N   UNL     1      47.504   7.082  11.348  0.00  0.00    +0.000 N 
ATOM     24  C   UNL     1      46.136   6.980  11.352  0.00  0.00    +0.000 C 
ATOM     25  O   UNL     1      45.416   7.879  11.775  0.00  0.00    +0.000 OA
ATOM     26  H   UNL     1      48.064   6.246  11.217  0.00  0.00    +0.000 HD
BRANCH  24  27
ATOM     27  C   UNL     1      45.570   5.758  10.761  0.00  0.00    +0.000 A 
ATOM     28  C   UNL     1      45.746   5.498   9.410  0.00  0.00    +0.000 A 
ATOM     29  S   UNL     1      45.073   4.015   8.902  0.00  0.00    +0.000 S 
ATOM     30  C   UNL     1      44.473   3.691  10.462  0.00  0.00    +0.000 A 
ATOM     31  N   UNL     1      43.758   2.565  10.718  0.00  0.00    +0.000 NA
ATOM     32  C   UNL     1      43.339   2.465  11.934  0.00  0.00    +0.000 A 
ATOM     33  N   UNL     1      43.580   3.384  12.921  0.00  0.00    +0.000 N 
ATOM     34  C   UNL     1      44.326   4.516  12.720  0.00  0.00    +0.000 A 
ATOM     35  O   UNL     1      44.571   5.295  13.640  0.00  0.00    +0.000 OA
ATOM     36  C   UNL     1      44.805   4.693  11.361  0.00  0.00    +0.000 A 
ATOM     37  H   UNL     1      43.232   3.240  13.859  0.00  0.00    +0.000 HD
ENDBRANCH  24  27
ENDBRANCH  22  23
ENDBRANCH   4  22
TORSDOF 8
ENDMDL
MODEL 6
REMARK VINA RESULT:    -7.019      3.143      9.734
REMARK INTER + INTRA:         -11.153
REMARK INTER:                  -9.771
REMARK INTRA:                  -1.382
REMARK UNBOUND:                -0.852
REMARK  Name = 
REMARK  8 active torsions:
REMARK  status: ('A' for Active; 'I' for Inactive)
REMARK    1  A    between atoms: C_2  and  C_3
REMARK    2  A    between atoms: C_3  and  N_4
REMARK    3  A    between atoms: C_3  and  C_27
REMARK    4  A    between atoms: C_5  and  C_7
REMARK    5  A    between atoms: C_10  and  C_11
REMARK    6  A    between atoms: C_11  and  N_12
REMARK    7  A    between atoms: C_13  and  C_15
REMARK    8  A    between atoms: C_27  and  C_29
REMARK                            x       y       z     vdW  Elec       q    Type
REMARK                         _______ _______ _______ _____ _____    ______ ____
ROOT
ATOM      1  C   UNL     1      50.458   7.622  14.878  0.00  0.00    +0.000 A 
ATOM      2  C   UNL     1      49.208   7.005  15.004  0.00  0.00    +0.000 A 
ATOM      3  C   UNL     1      48.273   7.080  13.969  0.00  0.00    +0.000 A 
ATOM      4  C   UNL     1      48.571   7.774  12.788  0.00  0.00    +0.000 A 
ATOM      5  C   UNL     1      49.807   8.430  12.682  0.00  0.00    +0.000 A 
ATOM      6  C   UNL     1      50.747   8.355  13.721  0.00  0.00    +0.000 A 
ENDROOT
BRANCH   1   8
ATOM      7  N   UNL     1      51.653   6.289  16.526  0.00  0.00    +0.000 N 
ATOM      8  C   UNL     1      51.451   7.543  15.989  0.00  0.00    +0.000 C 
ATOM      9  O   UNL     1      52.049   8.539  16.378  0.00  0.00    +0.000 OA
ATOM     10  H   UNL     1      51.354   5.465  16.015  0.00  0.00    +0.000 HD
BRANCH   7  11
ATOM     11  C   UNL     1      52.610   6.068  17.607  0.00  0.00    +0.000 C 
BRANCH  11  13
ATOM     12  N   UNL     1      55.023   5.169  16.554  0.00  0.00    +0.000 NA
ATOM     13  C   UNL     1      53.929   5.576  17.032  0.00  0.00    +0.000 C 
ENDBRANCH  11  13
BRANCH  11  14
ATOM     14  C   UNL     1      52.073   5.042  18.596  0.00  0.00    +0.000 C 
ATOM     15  O   UNL     1      52.658   4.808  19.657  0.00  0.00    +0.000 OA
BRANCH  14  16
ATOM     16  C   UNL     1      50.805   4.304  18.273  0.00  0.00    +0.000 A 
ATOM     17  C   UNL     1      49.532   4.756  18.651  0.00  0.00    +0.000 A 
ATOM     18  C   UNL     1      48.390   4.031  18.294  0.00  0.00    +0.000 A 
ATOM     19  C   UNL     1      48.504   2.849  17.565  0.00  0.00    +0.000 A 
ATOM     20  C   UNL     1      49.764   2.386  17.192  0.00  0.00    +0.000 A 
ATOM     21  C   UNL     1      50.910   3.109  17.544  0.00  0.00    +0.000 A 
ENDBRANCH  14  16
ENDBRANCH  11  14
ENDBRANCH   7  11
ENDBRANCH   1   8
BRANCH   4  22
ATOM     22  C   UNL     1      47.553   7.850  11.677  0.00  0.00    +0.000 C 
BRANCH  22  23
ATOM     23  N   UNL     1      46.855   6.599  11.522  0.00  0.00    +0.000 N 
ATOM     24  C   UNL     1      45.485   6.537  11.552  0.00  0.00    +0.000 C 
ATOM     25  O   UNL     1      44.789   7.541  11.660  0.00  0.00    +0.000 OA
ATOM     26  H   UNL     1      47.395   5.752  11.670  0.00  0.00    +0.000 HD
BRANCH  24  27
ATOM     27  C   UNL     1      44.888   5.204  11.382  0.00  0.00    +0.000 A 
ATOM     28  C   UNL     1      44.170   4.631  12.423  0.00  0.00    +0.000 A 
ATOM     29  S   UNL     1      43.502   3.109  12.039  0.00  0.00    +0.000 S 
ATOM     30  C   UNL     1      44.195   3.136  10.484  0.00  0.00    +0.000 A 
ATOM     31  N   UNL     1      44.030   2.096   9.626  0.00  0.00    +0.000 NA
ATOM     32  C   UNL     1      44.636   2.238   8.495  0.00  0.00    +0.000 A 
ATOM     33  N   UNL     1      45.384   3.330   8.141  0.00  0.00    +0.000 N 
ATOM     34  C   UNL     1      45.548   4.418   8.959  0.00  0.00    +0.000 A 
ATOM     35  O   UNL     1      46.179   5.407   8.591  0.00  0.00    +0.000 OA
ATOM     36  C   UNL     1      44.906   4.304  10.256  0.00  0.00    +0.000 A 
ATOM     37  H   UNL     1      45.823   3.384   7.234  0.00  0.00    +0.000 HD
ENDBRANCH  24  27
ENDBRANCH  22  23
ENDBRANCH   4  22
TORSDOF 8
ENDMDL
MODEL 7
REMARK VINA RESULT:    -6.750      3.339      5.011
REMARK INTER + INTRA:         -10.760
REMARK INTER:                  -9.885
REMARK INTRA:                  -0.875
REMARK UNBOUND:                -0.852
REMARK  Name = 
REMARK  8 active torsions:
REMARK  status: ('A' for Active; 'I' for Inactive)
REMARK    1  A    between atoms: C_2  and  C_3
REMARK    2  A    between atoms: C_3  and  N_4
REMARK    3  A    between atoms: C_3  and  C_27
REMARK    4  A    between atoms: C_5  and  C_7
REMARK    5  A    between atoms: C_10  and  C_11
REMARK    6  A    between atoms: C_11  and  N_12
REMARK    7  A    between atoms: C_13  and  C_15
REMARK    8  A    between atoms: C_27  and  C_29
REMARK                            x       y       z     vdW  Elec       q    Type
REMARK                         _______ _______ _______ _____ _____    ______ ____
ROOT
ATOM      1  C   UNL     1      47.115   5.046  14.447  0.00  0.00    +0.000 A 
ATOM      2  C   UNL     1      47.899   6.193  14.273  0.00  0.00    +0.000 A 
ATOM      3  C   UNL     1      48.767   6.619  15.281  0.00  0.00    +0.000 A 
ATOM      4  C   UNL     1      48.867   5.905  16.483  0.00  0.00    +0.000 A 
ATOM      5  C   UNL     1      48.047   4.782  16.674  0.00  0.00    +0.000 A 
ATOM      6  C   UNL     1      47.176   4.353  15.662  0.00  0.00    +0.000 A 
ENDROOT
BRANCH   1   8
ATOM      7  N   UNL     1      45.645   5.599  12.590  0.00  0.00    +0.000 N 
ATOM      8  C   UNL     1      46.186   4.599  13.368  0.00  0.00    +0.000 C 
ATOM      9  O   UNL     1      45.941   3.412  13.194  0.00  0.00    +0.000 OA
ATOM     10  H   UNL     1      46.066   6.522  12.584  0.00  0.00    +0.000 HD
BRANCH   7  11
ATOM     11  C   UNL     1      44.734   5.299  11.487  0.00  0.00    +0.000 C 
BRANCH  11  13
ATOM     12  N   UNL     1      46.121   5.358   9.077  0.00  0.00    +0.000 NA
ATOM     13  C   UNL     1      45.493   5.331  10.171  0.00  0.00    +0.000 C 
ENDBRANCH  11  13
BRANCH  11  14
ATOM     14  C   UNL     1      43.596   6.309  11.443  0.00  0.00    +0.000 C 
ATOM     15  O   UNL     1      42.417   5.945  11.411  0.00  0.00    +0.000 OA
BRANCH  14  16
ATOM     16  C   UNL     1      43.916   7.777  11.440  0.00  0.00    +0.000 A 
ATOM     17  C   UNL     1      45.029   8.324  12.095  0.00  0.00    +0.000 A 
ATOM     18  C   UNL     1      45.282   9.699  12.030  0.00  0.00    +0.000 A 
ATOM     19  C   UNL     1      44.428  10.540  11.320  0.00  0.00    +0.000 A 
ATOM     20  C   UNL     1      43.315  10.008  10.674  0.00  0.00    +0.000 A 
ATOM     21  C   UNL     1      43.058   8.633  10.733  0.00  0.00    +0.000 A 
ENDBRANCH  14  16
ENDBRANCH  11  14
ENDBRANCH   7  11
ENDBRANCH   1   8
BRANCH   4  22
ATOM     22  C   UNL     1      49.806   6.374  17.567  0.00  0.00    +0.000 C 
BRANCH  22  23
ATOM     23  N   UNL     1      50.728   5.332  17.945  0.00  0.00    +0.000 N 
ATOM     24  C   UNL     1      51.979   5.249  17.388  0.00  0.00    +0.000 C 
ATOM     25  O   UNL     1      52.391   6.079  16.585  0.00  0.00    +0.000 OA
ATOM     26  H   UNL     1      50.335   4.520  18.411  0.00  0.00    +0.000 HD
BRANCH  24  27
ATOM     27  C   UNL     1      52.829   4.143  17.854  0.00  0.00    +0.000 A 
ATOM     28  C   UNL     1      54.081   4.412  18.388  0.00  0.00    +0.000 A 
ATOM     29  S   UNL     1      54.910   3.022  18.927  0.00  0.00    +0.000 S 
ATOM     30  C   UNL     1      53.645   2.003  18.416  0.00  0.00    +0.000 A 
ATOM     31  N   UNL     1      53.730   0.655  18.561  0.00  0.00    +0.000 NA
ATOM     32  C   UNL     1      52.714   0.005  18.102  0.00  0.00    +0.000 A 
ATOM     33  N   UNL     1      51.617   0.582  17.519  0.00  0.00    +0.000 N 
ATOM     34  C   UNL     1      51.471   1.938  17.383  0.00  0.00    +0.000 A 
ATOM     35  O   UNL     1      50.449   2.429  16.906  0.00  0.00    +0.000 OA
ATOM     36  C   UNL     1      52.596   2.720  17.863  0.00  0.00    +0.000 A 
ATOM     37  H   UNL     1      50.848   0.016  17.189  0.00  0.00    +0.000 HD
ENDBRANCH  24  27
ENDBRANCH  22  23
ENDBRANCH   4  22
TORSDOF 8
ENDMDL
MODEL 8
REMARK VINA RESULT:    -6.147      3.890     10.562
REMARK INTER + INTRA:          -9.874
REMARK INTER:                  -8.611
REMARK INTRA:                  -1.263
REMARK UNBOUND:                -0.852
REMARK  Name = 
REMARK  8 active torsions:
REMARK  status: ('A' for Active; 'I' for Inactive)
REMARK    1  A    between atoms: C_2  and  C_3
REMARK    2  A    between atoms: C_3  and  N_4
REMARK    3  A    between atoms: C_3  and  C_27
REMARK    4  A    between atoms: C_5  and  C_7
REMARK    5  A    between atoms: C_10  and  C_11
REMARK    6  A    between atoms: C_11  and  N_12
REMARK    7  A    between atoms: C_13  and  C_15
REMARK    8  A    between atoms: C_27  and  C_29
REMARK                            x       y       z     vdW  Elec       q    Type
REMARK                         _______ _______ _______ _____ _____    ______ ____
ROOT
ATOM      1  C   UNL     1      50.092   5.234  19.348  0.00  0.00    +0.000 A 
ATOM      2  C   UNL     1      50.515   4.239  18.458  0.00  0.00    +0.000 A 
ATOM      3  C   UNL     1      49.609   3.643  17.578  0.00  0.00    +0.000 A 
ATOM      4  C   UNL     1      48.261   4.028  17.573  0.00  0.00    +0.000 A 
ATOM      5  C   UNL     1      47.830   4.993  18.497  0.00  0.00    +0.000 A 
ATOM      6  C   UNL     1      48.738   5.594  19.380  0.00  0.00    +0.000 A 
ENDROOT
BRANCH   1   8
ATOM      7  N   UNL     1      51.934   6.776  19.729  0.00  0.00    +0.000 N 
ATOM      8  C   UNL     1      51.063   5.865  20.288  0.00  0.00    +0.000 C 
ATOM      9  O   UNL     1      51.064   5.586  21.481  0.00  0.00    +0.000 OA
ATOM     10  H   UNL     1      51.735   7.175  18.818  0.00  0.00    +0.000 HD
BRANCH   7  11
ATOM     11  C   UNL     1      52.925   7.480  20.540  0.00  0.00    +0.000 C 
BRANCH  11  13
ATOM     12  N   UNL     1      53.118  10.125  19.702  0.00  0.00    +0.000 NA
ATOM     13  C   UNL     1      53.030   8.925  20.081  0.00  0.00    +0.000 C 
ENDBRANCH  11  13
BRANCH  11  14
ATOM     14  C   UNL     1      54.287   6.809  20.423  0.00  0.00    +0.000 C 
ATOM     15  O   UNL     1      55.223   7.128  21.161  0.00  0.00    +0.000 OA
BRANCH  14  16
ATOM     16  C   UNL     1      54.491   5.735  19.391  0.00  0.00    +0.000 A 
ATOM     17  C   UNL     1      54.340   4.368  19.662  0.00  0.00    +0.000 A 
ATOM     18  C   UNL     1      54.520   3.422  18.646  0.00  0.00    +0.000 A 
ATOM     19  C   UNL     1      54.859   3.829  17.357  0.00  0.00    +0.000 A 
ATOM     20  C   UNL     1      55.020   5.184  17.080  0.00  0.00    +0.000 A 
ATOM     21  C   UNL     1      54.838   6.134  18.091  0.00  0.00    +0.000 A 
ENDBRANCH  14  16
ENDBRANCH  11  14
ENDBRANCH   7  11
ENDBRANCH   1   8
BRANCH   4  22
ATOM     22  C   UNL     1      47.290   3.376  16.620  0.00  0.00    +0.000 C 
BRANCH  22  23
ATOM     23  N   UNL     1      46.725   4.340  15.710  0.00  0.00    +0.000 N 
ATOM     24  C   UNL     1      46.777   4.156  14.352  0.00  0.00    +0.000 C 
ATOM     25  O   UNL     1      47.259   3.146  13.848  0.00  0.00    +0.000 OA
ATOM     26  H   UNL     1      46.544   5.268  16.080  0.00  0.00    +0.000 HD
BRANCH  24  27
ATOM     27  C   UNL     1      46.166   5.209  13.526  0.00  0.00    +0.000 A 
ATOM     28  C   UNL     1      46.842   6.403  13.318  0.00  0.00    +0.000 A 
ATOM     29  S   UNL     1      46.015   7.489  12.294  0.00  0.00    +0.000 S 
ATOM     30  C   UNL     1      44.697   6.422  12.137  0.00  0.00    +0.000 A 
ATOM     31  N   UNL     1      43.609   6.759  11.398  0.00  0.00    +0.000 NA
ATOM     32  C   UNL     1      42.673   5.870  11.391  0.00  0.00    +0.000 A 
ATOM     33  N   UNL     1      42.732   4.670  12.050  0.00  0.00    +0.000 N 
ATOM     34  C   UNL     1      43.824   4.272  12.777  0.00  0.00    +0.000 A 
ATOM     35  O   UNL     1      43.870   3.165  13.311  0.00  0.00    +0.000 OA
ATOM     36  C   UNL     1      44.900   5.244  12.838  0.00  0.00    +0.000 A 
ATOM     37  H   UNL     1      41.968   4.012  11.995  0.00  0.00    +0.000 HD
ENDBRANCH  24  27
ENDBRANCH  22  23
ENDBRANCH   4  22
TORSDOF 8
ENDMDL
MODEL 9
REMARK VINA RESULT:    -6.004      3.177      5.234
REMARK INTER + INTRA:          -9.664
REMARK INTER:                  -8.644
REMARK INTRA:                  -1.020
REMARK UNBOUND:                -0.852
REMARK  Name = 
REMARK  8 active torsions:
REMARK  status: ('A' for Active; 'I' for Inactive)
REMARK    1  A    between atoms: C_2  and  C_3
REMARK    2  A    between atoms: C_3  and  N_4
REMARK    3  A    between atoms: C_3  and  C_27
REMARK    4  A    between atoms: C_5  and  C_7
REMARK    5  A    between atoms: C_10  and  C_11
REMARK    6  A    between atoms: C_11  and  N_12
REMARK    7  A    between atoms: C_13  and  C_15
REMARK    8  A    between atoms: C_27  and  C_29
REMARK                            x       y       z     vdW  Elec       q    Type
REMARK                         _______ _______ _______ _____ _____    ______ ____
ROOT
ATOM      1  C   UNL     1      47.367   4.713  15.520  0.00  0.00    +0.000 A 
ATOM      2  C   UNL     1      48.266   5.780  15.635  0.00  0.00    +0.000 A 
ATOM      3  C   UNL     1      48.930   6.021  16.841  0.00  0.00    +0.000 A 
ATOM      4  C   UNL     1      48.706   5.201  17.954  0.00  0.00    +0.000 A 
ATOM      5  C   UNL     1      47.771   4.159  17.851  0.00  0.00    +0.000 A 
ATOM      6  C   UNL     1      47.104   3.915  16.641  0.00  0.00    +0.000 A 
ENDROOT
BRANCH   1   8
ATOM      7  N   UNL     1      45.558   5.255  13.988  0.00  0.00    +0.000 N 
ATOM      8  C   UNL     1      46.658   4.462  14.232  0.00  0.00    +0.000 C 
ATOM      9  O   UNL     1      47.051   3.607  13.448  0.00  0.00    +0.000 OA
ATOM     10  H   UNL     1      45.423   6.112  14.515  0.00  0.00    +0.000 HD
BRANCH   7  11
ATOM     11  C   UNL     1      44.782   5.126  12.757  0.00  0.00    +0.000 C 
BRANCH  11  13
ATOM     12  N   UNL     1      44.157   2.452  12.315  0.00  0.00    +0.000 NA
ATOM     13  C   UNL     1      44.441   3.664  12.516  0.00  0.00    +0.000 C 
ENDBRANCH  11  13
BRANCH  11  14
ATOM     14  C   UNL     1      45.568   5.667  11.570  0.00  0.00    +0.000 C 
ATOM     15  O   UNL     1      45.574   5.079  10.485  0.00  0.00    +0.000 OA
BRANCH  14  16
ATOM     16  C   UNL     1      46.349   6.941  11.725  0.00  0.00    +0.000 A 
ATOM     17  C   UNL     1      45.748   8.191  11.935  0.00  0.00    +0.000 A 
ATOM     18  C   UNL     1      46.538   9.336  12.098  0.00  0.00    +0.000 A 
ATOM     19  C   UNL     1      47.927   9.247  12.044  0.00  0.00    +0.000 A 
ATOM     20  C   UNL     1      48.533   8.012  11.826  0.00  0.00    +0.000 A 
ATOM     21  C   UNL     1      47.748   6.863  11.667  0.00  0.00    +0.000 A 
ENDBRANCH  14  16
ENDBRANCH  11  14
ENDBRANCH   7  11
ENDBRANCH   1   8
BRANCH   4  22
ATOM     22  C   UNL     1      49.426   5.471  19.252  0.00  0.00    +0.000 C 
BRANCH  22  23
ATOM     23  N   UNL     1      49.260   6.843  19.664  0.00  0.00    +0.000 N 
ATOM     24  C   UNL     1      48.144   7.254  20.347  0.00  0.00    +0.000 C 
ATOM     25  O   UNL     1      47.262   6.472  20.684  0.00  0.00    +0.000 OA
ATOM     26  H   UNL     1      49.843   7.533  19.201  0.00  0.00    +0.000 HD
BRANCH  24  27
ATOM     27  C   UNL     1      48.090   8.677  20.714  0.00  0.00    +0.000 A 
ATOM     28  C   UNL     1      48.219   9.053  22.043  0.00  0.00    +0.000 A 
ATOM     29  S   UNL     1      48.186  10.742  22.284  0.00  0.00    +0.000 S 
ATOM     30  C   UNL     1      47.943  11.029  20.623  0.00  0.00    +0.000 A 
ATOM     31  N   UNL     1      47.801  12.292  20.145  0.00  0.00    +0.000 NA
ATOM     32  C   UNL     1      47.592  12.360  18.873  0.00  0.00    +0.000 A 
ATOM     33  N   UNL     1      47.522  11.278  18.035  0.00  0.00    +0.000 N 
ATOM     34  C   UNL     1      47.696   9.988  18.466  0.00  0.00    +0.000 A 
ATOM     35  O   UNL     1      47.683   9.042  17.681  0.00  0.00    +0.000 OA
ATOM     36  C   UNL     1      47.912   9.850  19.895  0.00  0.00    +0.000 A 
ATOM     37  H   UNL     1      47.367  11.400  17.045  0.00  0.00    +0.000 HD
ENDBRANCH  24  27
ENDBRANCH  22  23
ENDBRANCH   4  22
TORSDOF 8
ENDMDL
