MODEL 1
REMARK VINA RESULT:    -8.186      0.000      0.000
REMARK INTER + INTRA:         -13.702
REMARK INTER:                 -12.254
REMARK INTRA:                  -1.448
REMARK UNBOUND:                -1.448
REMARK  Name = 
REMARK  9 active torsions:
REMARK  status: ('A' for Active; 'I' for Inactive)
REMARK    1  A    between atoms: N_1  and  C_2
REMARK    2  A    between atoms: C_2  and  C_3
REMARK    3  A    between atoms: C_2  and  C_19
REMARK    4  A    between atoms: C_3  and  C_4
REMARK    5  A    between atoms: C_7  and  C_8
REMARK    6  A    between atoms: C_8  and  N_9
REMARK    7  A    between atoms: N_9  and  C_10
REMARK    8  A    between atoms: C_10  and  C_11
REMARK    9  A    between atoms: C_19  and  C_21
REMARK                            x       y       z     vdW  Elec       q    Type
REMARK                         _______ _______ _______ _____ _____    ______ ____
ROOT
ATOM      1  C   UNL     1      47.745   8.139  13.084  0.00  0.00    +0.000 C 
ENDROOT
BRANCH   1   2
ATOM      2  N   UNL     1      48.333   8.556  11.784  0.00  0.00    +0.000 NA
ATOM      3  H   UNL     1      48.944   7.817  11.445  0.00  0.00    +0.000 HD
ATOM      4  H   UNL     1      48.934   9.365  11.969  0.00  0.00    +0.000 HD
ENDBRANCH   1   2
BRANCH   1   5
ATOM      5  C   UNL     1      48.374   6.816  13.556  0.00  0.00    +0.000 C 
ATOM      6  O   UNL     1      48.799   6.015  12.715  0.00  0.00    +0.000 OA
BRANCH   5   7
ATOM      7  C   UNL     1      48.509   6.488  14.995  0.00  0.00    +0.000 A 
ATOM      8  C   UNL     1      49.089   7.426  15.842  0.00  0.00    +0.000 A 
ATOM      9  S   UNL     1      49.046   6.992  17.488  0.00  0.00    +0.000 S 
ATOM     10  C   UNL     1      48.248   5.535  17.133  0.00  0.00    +0.000 A 
ATOM     11  N   UNL     1      47.831   4.710  18.133  0.00  0.00    +0.000 NA
ATOM     12  C   UNL     1      47.158   3.683  17.731  0.00  0.00    +0.000 A 
ATOM     13  N   UNL     1      46.910   3.381  16.420  0.00  0.00    +0.000 N 
ATOM     14  C   UNL     1      47.525   4.053  15.394  0.00  0.00    +0.000 A 
ATOM     15  O   UNL     1      47.625   3.535  14.289  0.00  0.00    +0.000 OA
ATOM     16  C   UNL     1      48.099   5.335  15.770  0.00  0.00    +0.000 A 
ATOM     17  H   UNL     1      46.484   2.501  16.173  0.00  0.00    +0.000 HD
ENDBRANCH   5   7
ENDBRANCH   1   5
BRANCH   1  18
ATOM     18  C   UNL     1      46.206   8.030  13.052  0.00  0.00    +0.000 C 
BRANCH  18  19
ATOM     19  C   UNL     1      45.640   6.761  12.454  0.00  0.00    +0.000 A 
ATOM     20  C   UNL     1      45.064   5.780  13.270  0.00  0.00    +0.000 A 
ATOM     21  C   UNL     1      44.522   4.624  12.708  0.00  0.00    +0.000 A 
ATOM     22  C   UNL     1      44.548   4.423  11.321  0.00  0.00    +0.000 A 
ATOM     23  C   UNL     1      45.134   5.399  10.507  0.00  0.00    +0.000 A 
ATOM     24  C   UNL     1      45.670   6.558  11.069  0.00  0.00    +0.000 A 
BRANCH  22  25
ATOM     25  C   UNL     1      43.941   3.180  10.718  0.00  0.00    +0.000 C 
BRANCH  25  26
ATOM     26  N   UNL     1      44.383   3.028   9.336  0.00  0.00    +0.000 NA
ATOM     27  H   UNL     1      44.859   3.882   9.045  0.00  0.00    +0.000 HD
BRANCH  26  28
ATOM     28  C   UNL     1      45.274   1.889   9.161  0.00  0.00    +0.000 C 
BRANCH  28  29
ATOM     29  C   UNL     1      46.126   2.081   7.938  0.00  0.00    +0.000 A 
ATOM     30  C   UNL     1      46.064   3.260   7.181  0.00  0.00    +0.000 A 
ATOM     31  C   UNL     1      46.885   3.413   6.069  0.00  0.00    +0.000 A 
ATOM     32  C   UNL     1      47.740   2.375   5.741  0.00  0.00    +0.000 A 
ATOM     33  N   UNL     1      47.824   1.220   6.435  0.00  0.00    +0.000 NA
ATOM     34  C   UNL     1      47.017   1.102   7.512  0.00  0.00    +0.000 A 
ENDBRANCH  28  29
ENDBRANCH  26  28
ENDBRANCH  25  26
ENDBRANCH  22  25
ENDBRANCH  18  19
ENDBRANCH   1  18
TORSDOF 9
ENDMDL
MODEL 2
REMARK VINA RESULT:    -7.965      2.687      3.457
REMARK INTER + INTRA:         -13.371
REMARK INTER:                 -13.022
REMARK INTRA:                  -0.349
REMARK UNBOUND:                -1.448
REMARK  Name = 
REMARK  9 active torsions:
REMARK  status: ('A' for Active; 'I' for Inactive)
REMARK    1  A    between atoms: N_1  and  C_2
REMARK    2  A    between atoms: C_2  and  C_3
REMARK    3  A    between atoms: C_2  and  C_19
REMARK    4  A    between atoms: C_3  and  C_4
REMARK    5  A    between atoms: C_7  and  C_8
REMARK    6  A    between atoms: C_8  and  N_9
REMARK    7  A    between atoms: N_9  and  C_10
REMARK    8  A    between atoms: C_10  and  C_11
REMARK    9  A    between atoms: C_19  and  C_21
REMARK                            x       y       z     vdW  Elec       q    Type
REMARK                         _______ _______ _______ _____ _____    ______ ____
ROOT
ATOM      1  C   UNL     1      47.851   4.288  16.174  0.00  0.00    +0.000 C 
ENDROOT
BRANCH   1   2
ATOM      2  N   UNL     1      46.566   3.774  16.717  0.00  0.00    +0.000 NA
ATOM      3  H   UNL     1      45.882   3.732  15.964  0.00  0.00    +0.000 HD
ATOM      4  H   UNL     1      46.218   4.469  17.384  0.00  0.00    +0.000 HD
ENDBRANCH   1   2
BRANCH   1   5
ATOM      5  C   UNL     1      48.697   4.910  17.299  0.00  0.00    +0.000 C 
ATOM      6  O   UNL     1      48.171   5.720  18.072  0.00  0.00    +0.000 OA
BRANCH   5   7
ATOM      7  C   UNL     1      50.119   4.543  17.498  0.00  0.00    +0.000 A 
ATOM      8  C   UNL     1      51.016   5.534  17.881  0.00  0.00    +0.000 A 
ATOM      9  S   UNL     1      52.580   4.956  18.225  0.00  0.00    +0.000 S 
ATOM     10  C   UNL     1      52.119   3.358  17.877  0.00  0.00    +0.000 A 
ATOM     11  N   UNL     1      52.990   2.328  18.061  0.00  0.00    +0.000 NA
ATOM     12  C   UNL     1      52.485   1.159  17.847  0.00  0.00    +0.000 A 
ATOM     13  N   UNL     1      51.206   0.931  17.418  0.00  0.00    +0.000 N 
ATOM     14  C   UNL     1      50.393   1.951  16.991  0.00  0.00    +0.000 A 
ATOM     15  O   UNL     1      49.449   1.717  16.247  0.00  0.00    +0.000 OA
ATOM     16  C   UNL     1      50.815   3.276  17.414  0.00  0.00    +0.000 A 
ATOM     17  H   UNL     1      50.916   0.001  17.155  0.00  0.00    +0.000 HD
ENDBRANCH   5   7
ENDBRANCH   1   5
BRANCH   1  18
ATOM     18  C   UNL     1      47.668   5.287  15.013  0.00  0.00    +0.000 C 
BRANCH  18  19
ATOM     19  C   UNL     1      46.712   4.869  13.918  0.00  0.00    +0.000 A 
ATOM     20  C   UNL     1      46.635   3.533  13.506  0.00  0.00    +0.000 A 
ATOM     21  C   UNL     1      45.733   3.152  12.514  0.00  0.00    +0.000 A 
ATOM     22  C   UNL     1      44.891   4.097  11.910  0.00  0.00    +0.000 A 
ATOM     23  C   UNL     1      44.975   5.434  12.316  0.00  0.00    +0.000 A 
ATOM     24  C   UNL     1      45.874   5.814  13.313  0.00  0.00    +0.000 A 
BRANCH  22  25
ATOM     25  C   UNL     1      43.901   3.674  10.853  0.00  0.00    +0.000 C 
BRANCH  25  26
ATOM     26  N   UNL     1      44.556   3.620   9.550  0.00  0.00    +0.000 NA
ATOM     27  H   UNL     1      45.421   4.159   9.591  0.00  0.00    +0.000 HD
BRANCH  26  28
ATOM     28  C   UNL     1      44.851   2.255   9.134  0.00  0.00    +0.000 C 
BRANCH  28  29
ATOM     29  C   UNL     1      45.860   2.261   8.020  0.00  0.00    +0.000 A 
ATOM     30  C   UNL     1      45.946   3.331   7.116  0.00  0.00    +0.000 A 
ATOM     31  C   UNL     1      46.909   3.313   6.112  0.00  0.00    +0.000 A 
ATOM     32  C   UNL     1      47.753   2.219   6.036  0.00  0.00    +0.000 A 
ATOM     33  N   UNL     1      47.698   1.164   6.878  0.00  0.00    +0.000 NA
ATOM     34  C   UNL     1      46.756   1.211   7.845  0.00  0.00    +0.000 A 
ENDBRANCH  28  29
ENDBRANCH  26  28
ENDBRANCH  25  26
ENDBRANCH  22  25
ENDBRANCH  18  19
ENDBRANCH   1  18
TORSDOF 9
ENDMDL
MODEL 3
REMARK VINA RESULT:    -7.856      3.331      4.800
REMARK INTER + INTRA:         -13.207
REMARK INTER:                 -11.476
REMARK INTRA:                  -1.731
REMARK UNBOUND:                -1.448
REMARK  Name = 
REMARK  9 active torsions:
REMARK  status: ('A' for Active; 'I' for Inactive)
REMARK    1  A    between atoms: N_1  and  C_2
REMARK    2  A    between atoms: C_2  and  C_3
REMARK    3  A    between atoms: C_2  and  C_19
REMARK    4  A    between atoms: C_3  and  C_4
REMARK    5  A    between atoms: C_7  and  C_8
REMARK    6  A    between atoms: C_8  and  N_9
REMARK    7  A    between atoms: N_9  and  C_10
REMARK    8  A    between atoms: C_10  and  C_11
REMARK    9  A    between atoms: C_19  and  C_21
REMARK                            x       y       z     vdW  Elec       q    Type
REMARK                         _______ _______ _______ _____ _____    ______ ____
ROOT
ATOM      1  C   UNL     1      48.763   7.859  11.943  0.00  0.00    +0.000 C 
ENDROOT
BRANCH   1   2
ATOM      2  N   UNL     1      50.183   7.525  11.657  0.00  0.00    +0.000 NA
ATOM      3  H   UNL     1      50.776   8.271  12.013  0.00  0.00    +0.000 HD
ATOM      4  H   UNL     1      50.295   7.528  10.638  0.00  0.00    +0.000 HD
ENDBRANCH   1   2
BRANCH   1   5
ATOM      5  C   UNL     1      48.644   9.307  12.448  0.00  0.00    +0.000 C 
ATOM      6  O   UNL     1      49.340   9.672  13.405  0.00  0.00    +0.000 OA
BRANCH   5   7
ATOM      7  C   UNL     1      47.739  10.286  11.802  0.00  0.00    +0.000 A 
ATOM      8  C   UNL     1      48.296  11.362  11.119  0.00  0.00    +0.000 A 
ATOM      9  S   UNL     1      47.158  12.323  10.295  0.00  0.00    +0.000 S 
ATOM     10  C   UNL     1      45.875  11.338  10.817  0.00  0.00    +0.000 A 
ATOM     11  N   UNL     1      44.605  11.565  10.385  0.00  0.00    +0.000 NA
ATOM     12  C   UNL     1      43.742  10.691  10.783  0.00  0.00    +0.000 A 
ATOM     13  N   UNL     1      44.026   9.642  11.614  0.00  0.00    +0.000 N 
ATOM     14  C   UNL     1      45.232   9.535  12.258  0.00  0.00    +0.000 A 
ATOM     15  O   UNL     1      45.331   8.862  13.277  0.00  0.00    +0.000 OA
ATOM     16  C   UNL     1      46.296  10.343  11.685  0.00  0.00    +0.000 A 
ATOM     17  H   UNL     1      43.281   9.069  11.983  0.00  0.00    +0.000 HD
ENDBRANCH   5   7
ENDBRANCH   1   5
BRANCH   1  18
ATOM     18  C   UNL     1      48.092   6.881  12.930  0.00  0.00    +0.000 C 
BRANCH  18  19
ATOM     19  C   UNL     1      46.982   6.022  12.366  0.00  0.00    +0.000 A 
ATOM     20  C   UNL     1      46.439   4.971  13.115  0.00  0.00    +0.000 A 
ATOM     21  C   UNL     1      45.399   4.199  12.598  0.00  0.00    +0.000 A 
ATOM     22  C   UNL     1      44.882   4.460  11.321  0.00  0.00    +0.000 A 
ATOM     23  C   UNL     1      45.431   5.505  10.569  0.00  0.00    +0.000 A 
ATOM     24  C   UNL     1      46.468   6.280  11.090  0.00  0.00    +0.000 A 
BRANCH  22  25
ATOM     25  C   UNL     1      43.741   3.636  10.776  0.00  0.00    +0.000 C 
BRANCH  25  26
ATOM     26  N   UNL     1      43.991   3.300   9.378  0.00  0.00    +0.000 NA
ATOM     27  H   UNL     1      44.531   4.051   8.948  0.00  0.00    +0.000 HD
BRANCH  26  28
ATOM     28  C   UNL     1      44.707   2.040   9.231  0.00  0.00    +0.000 C 
BRANCH  28  29
ATOM     29  C   UNL     1      45.799   2.181   8.207  0.00  0.00    +0.000 A 
ATOM     30  C   UNL     1      46.017   3.392   7.533  0.00  0.00    +0.000 A 
ATOM     31  C   UNL     1      47.052   3.493   6.610  0.00  0.00    +0.000 A 
ATOM     32  C   UNL     1      47.834   2.375   6.380  0.00  0.00    +0.000 A 
ATOM     33  N   UNL     1      47.652   1.187   6.998  0.00  0.00    +0.000 NA
ATOM     34  C   UNL     1      46.642   1.121   7.893  0.00  0.00    +0.000 A 
ENDBRANCH  28  29
ENDBRANCH  26  28
ENDBRANCH  25  26
ENDBRANCH  22  25
ENDBRANCH  18  19
ENDBRANCH   1  18
TORSDOF 9
ENDMDL
MODEL 4
REMARK VINA RESULT:    -7.680      2.048      2.756
REMARK INTER + INTRA:         -12.943
REMARK INTER:                 -11.476
REMARK INTRA:                  -1.467
REMARK UNBOUND:                -1.448
REMARK  Name = 
REMARK  9 active torsions:
REMARK  status: ('A' for Active; 'I' for Inactive)
REMARK    1  A    between atoms: N_1  and  C_2
REMARK    2  A    between atoms: C_2  and  C_3
REMARK    3  A    between atoms: C_2  and  C_19
REMARK    4  A    between atoms: C_3  and  C_4
REMARK    5  A    between atoms: C_7  and  C_8
REMARK    6  A    between atoms: C_8  and  N_9
REMARK    7  A    between atoms: N_9  and  C_10
REMARK    8  A    between atoms: C_10  and  C_11
REMARK    9  A    between atoms: C_19  and  C_21
REMARK                            x       y       z     vdW  Elec       q    Type
REMARK                         _______ _______ _______ _____ _____    ______ ____
ROOT
ATOM      1  C   UNL     1      47.703   7.319  14.425  0.00  0.00    +0.000 C 
ENDROOT
BRANCH   1   2
ATOM      2  N   UNL     1      47.521   8.787  14.573  0.00  0.00    +0.000 NA
ATOM      3  H   UNL     1      46.934   9.126  13.814  0.00  0.00    +0.000 HD
ATOM      4  H   UNL     1      48.440   9.221  14.443  0.00  0.00    +0.000 HD
ENDBRANCH   1   2
BRANCH   1   5
ATOM      5  C   UNL     1      48.884   6.836  15.284  0.00  0.00    +0.000 C 
ATOM      6  O   UNL     1      50.032   6.910  14.829  0.00  0.00    +0.000 OA
BRANCH   5   7
ATOM      7  C   UNL     1      48.686   6.309  16.655  0.00  0.00    +0.000 A 
ATOM      8  C   UNL     1      48.752   4.935  16.858  0.00  0.00    +0.000 A 
ATOM      9  S   UNL     1      48.662   4.471  18.494  0.00  0.00    +0.000 S 
ATOM     10  C   UNL     1      48.533   6.090  18.996  0.00  0.00    +0.000 A 
ATOM     11  N   UNL     1      48.508   6.406  20.319  0.00  0.00    +0.000 NA
ATOM     12  C   UNL     1      48.500   7.674  20.564  0.00  0.00    +0.000 A 
ATOM     13  N   UNL     1      48.465   8.650  19.606  0.00  0.00    +0.000 N 
ATOM     14  C   UNL     1      48.240   8.359  18.284  0.00  0.00    +0.000 A 
ATOM     15  O   UNL     1      47.808   9.219  17.527  0.00  0.00    +0.000 OA
ATOM     16  C   UNL     1      48.465   6.968  17.926  0.00  0.00    +0.000 A 
ATOM     17  H   UNL     1      48.338   9.616  19.868  0.00  0.00    +0.000 HD
ENDBRANCH   5   7
ENDBRANCH   1   5
BRANCH   1  18
ATOM     18  C   UNL     1      47.875   6.868  12.959  0.00  0.00    +0.000 C 
BRANCH  18  19
ATOM     19  C   UNL     1      46.784   5.980  12.403  0.00  0.00    +0.000 A 
ATOM     20  C   UNL     1      46.232   6.229  11.141  0.00  0.00    +0.000 A 
ATOM     21  C   UNL     1      45.244   5.392  10.624  0.00  0.00    +0.000 A 
ATOM     22  C   UNL     1      44.784   4.290  11.360  0.00  0.00    +0.000 A 
ATOM     23  C   UNL     1      45.329   4.048  12.627  0.00  0.00    +0.000 A 
ATOM     24  C   UNL     1      46.322   4.883  13.140  0.00  0.00    +0.000 A 
BRANCH  22  25
ATOM     25  C   UNL     1      43.731   3.375  10.787  0.00  0.00    +0.000 C 
BRANCH  25  26
ATOM     26  N   UNL     1      44.002   3.124   9.375  0.00  0.00    +0.000 NA
ATOM     27  H   UNL     1      44.533   3.908   8.996  0.00  0.00    +0.000 HD
BRANCH  26  28
ATOM     28  C   UNL     1      44.741   1.887   9.164  0.00  0.00    +0.000 C 
BRANCH  28  29
ATOM     29  C   UNL     1      45.828   2.100   8.148  0.00  0.00    +0.000 A 
ATOM     30  C   UNL     1      45.994   3.335   7.503  0.00  0.00    +0.000 A 
ATOM     31  C   UNL     1      47.027   3.503   6.586  0.00  0.00    +0.000 A 
ATOM     32  C   UNL     1      47.860   2.427   6.335  0.00  0.00    +0.000 A 
ATOM     33  N   UNL     1      47.729   1.219   6.926  0.00  0.00    +0.000 NA
ATOM     34  C   UNL     1      46.720   1.086   7.814  0.00  0.00    +0.000 A 
ENDBRANCH  28  29
ENDBRANCH  26  28
ENDBRANCH  25  26
ENDBRANCH  22  25
ENDBRANCH  18  19
ENDBRANCH   1  18
TORSDOF 9
ENDMDL
MODEL 5
REMARK VINA RESULT:    -7.671      2.824      3.753
REMARK INTER + INTRA:         -12.931
REMARK INTER:                 -12.082
REMARK INTRA:                  -0.849
REMARK UNBOUND:                -1.448
REMARK  Name = 
REMARK  9 active torsions:
REMARK  status: ('A' for Active; 'I' for Inactive)
REMARK    1  A    between atoms: N_1  and  C_2
REMARK    2  A    between atoms: C_2  and  C_3
REMARK    3  A    between atoms: C_2  and  C_19
REMARK    4  A    between atoms: C_3  and  C_4
REMARK    5  A    between atoms: C_7  and  C_8
REMARK    6  A    between atoms: C_8  and  N_9
REMARK    7  A    between atoms: N_9  and  C_10
REMARK    8  A    between atoms: C_10  and  C_11
REMARK    9  A    between atoms: C_19  and  C_21
REMARK                            x       y       z     vdW  Elec       q    Type
REMARK                         _______ _______ _______ _____ _____    ______ ____
ROOT
ATOM      1  C   UNL     1      47.990   5.712  17.010  0.00  0.00    +0.000 C 
ENDROOT
BRANCH   1   2
ATOM      2  N   UNL     1      48.055   6.974  17.791  0.00  0.00    +0.000 NA
ATOM      3  H   UNL     1      48.065   7.762  17.148  0.00  0.00    +0.000 HD
ATOM      4  H   UNL     1      48.958   6.986  18.275  0.00  0.00    +0.000 HD
ENDBRANCH   1   2
BRANCH   1   5
ATOM      5  C   UNL     1      48.555   4.542  17.833  0.00  0.00    +0.000 C 
ATOM      6  O   UNL     1      47.773   3.769  18.401  0.00  0.00    +0.000 OA
BRANCH   5   7
ATOM      7  C   UNL     1      50.013   4.298  17.943  0.00  0.00    +0.000 A 
ATOM      8  C   UNL     1      50.814   5.285  18.506  0.00  0.00    +0.000 A 
ATOM      9  S   UNL     1      52.439   4.822  18.715  0.00  0.00    +0.000 S 
ATOM     10  C   UNL     1      52.135   3.283  18.062  0.00  0.00    +0.000 A 
ATOM     11  N   UNL     1      53.113   2.336  18.031  0.00  0.00    +0.000 NA
ATOM     12  C   UNL     1      52.726   1.184  17.595  0.00  0.00    +0.000 A 
ATOM     13  N   UNL     1      51.465   0.909  17.141  0.00  0.00    +0.000 N 
ATOM     14  C   UNL     1      50.539   1.899  16.931  0.00  0.00    +0.000 A 
ATOM     15  O   UNL     1      49.601   1.716  16.165  0.00  0.00    +0.000 OA
ATOM     16  C   UNL     1      50.833   3.154  17.604  0.00  0.00    +0.000 A 
ATOM     17  H   UNL     1      51.264   0.023  16.702  0.00  0.00    +0.000 HD
ENDBRANCH   5   7
ENDBRANCH   1   5
BRANCH   1  18
ATOM     18  C   UNL     1      48.694   5.804  15.639  0.00  0.00    +0.000 C 
BRANCH  18  19
ATOM     19  C   UNL     1      47.797   5.726  14.424  0.00  0.00    +0.000 A 
ATOM     20  C   UNL     1      46.900   4.664  14.263  0.00  0.00    +0.000 A 
ATOM     21  C   UNL     1      46.059   4.613  13.152  0.00  0.00    +0.000 A 
ATOM     22  C   UNL     1      46.100   5.620  12.176  0.00  0.00    +0.000 A 
ATOM     23  C   UNL     1      47.005   6.676  12.333  0.00  0.00    +0.000 A 
ATOM     24  C   UNL     1      47.841   6.730  13.448  0.00  0.00    +0.000 A 
BRANCH  22  25
ATOM     25  C   UNL     1      45.172   5.570  10.987  0.00  0.00    +0.000 C 
BRANCH  25  26
ATOM     26  N   UNL     1      44.898   4.183  10.626  0.00  0.00    +0.000 NA
ATOM     27  H   UNL     1      44.169   3.819  11.240  0.00  0.00    +0.000 HD
BRANCH  26  28
ATOM     28  C   UNL     1      44.479   4.045   9.237  0.00  0.00    +0.000 C 
BRANCH  28  29
ATOM     29  C   UNL     1      45.440   3.160   8.494  0.00  0.00    +0.000 A 
ATOM     30  C   UNL     1      46.317   3.680   7.530  0.00  0.00    +0.000 A 
ATOM     31  C   UNL     1      47.210   2.835   6.879  0.00  0.00    +0.000 A 
ATOM     32  C   UNL     1      47.192   1.490   7.206  0.00  0.00    +0.000 A 
ATOM     33  N   UNL     1      46.358   0.946   8.118  0.00  0.00    +0.000 NA
ATOM     34  C   UNL     1      45.506   1.792   8.737  0.00  0.00    +0.000 A 
ENDBRANCH  28  29
ENDBRANCH  26  28
ENDBRANCH  25  26
ENDBRANCH  22  25
ENDBRANCH  18  19
ENDBRANCH   1  18
TORSDOF 9
ENDMDL
MODEL 6
REMARK VINA RESULT:    -7.595      1.445      1.904
REMARK INTER + INTRA:         -12.816
REMARK INTER:                 -11.537
REMARK INTRA:                  -1.279
REMARK UNBOUND:                -1.448
REMARK  Name = 
REMARK  9 active torsions:
REMARK  status: ('A' for Active; 'I' for Inactive)
REMARK    1  A    between atoms: N_1  and  C_2
REMARK    2  A    between atoms: C_2  and  C_3
REMARK    3  A    between atoms: C_2  and  C_19
REMARK    4  A    between atoms: C_3  and  C_4
REMARK    5  A    between atoms: C_7  and  C_8
REMARK    6  A    between atoms: C_8  and  N_9
REMARK    7  A    between atoms: N_9  and  C_10
REMARK    8  A    between atoms: C_10  and  C_11
REMARK    9  A    between atoms: C_19  and  C_21
REMARK                            x       y       z     vdW  Elec       q    Type
REMARK                         _______ _______ _______ _____ _____    ______ ____
ROOT
ATOM      1  C   UNL     1      47.732   7.638  14.189  0.00  0.00    +0.000 C 
ENDROOT
BRANCH   1   2
ATOM      2  N   UNL     1      46.876   8.840  14.010  0.00  0.00    +0.000 NA
ATOM      3  H   UNL     1      46.533   8.862  13.053  0.00  0.00    +0.000 HD
ATOM      4  H   UNL     1      47.479   9.660  14.120  0.00  0.00    +0.000 HD
ENDBRANCH   1   2
BRANCH   1   5
ATOM      5  C   UNL     1      49.048   8.016  14.891  0.00  0.00    +0.000 C 
ATOM      6  O   UNL     1      49.974   8.490  14.221  0.00  0.00    +0.000 OA
BRANCH   5   7
ATOM      7  C   UNL     1      49.227   7.853  16.353  0.00  0.00    +0.000 A 
ATOM      8  C   UNL     1      49.760   8.910  17.082  0.00  0.00    +0.000 A 
ATOM      9  S   UNL     1      49.771   8.654  18.765  0.00  0.00    +0.000 S 
ATOM     10  C   UNL     1      49.062   7.120  18.585  0.00  0.00    +0.000 A 
ATOM     11  N   UNL     1      48.714   6.383  19.676  0.00  0.00    +0.000 NA
ATOM     12  C   UNL     1      48.103   5.280  19.401  0.00  0.00    +0.000 A 
ATOM     13  N   UNL     1      47.853   4.824  18.135  0.00  0.00    +0.000 N 
ATOM     14  C   UNL     1      48.407   5.419  17.030  0.00  0.00    +0.000 A 
ATOM     15  O   UNL     1      48.522   4.792  15.984  0.00  0.00    +0.000 OA
ATOM     16  C   UNL     1      48.904   6.767  17.254  0.00  0.00    +0.000 A 
ATOM     17  H   UNL     1      47.480   3.898  17.992  0.00  0.00    +0.000 HD
ENDBRANCH   5   7
ENDBRANCH   1   5
BRANCH   1  18
ATOM     18  C   UNL     1      48.013   6.885  12.872  0.00  0.00    +0.000 C 
BRANCH  18  19
ATOM     19  C   UNL     1      46.898   6.001  12.358  0.00  0.00    +0.000 A 
ATOM     20  C   UNL     1      46.291   6.260  11.123  0.00  0.00    +0.000 A 
ATOM     21  C   UNL     1      45.280   5.426  10.645  0.00  0.00    +0.000 A 
ATOM     22  C   UNL     1      44.853   4.320  11.393  0.00  0.00    +0.000 A 
ATOM     23  C   UNL     1      45.452   4.068  12.632  0.00  0.00    +0.000 A 
ATOM     24  C   UNL     1      46.468   4.899  13.107  0.00  0.00    +0.000 A 
BRANCH  22  25
ATOM     25  C   UNL     1      43.774   3.409  10.860  0.00  0.00    +0.000 C 
BRANCH  25  26
ATOM     26  N   UNL     1      44.016   3.120   9.451  0.00  0.00    +0.000 NA
ATOM     27  H   UNL     1      44.508   3.909   9.030  0.00  0.00    +0.000 HD
BRANCH  26  28
ATOM     28  C   UNL     1      44.794   1.903   9.261  0.00  0.00    +0.000 C 
BRANCH  28  29
ATOM     29  C   UNL     1      45.835   2.115   8.197  0.00  0.00    +0.000 A 
ATOM     30  C   UNL     1      45.984   3.354   7.556  0.00  0.00    +0.000 A 
ATOM     31  C   UNL     1      46.974   3.521   6.593  0.00  0.00    +0.000 A 
ATOM     32  C   UNL     1      47.781   2.438   6.292  0.00  0.00    +0.000 A 
ATOM     33  N   UNL     1      47.665   1.226   6.876  0.00  0.00    +0.000 NA
ATOM     34  C   UNL     1      46.698   1.095   7.810  0.00  0.00    +0.000 A 
ENDBRANCH  28  29
ENDBRANCH  26  28
ENDBRANCH  25  26
ENDBRANCH  22  25
ENDBRANCH  18  19
ENDBRANCH   1  18
TORSDOF 9
ENDMDL
MODEL 7
REMARK VINA RESULT:    -7.382      2.177      2.973
REMARK INTER + INTRA:         -12.498
REMARK INTER:                 -11.923
REMARK INTRA:                  -0.575
REMARK UNBOUND:                -1.448
REMARK  Name = 
REMARK  9 active torsions:
REMARK  status: ('A' for Active; 'I' for Inactive)
REMARK    1  A    between atoms: N_1  and  C_2
REMARK    2  A    between atoms: C_2  and  C_3
REMARK    3  A    between atoms: C_2  and  C_19
REMARK    4  A    between atoms: C_3  and  C_4
REMARK    5  A    between atoms: C_7  and  C_8
REMARK    6  A    between atoms: C_8  and  N_9
REMARK    7  A    between atoms: N_9  and  C_10
REMARK    8  A    between atoms: C_10  and  C_11
REMARK    9  A    between atoms: C_19  and  C_21
REMARK                            x       y       z     vdW  Elec       q    Type
REMARK                         _______ _______ _______ _____ _____    ______ ____
ROOT
ATOM      1  C   UNL     1      47.803   4.421  15.095  0.00  0.00    +0.000 C 
ENDROOT
BRANCH   1   2
ATOM      2  N   UNL     1      47.358   3.149  14.470  0.00  0.00    +0.000 NA
ATOM      3  H   UNL     1      46.604   3.347  13.817  0.00  0.00    +0.000 HD
ATOM      4  H   UNL     1      46.951   2.572  15.213  0.00  0.00    +0.000 HD
ENDBRANCH   1   2
BRANCH   1   5
ATOM      5  C   UNL     1      47.596   4.372  16.619  0.00  0.00    +0.000 C 
ATOM      6  O   UNL     1      46.695   3.662  17.083  0.00  0.00    +0.000 OA
BRANCH   5   7
ATOM      7  C   UNL     1      48.466   5.131  17.548  0.00  0.00    +0.000 A 
ATOM      8  C   UNL     1      48.022   6.360  18.023  0.00  0.00    +0.000 A 
ATOM      9  S   UNL     1      49.040   7.056  19.198  0.00  0.00    +0.000 S 
ATOM     10  C   UNL     1      50.112   5.740  19.119  0.00  0.00    +0.000 A 
ATOM     11  N   UNL     1      51.182   5.665  19.957  0.00  0.00    +0.000 NA
ATOM     12  C   UNL     1      51.863   4.573  19.856  0.00  0.00    +0.000 A 
ATOM     13  N   UNL     1      51.599   3.573  18.959  0.00  0.00    +0.000 N 
ATOM     14  C   UNL     1      50.688   3.731  17.946  0.00  0.00    +0.000 A 
ATOM     15  O   UNL     1      50.754   3.034  16.942  0.00  0.00    +0.000 OA
ATOM     16  C   UNL     1      49.750   4.825  18.143  0.00  0.00    +0.000 A 
ATOM     17  H   UNL     1      52.243   2.803  18.853  0.00  0.00    +0.000 HD
ENDBRANCH   5   7
ENDBRANCH   1   5
BRANCH   1  18
ATOM     18  C   UNL     1      47.123   5.669  14.493  0.00  0.00    +0.000 C 
BRANCH  18  19
ATOM     19  C   UNL     1      46.210   5.426  13.312  0.00  0.00    +0.000 A 
ATOM     20  C   UNL     1      45.023   4.698  13.463  0.00  0.00    +0.000 A 
ATOM     21  C   UNL     1      44.174   4.499  12.375  0.00  0.00    +0.000 A 
ATOM     22  C   UNL     1      44.495   5.020  11.113  0.00  0.00    +0.000 A 
ATOM     23  C   UNL     1      45.686   5.739  10.961  0.00  0.00    +0.000 A 
ATOM     24  C   UNL     1      46.532   5.943  12.052  0.00  0.00    +0.000 A 
BRANCH  22  25
ATOM     25  C   UNL     1      43.561   4.820   9.944  0.00  0.00    +0.000 C 
BRANCH  25  26
ATOM     26  N   UNL     1      44.297   4.288   8.803  0.00  0.00    +0.000 NA
ATOM     27  H   UNL     1      45.115   4.873   8.633  0.00  0.00    +0.000 HD
BRANCH  26  28
ATOM     28  C   UNL     1      44.720   2.909   9.011  0.00  0.00    +0.000 C 
BRANCH  28  29
ATOM     29  C   UNL     1      45.766   2.531   8.000  0.00  0.00    +0.000 A 
ATOM     30  C   UNL     1      46.155   3.415   6.982  0.00  0.00    +0.000 A 
ATOM     31  C   UNL     1      47.144   3.040   6.080  0.00  0.00    +0.000 A 
ATOM     32  C   UNL     1      47.711   1.785   6.216  0.00  0.00    +0.000 A 
ATOM     33  N   UNL     1      47.359   0.899   7.173  0.00  0.00    +0.000 NA
ATOM     34  C   UNL     1      46.400   1.292   8.038  0.00  0.00    +0.000 A 
ENDBRANCH  28  29
ENDBRANCH  26  28
ENDBRANCH  25  26
ENDBRANCH  22  25
ENDBRANCH  18  19
ENDBRANCH   1  18
TORSDOF 9
ENDMDL
MODEL 8
REMARK VINA RESULT:    -7.361      2.711      3.693
REMARK INTER + INTRA:         -12.467
REMARK INTER:                 -11.368
REMARK INTRA:                  -1.099
REMARK UNBOUND:                -1.448
REMARK  Name = 
REMARK  9 active torsions:
REMARK  status: ('A' for Active; 'I' for Inactive)
REMARK    1  A    between atoms: N_1  and  C_2
REMARK    2  A    between atoms: C_2  and  C_3
REMARK    3  A    between atoms: C_2  and  C_19
REMARK    4  A    between atoms: C_3  and  C_4
REMARK    5  A    between atoms: C_7  and  C_8
REMARK    6  A    between atoms: C_8  and  N_9
REMARK    7  A    between atoms: N_9  and  C_10
REMARK    8  A    between atoms: C_10  and  C_11
REMARK    9  A    between atoms: C_19  and  C_21
REMARK                            x       y       z     vdW  Elec       q    Type
REMARK                         _______ _______ _______ _____ _____    ______ ____
ROOT
ATOM      1  C   UNL     1      47.431   5.148  15.790  0.00  0.00    +0.000 C 
ENDROOT
BRANCH   1   2
ATOM      2  N   UNL     1      48.265   6.373  15.678  0.00  0.00    +0.000 NA
ATOM      3  H   UNL     1      49.247   6.108  15.701  0.00  0.00    +0.000 HD
ATOM      4  H   UNL     1      48.098   6.932  16.520  0.00  0.00    +0.000 HD
ENDBRANCH   1   2
BRANCH   1   5
ATOM      5  C   UNL     1      47.750   4.400  17.096  0.00  0.00    +0.000 C 
ATOM      6  O   UNL     1      46.862   4.262  17.946  0.00  0.00    +0.000 OA
BRANCH   5   7
ATOM      7  C   UNL     1      49.088   3.816  17.353  0.00  0.00    +0.000 A 
ATOM      8  C   UNL     1      49.260   2.445  17.193  0.00  0.00    +0.000 A 
ATOM      9  S   UNL     1      50.872   1.925  17.367  0.00  0.00    +0.000 S 
ATOM     10  C   UNL     1      51.404   3.512  17.661  0.00  0.00    +0.000 A 
ATOM     11  N   UNL     1      52.729   3.784  17.809  0.00  0.00    +0.000 NA
ATOM     12  C   UNL     1      53.005   5.039  17.936  0.00  0.00    +0.000 A 
ATOM     13  N   UNL     1      52.072   6.039  17.978  0.00  0.00    +0.000 N 
ATOM     14  C   UNL     1      50.730   5.773  18.079  0.00  0.00    +0.000 A 
ATOM     15  O   UNL     1      49.964   6.621  18.521  0.00  0.00    +0.000 OA
ATOM     16  C   UNL     1      50.354   4.416  17.719  0.00  0.00    +0.000 A 
ATOM     17  H   UNL     1      52.349   6.984  18.200  0.00  0.00    +0.000 HD
ENDBRANCH   5   7
ENDBRANCH   1   5
BRANCH   1  18
ATOM     18  C   UNL     1      47.561   4.205  14.576  0.00  0.00    +0.000 C 
BRANCH  18  19
ATOM     19  C   UNL     1      46.503   4.348  13.505  0.00  0.00    +0.000 A 
ATOM     20  C   UNL     1      46.069   5.614  13.092  0.00  0.00    +0.000 A 
ATOM     21  C   UNL     1      45.111   5.738  12.087  0.00  0.00    +0.000 A 
ATOM     22  C   UNL     1      44.565   4.600  11.475  0.00  0.00    +0.000 A 
ATOM     23  C   UNL     1      44.992   3.335  11.894  0.00  0.00    +0.000 A 
ATOM     24  C   UNL     1      45.956   3.212  12.896  0.00  0.00    +0.000 A 
BRANCH  22  25
ATOM     25  C   UNL     1      43.545   4.742  10.371  0.00  0.00    +0.000 C 
BRANCH  25  26
ATOM     26  N   UNL     1      43.863   3.831   9.277  0.00  0.00    +0.000 NA
ATOM     27  H   UNL     1      43.031   3.700   8.702  0.00  0.00    +0.000 HD
BRANCH  26  28
ATOM     28  C   UNL     1      44.956   4.322   8.448  0.00  0.00    +0.000 C 
BRANCH  28  29
ATOM     29  C   UNL     1      45.784   3.171   7.950  0.00  0.00    +0.000 A 
ATOM     30  C   UNL     1      46.709   3.332   6.907  0.00  0.00    +0.000 A 
ATOM     31  C   UNL     1      47.476   2.250   6.488  0.00  0.00    +0.000 A 
ATOM     32  C   UNL     1      47.289   1.034   7.120  0.00  0.00    +0.000 A 
ATOM     33  N   UNL     1      46.403   0.832   8.120  0.00  0.00    +0.000 NA
ATOM     34  C   UNL     1      45.676   1.902   8.508  0.00  0.00    +0.000 A 
ENDBRANCH  28  29
ENDBRANCH  26  28
ENDBRANCH  25  26
ENDBRANCH  22  25
ENDBRANCH  18  19
ENDBRANCH   1  18
TORSDOF 9
ENDMDL
MODEL 9
REMARK VINA RESULT:    -7.053      2.214      3.430
REMARK INTER + INTRA:         -12.006
REMARK INTER:                 -10.853
REMARK INTRA:                  -1.152
REMARK UNBOUND:                -1.448
REMARK  Name = 
REMARK  9 active torsions:
REMARK  status: ('A' for Active; 'I' for Inactive)
REMARK    1  A    between atoms: N_1  and  C_2
REMARK    2  A    between atoms: C_2  and  C_3
REMARK    3  A    between atoms: C_2  and  C_19
REMARK    4  A    between atoms: C_3  and  C_4
REMARK    5  A    between atoms: C_7  and  C_8
REMARK    6  A    between atoms: C_8  and  N_9
REMARK    7  A    between atoms: N_9  and  C_10
REMARK    8  A    between atoms: C_10  and  C_11
REMARK    9  A    between atoms: C_19  and  C_21
REMARK                            x       y       z     vdW  Elec       q    Type
REMARK                         _______ _______ _______ _____ _____    ______ ____
ROOT
ATOM      1  C   UNL     1      47.747   4.213  15.949  0.00  0.00    +0.000 C 
ENDROOT
BRANCH   1   2
ATOM      2  N   UNL     1      46.532   4.098  16.798  0.00  0.00    +0.000 NA
ATOM      3  H   UNL     1      46.780   4.313  17.761  0.00  0.00    +0.000 HD
ATOM      4  H   UNL     1      46.246   3.114  16.787  0.00  0.00    +0.000 HD
ENDBRANCH   1   2
BRANCH   1   5
ATOM      5  C   UNL     1      49.008   4.301  16.827  0.00  0.00    +0.000 C 
ATOM      6  O   UNL     1      49.601   3.261  17.137  0.00  0.00    +0.000 OA
BRANCH   5   7
ATOM      7  C   UNL     1      49.546   5.602  17.288  0.00  0.00    +0.000 A 
ATOM      8  C   UNL     1      50.808   5.994  16.854  0.00  0.00    +0.000 A 
ATOM      9  S   UNL     1      51.244   7.570  17.329  0.00  0.00    +0.000 S 
ATOM     10  C   UNL     1      49.763   7.790  18.133  0.00  0.00    +0.000 A 
ATOM     11  N   UNL     1      49.452   8.988  18.699  0.00  0.00    +0.000 NA
ATOM     12  C   UNL     1      48.262   9.050  19.196  0.00  0.00    +0.000 A 
ATOM     13  N   UNL     1      47.376   8.007  19.223  0.00  0.00    +0.000 N 
ATOM     14  C   UNL     1      47.751   6.730  18.888  0.00  0.00    +0.000 A 
ATOM     15  O   UNL     1      47.109   5.771  19.296  0.00  0.00    +0.000 OA
ATOM     16  C   UNL     1      48.982   6.645  18.120  0.00  0.00    +0.000 A 
ATOM     17  H   UNL     1      46.510   8.088  19.735  0.00  0.00    +0.000 HD
ENDBRANCH   5   7
ENDBRANCH   1   5
BRANCH   1  18
ATOM     18  C   UNL     1      47.690   5.393  14.956  0.00  0.00    +0.000 C 
BRANCH  18  19
ATOM     19  C   UNL     1      46.754   5.228  13.779  0.00  0.00    +0.000 A 
ATOM     20  C   UNL     1      46.390   6.330  12.995  0.00  0.00    +0.000 A 
ATOM     21  C   UNL     1      45.547   6.166  11.897  0.00  0.00    +0.000 A 
ATOM     22  C   UNL     1      45.047   4.899  11.561  0.00  0.00    +0.000 A 
ATOM     23  C   UNL     1      45.403   3.801  12.351  0.00  0.00    +0.000 A 
ATOM     24  C   UNL     1      46.253   3.964  13.447  0.00  0.00    +0.000 A 
BRANCH  22  25
ATOM     25  C   UNL     1      44.152   4.726  10.358  0.00  0.00    +0.000 C 
BRANCH  25  26
ATOM     26  N   UNL     1      44.933   4.858   9.133  0.00  0.00    +0.000 NA
ATOM     27  H   UNL     1      45.914   4.675   9.344  0.00  0.00    +0.000 HD
BRANCH  26  28
ATOM     28  C   UNL     1      44.482   3.947   8.088  0.00  0.00    +0.000 C 
BRANCH  28  29
ATOM     29  C   UNL     1      45.594   3.014   7.700  0.00  0.00    +0.000 A 
ATOM     30  C   UNL     1      46.533   3.363   6.717  0.00  0.00    +0.000 A 
ATOM     31  C   UNL     1      47.563   2.484   6.401  0.00  0.00    +0.000 A 
ATOM     32  C   UNL     1      47.619   1.275   7.072  0.00  0.00    +0.000 A 
ATOM     33  N   UNL     1      46.731   0.895   8.016  0.00  0.00    +0.000 NA
ATOM     34  C   UNL     1      45.744   1.770   8.305  0.00  0.00    +0.000 A 
ENDBRANCH  28  29
ENDBRANCH  26  28
ENDBRANCH  25  26
ENDBRANCH  22  25
ENDBRANCH  18  19
ENDBRANCH   1  18
TORSDOF 9
ENDMDL
