MODEL 1
REMARK VINA RESULT:    -8.269      0.000      0.000
REMARK INTER + INTRA:         -10.397
REMARK INTER:                 -10.202
REMARK INTRA:                  -0.194
REMARK UNBOUND:                -0.194
REMARK  Name = 
REMARK  4 active torsions:
REMARK  status: ('A' for Active; 'I' for Inactive)
REMARK    1  A    between atoms: C_5  and  N_6
REMARK    2  A    between atoms: N_6  and  C_7
REMARK    3  A    between atoms: C_7  and  C_8
REMARK    4  A    between atoms: C_12  and  C_13
REMARK                            x       y       z     vdW  Elec       q    Type
REMARK                         _______ _______ _______ _____ _____    ______ ____
ROOT
ATOM      1  C   UNL     1      43.951   4.902  11.121  0.00  0.00    +0.000 C 
ATOM      2  C   UNL     1      43.224   3.920  12.038  0.00  0.00    +0.000 C 
ATOM      3  C   UNL     1      42.712   5.310  11.902  0.00  0.00    +0.000 C 
ENDROOT
BRANCH   1   4
ATOM      4  C   UNL     1      45.302   5.421  11.621  0.00  0.00    +0.000 A 
ATOM      5  C   UNL     1      45.947   6.508  11.014  0.00  0.00    +0.000 A 
ATOM      6  C   UNL     1      47.074   7.094  11.588  0.00  0.00    +0.000 A 
ATOM      7  C   UNL     1      47.571   6.612  12.800  0.00  0.00    +0.000 A 
ATOM      8  C   UNL     1      46.982   5.508  13.435  0.00  0.00    +0.000 A 
ATOM      9  C   UNL     1      45.891   4.898  12.791  0.00  0.00    +0.000 A 
BRANCH   8  10
ATOM     10  C   UNL     1      47.406   5.065  14.776  0.00  0.00    +0.000 A 
ATOM     11  C   UNL     1      48.260   5.821  15.592  0.00  0.00    +0.000 A 
ATOM     12  C   UNL     1      48.691   5.322  16.821  0.00  0.00    +0.000 A 
ATOM     13  C   UNL     1      48.250   4.072  17.217  0.00  0.00    +0.000 A 
ATOM     14  N   UNL     1      47.427   3.304  16.476  0.00  0.00    +0.000 NA
ATOM     15  C   UNL     1      47.036   3.815  15.282  0.00  0.00    +0.000 A 
ENDBRANCH   8  10
ENDBRANCH   1   4
BRANCH   1  16
ATOM     16  N   UNL     1      43.866   4.669   9.666  0.00  0.00    +0.000 N 
ATOM     17  H   UNL     1      42.944   4.475   9.275  0.00  0.00    +0.000 HD
BRANCH  16  22
ATOM     18 CL   UNL     1      47.647   1.352   6.743  0.00  0.00    +0.000 Cl
ATOM     19  C   UNL     1      46.559   2.339   7.620  0.00  0.00    +0.000 A 
ATOM     20  C   UNL     1      46.438   3.695   7.387  0.00  0.00    +0.000 A 
ATOM     21  N   UNL     1      45.555   4.484   8.058  0.00  0.00    +0.000 NA
ATOM     22  C   UNL     1      44.784   3.866   8.979  0.00  0.00    +0.000 A 
ATOM     23  C   UNL     1      44.950   2.495   9.218  0.00  0.00    +0.000 A 
ATOM     24  N   UNL     1      45.824   1.699   8.548  0.00  0.00    +0.000 NA
ENDBRANCH  16  22
ENDBRANCH   1  16
TORSDOF 4
ENDMDL
MODEL 2
REMARK VINA RESULT:    -7.808      2.816      4.603
REMARK INTER + INTRA:          -9.829
REMARK INTER:                  -9.663
REMARK INTRA:                  -0.166
REMARK UNBOUND:                -0.194
REMARK  Name = 
REMARK  4 active torsions:
REMARK  status: ('A' for Active; 'I' for Inactive)
REMARK    1  A    between atoms: C_5  and  N_6
REMARK    2  A    between atoms: N_6  and  C_7
REMARK    3  A    between atoms: C_7  and  C_8
REMARK    4  A    between atoms: C_12  and  C_13
REMARK                            x       y       z     vdW  Elec       q    Type
REMARK                         _______ _______ _______ _____ _____    ______ ____
ROOT
ATOM      1  C   UNL     1      43.777   5.120  11.054  0.00  0.00    +0.000 C 
ATOM      2  C   UNL     1      43.404   3.960  11.974  0.00  0.00    +0.000 C 
ATOM      3  C   UNL     1      42.466   5.105  11.823  0.00  0.00    +0.000 C 
ENDROOT
BRANCH   1   4
ATOM      4  C   UNL     1      44.879   6.057  11.558  0.00  0.00    +0.000 A 
ATOM      5  C   UNL     1      46.183   5.602  11.799  0.00  0.00    +0.000 A 
ATOM      6  C   UNL     1      47.221   6.491  12.071  0.00  0.00    +0.000 A 
ATOM      7  C   UNL     1      46.977   7.865  12.088  0.00  0.00    +0.000 A 
ATOM      8  C   UNL     1      45.686   8.373  11.883  0.00  0.00    +0.000 A 
ATOM      9  C   UNL     1      44.650   7.443  11.682  0.00  0.00    +0.000 A 
BRANCH   8  10
ATOM     10  C   UNL     1      45.429   9.820  11.766  0.00  0.00    +0.000 A 
ATOM     11  C   UNL     1      44.167  10.345  11.452  0.00  0.00    +0.000 A 
ATOM     12  C   UNL     1      43.994  11.718  11.278  0.00  0.00    +0.000 A 
ATOM     13  C   UNL     1      45.092  12.546  11.431  0.00  0.00    +0.000 A 
ATOM     14  N   UNL     1      46.326  12.097  11.735  0.00  0.00    +0.000 NA
ATOM     15  C   UNL     1      46.461  10.757  11.886  0.00  0.00    +0.000 A 
ENDBRANCH   8  10
ENDBRANCH   1   4
BRANCH   1  16
ATOM     16  N   UNL     1      43.785   4.864   9.600  0.00  0.00    +0.000 N 
ATOM     17  H   UNL     1      42.885   4.709   9.146  0.00  0.00    +0.000 HD
BRANCH  16  22
ATOM     18 CL   UNL     1      47.592   1.305   7.014  0.00  0.00    +0.000 Cl
ATOM     19  C   UNL     1      46.495   2.361   7.794  0.00  0.00    +0.000 A 
ATOM     20  C   UNL     1      46.491   3.724   7.566  0.00  0.00    +0.000 A 
ATOM     21  N   UNL     1      45.604   4.569   8.158  0.00  0.00    +0.000 NA
ATOM     22  C   UNL     1      44.708   4.002   8.995  0.00  0.00    +0.000 A 
ATOM     23  C   UNL     1      44.755   2.621   9.232  0.00  0.00    +0.000 A 
ATOM     24  N   UNL     1      45.632   1.770   8.640  0.00  0.00    +0.000 NA
ENDBRANCH  16  22
ENDBRANCH   1  16
TORSDOF 4
ENDMDL
MODEL 3
REMARK VINA RESULT:    -7.549      2.866      6.971
REMARK INTER + INTRA:          -9.509
REMARK INTER:                  -8.957
REMARK INTRA:                  -0.552
REMARK UNBOUND:                -0.194
REMARK  Name = 
REMARK  4 active torsions:
REMARK  status: ('A' for Active; 'I' for Inactive)
REMARK    1  A    between atoms: C_5  and  N_6
REMARK    2  A    between atoms: N_6  and  C_7
REMARK    3  A    between atoms: C_7  and  C_8
REMARK    4  A    between atoms: C_12  and  C_13
REMARK                            x       y       z     vdW  Elec       q    Type
REMARK                         _______ _______ _______ _____ _____    ______ ____
ROOT
ATOM      1  C   UNL     1      46.411   7.203  12.557  0.00  0.00    +0.000 C 
ATOM      2  C   UNL     1      46.553   8.597  11.951  0.00  0.00    +0.000 C 
ATOM      3  C   UNL     1      45.850   8.433  13.252  0.00  0.00    +0.000 C 
ENDROOT
BRANCH   1   4
ATOM      4  C   UNL     1      45.413   6.265  11.870  0.00  0.00    +0.000 A 
ATOM      5  C   UNL     1      44.029   6.403  12.044  0.00  0.00    +0.000 A 
ATOM      6  C   UNL     1      43.127   5.674  11.271  0.00  0.00    +0.000 A 
ATOM      7  C   UNL     1      43.595   4.800  10.289  0.00  0.00    +0.000 A 
ATOM      8  C   UNL     1      44.970   4.602  10.094  0.00  0.00    +0.000 A 
ATOM      9  C   UNL     1      45.851   5.300  10.939  0.00  0.00    +0.000 A 
BRANCH   8  10
ATOM     10  C   UNL     1      45.488   3.787   8.978  0.00  0.00    +0.000 A 
ATOM     11  C   UNL     1      45.511   2.386   9.006  0.00  0.00    +0.000 A 
ATOM     12  C   UNL     1      46.081   1.665   7.957  0.00  0.00    +0.000 A 
ATOM     13  C   UNL     1      46.614   2.365   6.889  0.00  0.00    +0.000 A 
ATOM     14  N   UNL     1      46.616   3.710   6.807  0.00  0.00    +0.000 NA
ATOM     15  C   UNL     1      46.064   4.379   7.849  0.00  0.00    +0.000 A 
ENDBRANCH   8  10
ENDBRANCH   1   4
BRANCH   1  16
ATOM     16  N   UNL     1      47.632   6.553  13.073  0.00  0.00    +0.000 N 
ATOM     17  H   UNL     1      48.241   6.095  12.395  0.00  0.00    +0.000 HD
BRANCH  16  22
ATOM     18 CL   UNL     1      47.710   3.265  17.872  0.00  0.00    +0.000 Cl
ATOM     19  C   UNL     1      47.669   4.253  16.475  0.00  0.00    +0.000 A 
ATOM     20  C   UNL     1      48.418   5.409  16.364  0.00  0.00    +0.000 A 
ATOM     21  N   UNL     1      48.414   6.186  15.247  0.00  0.00    +0.000 NA
ATOM     22  C   UNL     1      47.632   5.765  14.230  0.00  0.00    +0.000 A 
ATOM     23  C   UNL     1      46.859   4.606  14.381  0.00  0.00    +0.000 A 
ATOM     24  N   UNL     1      46.861   3.820  15.490  0.00  0.00    +0.000 NA
ENDBRANCH  16  22
ENDBRANCH   1  16
TORSDOF 4
ENDMDL
MODEL 4
REMARK VINA RESULT:    -7.281      3.815      7.135
REMARK INTER + INTRA:          -9.178
REMARK INTER:                  -8.437
REMARK INTRA:                  -0.741
REMARK UNBOUND:                -0.194
REMARK  Name = 
REMARK  4 active torsions:
REMARK  status: ('A' for Active; 'I' for Inactive)
REMARK    1  A    between atoms: C_5  and  N_6
REMARK    2  A    between atoms: N_6  and  C_7
REMARK    3  A    between atoms: C_7  and  C_8
REMARK    4  A    between atoms: C_12  and  C_13
REMARK                            x       y       z     vdW  Elec       q    Type
REMARK                         _______ _______ _______ _____ _____    ______ ____
ROOT
ATOM      1  C   UNL     1      45.878   7.309  12.530  0.00  0.00    +0.000 C 
ATOM      2  C   UNL     1      47.022   6.977  13.486  0.00  0.00    +0.000 C 
ATOM      3  C   UNL     1      47.332   7.413  12.098  0.00  0.00    +0.000 C 
ENDROOT
BRANCH   1   4
ATOM      4  C   UNL     1      45.070   6.119  12.003  0.00  0.00    +0.000 A 
ATOM      5  C   UNL     1      43.737   5.904  12.381  0.00  0.00    +0.000 A 
ATOM      6  C   UNL     1      42.954   4.937  11.755  0.00  0.00    +0.000 A 
ATOM      7  C   UNL     1      43.486   4.173  10.715  0.00  0.00    +0.000 A 
ATOM      8  C   UNL     1      44.822   4.326  10.317  0.00  0.00    +0.000 A 
ATOM      9  C   UNL     1      45.604   5.261  11.019  0.00  0.00    +0.000 A 
BRANCH   8  10
ATOM     10  C   UNL     1      45.367   3.626   9.138  0.00  0.00    +0.000 A 
ATOM     11  C   UNL     1      45.505   2.232   9.079  0.00  0.00    +0.000 A 
ATOM     12  C   UNL     1      46.097   1.625   7.971  0.00  0.00    +0.000 A 
ATOM     13  C   UNL     1      46.535   2.430   6.933  0.00  0.00    +0.000 A 
ATOM     14  N   UNL     1      46.425   3.773   6.936  0.00  0.00    +0.000 NA
ATOM     15  C   UNL     1      45.855   4.330   8.033  0.00  0.00    +0.000 A 
ENDBRANCH   8  10
ENDBRANCH   1   4
BRANCH   1  16
ATOM     16  N   UNL     1      45.096   8.531  12.799  0.00  0.00    +0.000 N 
ATOM     17  H   UNL     1      44.204   8.420  13.281  0.00  0.00    +0.000 HD
BRANCH  16  22
ATOM     18 CL   UNL     1      44.407  12.669   8.768  0.00  0.00    +0.000 Cl
ATOM     19  C   UNL     1      44.584  11.463   9.969  0.00  0.00    +0.000 A 
ATOM     20  C   UNL     1      43.775  10.344  10.019  0.00  0.00    +0.000 A 
ATOM     21  N   UNL     1      43.927   9.365  10.952  0.00  0.00    +0.000 NA
ATOM     22  C   UNL     1      44.927   9.540  11.843  0.00  0.00    +0.000 A 
ATOM     23  C   UNL     1      45.712  10.700  11.788  0.00  0.00    +0.000 A 
ATOM     24  N   UNL     1      45.572  11.678  10.856  0.00  0.00    +0.000 NA
ENDBRANCH  16  22
ENDBRANCH   1  16
TORSDOF 4
ENDMDL
MODEL 5
REMARK VINA RESULT:    -7.155      2.954      7.165
REMARK INTER + INTRA:          -9.023
REMARK INTER:                  -8.464
REMARK INTRA:                  -0.559
REMARK UNBOUND:                -0.194
REMARK  Name = 
REMARK  4 active torsions:
REMARK  status: ('A' for Active; 'I' for Inactive)
REMARK    1  A    between atoms: C_5  and  N_6
REMARK    2  A    between atoms: N_6  and  C_7
REMARK    3  A    between atoms: C_7  and  C_8
REMARK    4  A    between atoms: C_12  and  C_13
REMARK                            x       y       z     vdW  Elec       q    Type
REMARK                         _______ _______ _______ _____ _____    ______ ____
ROOT
ATOM      1  C   UNL     1      45.292   5.894  11.988  0.00  0.00    +0.000 C 
ATOM      2  C   UNL     1      44.539   7.095  11.421  0.00  0.00    +0.000 C 
ATOM      3  C   UNL     1      44.183   6.579  12.770  0.00  0.00    +0.000 C 
ENDROOT
BRANCH   1   4
ATOM      4  C   UNL     1      44.974   4.535  11.356  0.00  0.00    +0.000 A 
ATOM      5  C   UNL     1      43.860   3.780  11.749  0.00  0.00    +0.000 A 
ATOM      6  C   UNL     1      43.471   2.643  11.042  0.00  0.00    +0.000 A 
ATOM      7  C   UNL     1      44.182   2.249   9.908  0.00  0.00    +0.000 A 
ATOM      8  C   UNL     1      45.322   2.951   9.489  0.00  0.00    +0.000 A 
ATOM      9  C   UNL     1      45.727   4.050  10.267  0.00  0.00    +0.000 A 
BRANCH   8  10
ATOM     10  C   UNL     1      46.009   2.632   8.223  0.00  0.00    +0.000 A 
ATOM     11  C   UNL     1      46.127   3.550   7.170  0.00  0.00    +0.000 A 
ATOM     12  C   UNL     1      46.721   3.174   5.965  0.00  0.00    +0.000 A 
ATOM     13  C   UNL     1      47.196   1.880   5.840  0.00  0.00    +0.000 A 
ATOM     14  N   UNL     1      47.113   0.959   6.819  0.00  0.00    +0.000 NA
ATOM     15  C   UNL     1      46.520   1.354   7.972  0.00  0.00    +0.000 A 
ENDBRANCH   8  10
ENDBRANCH   1   4
BRANCH   1  16
ATOM     16  N   UNL     1      46.703   6.093  12.375  0.00  0.00    +0.000 N 
ATOM     17  H   UNL     1      47.417   5.849  11.689  0.00  0.00    +0.000 HD
BRANCH  16  22
ATOM     18 CL   UNL     1      48.673   4.568  17.632  0.00  0.00    +0.000 Cl
ATOM     19  C   UNL     1      48.112   4.994  16.073  0.00  0.00    +0.000 A 
ATOM     20  C   UNL     1      47.164   4.248  15.399  0.00  0.00    +0.000 A 
ATOM     21  N   UNL     1      46.689   4.594  14.172  0.00  0.00    +0.000 NA
ATOM     22  C   UNL     1      47.195   5.725  13.633  0.00  0.00    +0.000 A 
ATOM     23  C   UNL     1      48.178   6.445  14.326  0.00  0.00    +0.000 A 
ATOM     24  N   UNL     1      48.653   6.111  15.554  0.00  0.00    +0.000 NA
ENDBRANCH  16  22
ENDBRANCH   1  16
TORSDOF 4
ENDMDL
MODEL 6
REMARK VINA RESULT:    -6.907      3.317      6.969
REMARK INTER + INTRA:          -8.717
REMARK INTER:                  -8.097
REMARK INTRA:                  -0.620
REMARK UNBOUND:                -0.194
REMARK  Name = 
REMARK  4 active torsions:
REMARK  status: ('A' for Active; 'I' for Inactive)
REMARK    1  A    between atoms: C_5  and  N_6
REMARK    2  A    between atoms: N_6  and  C_7
REMARK    3  A    between atoms: C_7  and  C_8
REMARK    4  A    between atoms: C_12  and  C_13
REMARK                            x       y       z     vdW  Elec       q    Type
REMARK                         _______ _______ _______ _____ _____    ______ ____
ROOT
ATOM      1  C   UNL     1      45.833   7.858  11.892  0.00  0.00    +0.000 C 
ATOM      2  C   UNL     1      45.272   9.202  11.435  0.00  0.00    +0.000 C 
ATOM      3  C   UNL     1      45.154   8.808  12.865  0.00  0.00    +0.000 C 
ENDROOT
BRANCH   1   4
ATOM      4  C   UNL     1      45.050   6.615  11.457  0.00  0.00    +0.000 A 
ATOM      5  C   UNL     1      43.677   6.480  11.709  0.00  0.00    +0.000 A 
ATOM      6  C   UNL     1      42.937   5.442  11.147  0.00  0.00    +0.000 A 
ATOM      7  C   UNL     1      43.556   4.523  10.299  0.00  0.00    +0.000 A 
ATOM      8  C   UNL     1      44.932   4.593  10.038  0.00  0.00    +0.000 A 
ATOM      9  C   UNL     1      45.661   5.610  10.679  0.00  0.00    +0.000 A 
BRANCH   8  10
ATOM     10  C   UNL     1      45.581   3.715   9.046  0.00  0.00    +0.000 A 
ATOM     11  C   UNL     1      46.244   4.208   7.913  0.00  0.00    +0.000 A 
ATOM     12  C   UNL     1      46.775   3.333   6.965  0.00  0.00    +0.000 A 
ATOM     13  C   UNL     1      46.640   1.972   7.176  0.00  0.00    +0.000 A 
ATOM     14  N   UNL     1      46.017   1.443   8.247  0.00  0.00    +0.000 NA
ATOM     15  C   UNL     1      45.503   2.322   9.142  0.00  0.00    +0.000 A 
ENDBRANCH   8  10
ENDBRANCH   1   4
BRANCH   1  16
ATOM     16  N   UNL     1      47.301   7.701  11.913  0.00  0.00    +0.000 N 
ATOM     17  H   UNL     1      47.721   7.122  11.187  0.00  0.00    +0.000 HD
BRANCH  16  22
ATOM     18 CL   UNL     1      50.331   6.730  16.784  0.00  0.00    +0.000 Cl
ATOM     19  C   UNL     1      49.421   7.034  15.368  0.00  0.00    +0.000 A 
ATOM     20  C   UNL     1      49.525   8.217  14.660  0.00  0.00    +0.000 A 
ATOM     21  N   UNL     1      48.828   8.457  13.517  0.00  0.00    +0.000 NA
ATOM     22  C   UNL     1      48.014   7.465  13.095  0.00  0.00    +0.000 A 
ATOM     23  C   UNL     1      47.903   6.289  13.849  0.00  0.00    +0.000 A 
ATOM     24  N   UNL     1      48.601   6.037  14.987  0.00  0.00    +0.000 NA
ENDBRANCH  16  22
ENDBRANCH   1  16
TORSDOF 4
ENDMDL
MODEL 7
REMARK VINA RESULT:    -6.719      3.647      7.584
REMARK INTER + INTRA:          -8.484
REMARK INTER:                  -7.759
REMARK INTRA:                  -0.725
REMARK UNBOUND:                -0.194
REMARK  Name = 
REMARK  4 active torsions:
REMARK  status: ('A' for Active; 'I' for Inactive)
REMARK    1  A    between atoms: C_5  and  N_6
REMARK    2  A    between atoms: N_6  and  C_7
REMARK    3  A    between atoms: C_7  and  C_8
REMARK    4  A    between atoms: C_12  and  C_13
REMARK                            x       y       z     vdW  Elec       q    Type
REMARK                         _______ _______ _______ _____ _____    ______ ____
ROOT
ATOM      1  C   UNL     1      48.913   7.880  12.647  0.00  0.00    +0.000 C 
ATOM      2  C   UNL     1      49.721   8.266  11.410  0.00  0.00    +0.000 C 
ATOM      3  C   UNL     1      49.437   9.293  12.448  0.00  0.00    +0.000 C 
ENDROOT
BRANCH   1   4
ATOM      4  C   UNL     1      47.414   7.648  12.431  0.00  0.00    +0.000 A 
ATOM      5  C   UNL     1      46.467   8.652  12.676  0.00  0.00    +0.000 A 
ATOM      6  C   UNL     1      45.135   8.498  12.298  0.00  0.00    +0.000 A 
ATOM      7  C   UNL     1      44.724   7.336  11.644  0.00  0.00    +0.000 A 
ATOM      8  C   UNL     1      45.624   6.288  11.400  0.00  0.00    +0.000 A 
ATOM      9  C   UNL     1      46.943   6.448  11.859  0.00  0.00    +0.000 A 
BRANCH   8  10
ATOM     10  C   UNL     1      45.246   5.110  10.596  0.00  0.00    +0.000 A 
ATOM     11  C   UNL     1      45.517   5.007   9.224  0.00  0.00    +0.000 A 
ATOM     12  C   UNL     1      45.072   3.905   8.494  0.00  0.00    +0.000 A 
ATOM     13  C   UNL     1      44.365   2.917   9.157  0.00  0.00    +0.000 A 
ATOM     14  N   UNL     1      44.080   2.962  10.473  0.00  0.00    +0.000 NA
ATOM     15  C   UNL     1      44.518   4.052  11.150  0.00  0.00    +0.000 A 
ENDBRANCH   8  10
ENDBRANCH   1   4
BRANCH   1  16
ATOM     16  N   UNL     1      49.553   6.984  13.630  0.00  0.00    +0.000 N 
ATOM     17  H   UNL     1      49.706   6.015  13.351  0.00  0.00    +0.000 HD
BRANCH  16  22
ATOM     18 CL   UNL     1      47.982   6.914  19.231  0.00  0.00    +0.000 Cl
ATOM     19  C   UNL     1      48.472   6.922  17.592  0.00  0.00    +0.000 A 
ATOM     20  C   UNL     1      48.479   5.778  16.816  0.00  0.00    +0.000 A 
ATOM     21  N   UNL     1      48.838   5.779  15.503  0.00  0.00    +0.000 NA
ATOM     22  C   UNL     1      49.192   6.974  14.982  0.00  0.00    +0.000 A 
ATOM     23  C   UNL     1      49.207   8.112  15.801  0.00  0.00    +0.000 A 
ATOM     24  N   UNL     1      48.843   8.122  17.109  0.00  0.00    +0.000 NA
ENDBRANCH  16  22
ENDBRANCH   1  16
TORSDOF 4
ENDMDL
MODEL 8
REMARK VINA RESULT:    -6.312      2.918      4.550
REMARK INTER + INTRA:          -7.982
REMARK INTER:                  -7.286
REMARK INTRA:                  -0.696
REMARK UNBOUND:                -0.194
REMARK  Name = 
REMARK  4 active torsions:
REMARK  status: ('A' for Active; 'I' for Inactive)
REMARK    1  A    between atoms: C_5  and  N_6
REMARK    2  A    between atoms: N_6  and  C_7
REMARK    3  A    between atoms: C_7  and  C_8
REMARK    4  A    between atoms: C_12  and  C_13
REMARK                            x       y       z     vdW  Elec       q    Type
REMARK                         _______ _______ _______ _____ _____    ______ ____
ROOT
ATOM      1  C   UNL     1      47.391   7.936  12.866  0.00  0.00    +0.000 C 
ATOM      2  C   UNL     1      48.022   8.873  11.838  0.00  0.00    +0.000 C 
ATOM      3  C   UNL     1      48.224   7.405  11.710  0.00  0.00    +0.000 C 
ENDROOT
BRANCH   1   4
ATOM      4  C   UNL     1      48.031   7.928  14.258  0.00  0.00    +0.000 A 
ATOM      5  C   UNL     1      48.043   9.069  15.072  0.00  0.00    +0.000 A 
ATOM      6  C   UNL     1      48.453   9.004  16.403  0.00  0.00    +0.000 A 
ATOM      7  C   UNL     1      48.843   7.783  16.954  0.00  0.00    +0.000 A 
ATOM      8  C   UNL     1      48.878   6.616  16.176  0.00  0.00    +0.000 A 
ATOM      9  C   UNL     1      48.526   6.733  14.819  0.00  0.00    +0.000 A 
BRANCH   8  10
ATOM     10  C   UNL     1      49.159   5.295  16.768  0.00  0.00    +0.000 A 
ATOM     11  C   UNL     1      50.399   4.962  17.331  0.00  0.00    +0.000 A 
ATOM     12  C   UNL     1      50.637   3.673  17.809  0.00  0.00    +0.000 A 
ATOM     13  C   UNL     1      49.620   2.738  17.721  0.00  0.00    +0.000 A 
ATOM     14  N   UNL     1      48.409   3.004  17.193  0.00  0.00    +0.000 NA
ATOM     15  C   UNL     1      48.215   4.263  16.728  0.00  0.00    +0.000 A 
ENDBRANCH   8  10
ENDBRANCH   1   4
BRANCH   1  16
ATOM     16  N   UNL     1      45.922   7.791  12.848  0.00  0.00    +0.000 N 
ATOM     17  H   UNL     1      45.398   8.233  13.604  0.00  0.00    +0.000 HD
BRANCH  16  22
ATOM     18 CL   UNL     1      43.227   2.772  11.667  0.00  0.00    +0.000 Cl
ATOM     19  C   UNL     1      44.040   4.243  11.991  0.00  0.00    +0.000 A 
ATOM     20  C   UNL     1      43.875   5.368  11.206  0.00  0.00    +0.000 A 
ATOM     21  N   UNL     1      44.494   6.550  11.472  0.00  0.00    +0.000 NA
ATOM     22  C   UNL     1      45.291   6.575  12.562  0.00  0.00    +0.000 A 
ATOM     23  C   UNL     1      45.464   5.410  13.322  0.00  0.00    +0.000 A 
ATOM     24  N   UNL     1      44.845   4.228  13.069  0.00  0.00    +0.000 NA
ENDBRANCH  16  22
ENDBRANCH   1  16
TORSDOF 4
ENDMDL
MODEL 9
REMARK VINA RESULT:    -6.268      4.002      7.521
REMARK INTER + INTRA:          -7.928
REMARK INTER:                  -7.156
REMARK INTRA:                  -0.771
REMARK UNBOUND:                -0.194
REMARK  Name = 
REMARK  4 active torsions:
REMARK  status: ('A' for Active; 'I' for Inactive)
REMARK    1  A    between atoms: C_5  and  N_6
REMARK    2  A    between atoms: N_6  and  C_7
REMARK    3  A    between atoms: C_7  and  C_8
REMARK    4  A    between atoms: C_12  and  C_13
REMARK                            x       y       z     vdW  Elec       q    Type
REMARK                         _______ _______ _______ _____ _____    ______ ____
ROOT
ATOM      1  C   UNL     1      49.416   7.881  12.695  0.00  0.00    +0.000 C 
ATOM      2  C   UNL     1      50.133   7.681  11.362  0.00  0.00    +0.000 C 
ATOM      3  C   UNL     1      50.150   9.020  12.007  0.00  0.00    +0.000 C 
ENDROOT
BRANCH   1   4
ATOM      4  C   UNL     1      47.885   7.897  12.644  0.00  0.00    +0.000 A 
ATOM      5  C   UNL     1      47.161   9.094  12.549  0.00  0.00    +0.000 A 
ATOM      6  C   UNL     1      45.788   9.092  12.311  0.00  0.00    +0.000 A 
ATOM      7  C   UNL     1      45.110   7.884  12.143  0.00  0.00    +0.000 A 
ATOM      8  C   UNL     1      45.780   6.657  12.259  0.00  0.00    +0.000 A 
ATOM      9  C   UNL     1      47.151   6.695  12.569  0.00  0.00    +0.000 A 
BRANCH   8  10
ATOM     10  C   UNL     1      45.115   5.375  11.956  0.00  0.00    +0.000 A 
ATOM     11  C   UNL     1      44.669   5.035  10.671  0.00  0.00    +0.000 A 
ATOM     12  C   UNL     1      43.977   3.844  10.452  0.00  0.00    +0.000 A 
ATOM     13  C   UNL     1      43.751   3.006  11.530  0.00  0.00    +0.000 A 
ATOM     14  N   UNL     1      44.160   3.280  12.785  0.00  0.00    +0.000 NA
ATOM     15  C   UNL     1      44.819   4.451  12.963  0.00  0.00    +0.000 A 
ENDBRANCH   8  10
ENDBRANCH   1   4
BRANCH   1  16
ATOM     16  N   UNL     1      49.999   7.237  13.889  0.00  0.00    +0.000 N 
ATOM     17  H   UNL     1      50.233   6.247  13.820  0.00  0.00    +0.000 HD
BRANCH  16  22
ATOM     18 CL   UNL     1      48.000   8.186  19.269  0.00  0.00    +0.000 Cl
ATOM     19  C   UNL     1      48.561   7.917  17.675  0.00  0.00    +0.000 A 
ATOM     20  C   UNL     1      48.987   8.947  16.857  0.00  0.00    +0.000 A 
ATOM     21  N   UNL     1      49.462   8.741  15.599  0.00  0.00    +0.000 NA
ATOM     22  C   UNL     1      49.501   7.458  15.179  0.00  0.00    +0.000 A 
ATOM     23  C   UNL     1      49.034   6.437  16.017  0.00  0.00    +0.000 A 
ATOM     24  N   UNL     1      48.565   6.632  17.277  0.00  0.00    +0.000 NA
ENDBRANCH  16  22
ENDBRANCH   1  16
TORSDOF 4
ENDMDL
