MODEL 1
REMARK VINA RESULT:    -7.087      0.000      0.000
REMARK INTER + INTRA:         -12.191
REMARK INTER:                 -10.401
REMARK INTRA:                  -1.790
REMARK UNBOUND:                -1.790
REMARK  Name = 
REMARK  10 active torsions:
REMARK  status: ('A' for Active; 'I' for Inactive)
REMARK    1  A    between atoms: C_1  and  O_2
REMARK    2  A    between atoms: O_2  and  C_3
REMARK    3  A    between atoms: C_3  and  C_5
REMARK    4  A    between atoms: C_5  and  C_6
REMARK    5  A    between atoms: C_6  and  N_7
REMARK    6  A    between atoms: C_6  and  C_20
REMARK    7  A    between atoms: C_8  and  C_10
REMARK    8  A    between atoms: C_23  and  C_24
REMARK    9  A    between atoms: C_24  and  C_25
REMARK   10  A    between atoms: C_24  and  N_26
REMARK                            x       y       z     vdW  Elec       q    Type
REMARK                         _______ _______ _______ _____ _____    ______ ____
ROOT
ATOM      1  C   UNL     1      48.080   4.650  16.159  0.00  0.00    +0.000 C 
ENDROOT
BRANCH   1   2
ATOM      2  C   UNL     1      48.057   5.690  17.275  0.00  0.00    +0.000 A 
ATOM      3  C   UNL     1      47.377   5.422  18.468  0.00  0.00    +0.000 A 
ATOM      4  C   UNL     1      47.393   6.346  19.513  0.00  0.00    +0.000 A 
ATOM      5  C   UNL     1      48.120   7.545  19.410  0.00  0.00    +0.000 A 
ATOM      6  C   UNL     1      48.746   7.841  18.194  0.00  0.00    +0.000 A 
ATOM      7  C   UNL     1      48.718   6.923  17.140  0.00  0.00    +0.000 A 
BRANCH   5   8
ATOM      8  C   UNL     1      48.290   8.416  20.647  0.00  0.00    +0.000 C 
ATOM      9  C   UNL     1      47.227   8.044  21.698  0.00  0.00    +0.000 C 
BRANCH   8  10
ATOM     10  N   UNL     1      49.652   8.544  21.146  0.00  0.00    +0.000 NA
ATOM     11  C   UNL     1      50.351   9.800  20.880  0.00  0.00    +0.000 C 
ATOM     12  C   UNL     1      51.541   9.645  19.925  0.00  0.00    +0.000 C 
ATOM     13  O   UNL     1      52.443   8.632  20.387  0.00  0.00    +0.000 OA
ATOM     14  C   UNL     1      51.772   7.367  20.458  0.00  0.00    +0.000 C 
ATOM     15  C   UNL     1      50.535   7.410  21.373  0.00  0.00    +0.000 C 
ENDBRANCH   8  10
ENDBRANCH   5   8
ENDBRANCH   1   2
BRANCH   1  16
ATOM     16  N   UNL     1      47.088   5.036  15.153  0.00  0.00    +0.000 N 
ATOM     17  C   UNL     1      47.421   5.657  13.975  0.00  0.00    +0.000 C 
ATOM     18  O   UNL     1      48.585   5.873  13.648  0.00  0.00    +0.000 OA
ATOM     19  H   UNL     1      46.137   5.160  15.495  0.00  0.00    +0.000 HD
BRANCH  17  20
ATOM     20  C   UNL     1      46.316   5.992  13.074  0.00  0.00    +0.000 A 
ATOM     21  C   UNL     1      46.066   7.318  12.746  0.00  0.00    +0.000 A 
ATOM     22  S   UNL     1      44.720   7.526  11.721  0.00  0.00    +0.000 S 
ATOM     23  C   UNL     1      44.396   5.856  11.720  0.00  0.00    +0.000 A 
ATOM     24  N   UNL     1      43.307   5.352  11.078  0.00  0.00    +0.000 NA
ATOM     25  C   UNL     1      43.160   4.074  11.202  0.00  0.00    +0.000 A 
ATOM     26  N   UNL     1      44.023   3.252  11.889  0.00  0.00    +0.000 N 
ATOM     27  C   UNL     1      45.167   3.706  12.494  0.00  0.00    +0.000 A 
ATOM     28  O   UNL     1      45.970   2.943  13.009  0.00  0.00    +0.000 OA
ATOM     29  C   UNL     1      45.335   5.146  12.442  0.00  0.00    +0.000 A 
ATOM     30  H   UNL     1      43.871   2.253  11.914  0.00  0.00    +0.000 HD
ENDBRANCH  17  20
ENDBRANCH   1  16
BRANCH   1  31
ATOM     31  C   UNL     1      47.825   3.242  16.711  0.00  0.00    +0.000 C 
BRANCH  31  32
ATOM     32  C   UNL     1      49.084   2.416  16.736  0.00  0.00    +0.000 C 
ATOM     33  O   UNL     1      49.385   1.562  15.916  0.00  0.00    +0.000 OA
BRANCH  32  35
ATOM     34  C   UNL     1      51.156   3.141  17.642  0.00  0.00    +0.000 C 
ATOM     35  O   UNL     1      49.801   2.739  17.849  0.00  0.00    +0.000 OA
ENDBRANCH  32  35
ENDBRANCH  31  32
ENDBRANCH   1  31
TORSDOF 8
ENDMDL
MODEL 2
REMARK VINA RESULT:    -7.045      1.889      2.376
REMARK INTER + INTRA:         -12.130
REMARK INTER:                 -10.328
REMARK INTRA:                  -1.801
REMARK UNBOUND:                -1.790
REMARK  Name = 
REMARK  10 active torsions:
REMARK  status: ('A' for Active; 'I' for Inactive)
REMARK    1  A    between atoms: C_1  and  O_2
REMARK    2  A    between atoms: O_2  and  C_3
REMARK    3  A    between atoms: C_3  and  C_5
REMARK    4  A    between atoms: C_5  and  C_6
REMARK    5  A    between atoms: C_6  and  N_7
REMARK    6  A    between atoms: C_6  and  C_20
REMARK    7  A    between atoms: C_8  and  C_10
REMARK    8  A    between atoms: C_23  and  C_24
REMARK    9  A    between atoms: C_24  and  C_25
REMARK   10  A    between atoms: C_24  and  N_26
REMARK                            x       y       z     vdW  Elec       q    Type
REMARK                         _______ _______ _______ _____ _____    ______ ____
ROOT
ATOM      1  C   UNL     1      48.669   5.797  16.850  0.00  0.00    +0.000 C 
ENDROOT
BRANCH   1   2
ATOM      2  C   UNL     1      48.416   7.058  17.672  0.00  0.00    +0.000 A 
ATOM      3  C   UNL     1      48.836   8.302  17.191  0.00  0.00    +0.000 A 
ATOM      4  C   UNL     1      48.564   9.467  17.909  0.00  0.00    +0.000 A 
ATOM      5  C   UNL     1      47.831   9.424  19.108  0.00  0.00    +0.000 A 
ATOM      6  C   UNL     1      47.467   8.173  19.621  0.00  0.00    +0.000 A 
ATOM      7  C   UNL     1      47.753   7.005  18.909  0.00  0.00    +0.000 A 
BRANCH   5   8
ATOM      8  C   UNL     1      47.370  10.729  19.741  0.00  0.00    +0.000 C 
ATOM      9  C   UNL     1      46.191  10.459  20.694  0.00  0.00    +0.000 C 
BRANCH   8  10
ATOM     10  N   UNL     1      48.425  11.583  20.268  0.00  0.00    +0.000 NA
ATOM     11  C   UNL     1      48.700  12.831  19.558  0.00  0.00    +0.000 C 
ATOM     12  C   UNL     1      50.078  12.859  18.886  0.00  0.00    +0.000 C 
ATOM     13  O   UNL     1      51.115  12.553  19.826  0.00  0.00    +0.000 OA
ATOM     14  C   UNL     1      50.920  11.240  20.366  0.00  0.00    +0.000 C 
ATOM     15  C   UNL     1      49.549  11.084  21.047  0.00  0.00    +0.000 C 
ENDBRANCH   8  10
ENDBRANCH   5   8
ENDBRANCH   1   2
BRANCH   1  16
ATOM     16  N   UNL     1      47.704   5.766  15.749  0.00  0.00    +0.000 N 
ATOM     17  C   UNL     1      48.010   6.175  14.475  0.00  0.00    +0.000 C 
ATOM     18  O   UNL     1      49.138   6.534  14.150  0.00  0.00    +0.000 OA
ATOM     19  H   UNL     1      46.723   5.778  16.021  0.00  0.00    +0.000 HD
BRANCH  17  20
ATOM     20  C   UNL     1      46.934   6.097  13.484  0.00  0.00    +0.000 A 
ATOM     21  C   UNL     1      46.408   7.259  12.937  0.00  0.00    +0.000 A 
ATOM     22  S   UNL     1      45.138   6.983  11.834  0.00  0.00    +0.000 S 
ATOM     23  C   UNL     1      45.216   5.302  12.085  0.00  0.00    +0.000 A 
ATOM     24  N   UNL     1      44.332   4.459  11.485  0.00  0.00    +0.000 NA
ATOM     25  C   UNL     1      44.478   3.217  11.806  0.00  0.00    +0.000 A 
ATOM     26  N   UNL     1      45.451   2.738  12.652  0.00  0.00    +0.000 N 
ATOM     27  C   UNL     1      46.404   3.541  13.227  0.00  0.00    +0.000 A 
ATOM     28  O   UNL     1      47.319   3.079  13.893  0.00  0.00    +0.000 OA
ATOM     29  C   UNL     1      46.234   4.954  12.953  0.00  0.00    +0.000 A 
ATOM     30  H   UNL     1      45.536   1.747  12.830  0.00  0.00    +0.000 HD
ENDBRANCH  17  20
ENDBRANCH   1  16
BRANCH   1  31
ATOM     31  C   UNL     1      48.587   4.541  17.726  0.00  0.00    +0.000 C 
BRANCH  31  32
ATOM     32  C   UNL     1      47.815   3.439  17.051  0.00  0.00    +0.000 C 
ATOM     33  O   UNL     1      46.607   3.272  17.126  0.00  0.00    +0.000 OA
BRANCH  32  35
ATOM     34  C   UNL     1      49.877   2.262  17.092  0.00  0.00    +0.000 C 
ATOM     35  O   UNL     1      48.690   2.631  16.389  0.00  0.00    +0.000 OA
ENDBRANCH  32  35
ENDBRANCH  31  32
ENDBRANCH   1  31
TORSDOF 8
ENDMDL
MODEL 3
REMARK VINA RESULT:    -6.719      2.124      2.906
REMARK INTER + INTRA:         -11.651
REMARK INTER:                  -9.858
REMARK INTRA:                  -1.793
REMARK UNBOUND:                -1.790
REMARK  Name = 
REMARK  10 active torsions:
REMARK  status: ('A' for Active; 'I' for Inactive)
REMARK    1  A    between atoms: C_1  and  O_2
REMARK    2  A    between atoms: O_2  and  C_3
REMARK    3  A    between atoms: C_3  and  C_5
REMARK    4  A    between atoms: C_5  and  C_6
REMARK    5  A    between atoms: C_6  and  N_7
REMARK    6  A    between atoms: C_6  and  C_20
REMARK    7  A    between atoms: C_8  and  C_10
REMARK    8  A    between atoms: C_23  and  C_24
REMARK    9  A    between atoms: C_24  and  C_25
REMARK   10  A    between atoms: C_24  and  N_26
REMARK                            x       y       z     vdW  Elec       q    Type
REMARK                         _______ _______ _______ _____ _____    ______ ____
ROOT
ATOM      1  C   UNL     1      48.750   5.891  15.962  0.00  0.00    +0.000 C 
ENDROOT
BRANCH   1   2
ATOM      2  C   UNL     1      48.945   7.328  16.436  0.00  0.00    +0.000 A 
ATOM      3  C   UNL     1      48.322   8.381  15.757  0.00  0.00    +0.000 A 
ATOM      4  C   UNL     1      48.453   9.693  16.213  0.00  0.00    +0.000 A 
ATOM      5  C   UNL     1      49.178   9.985  17.381  0.00  0.00    +0.000 A 
ATOM      6  C   UNL     1      49.854   8.941  18.023  0.00  0.00    +0.000 A 
ATOM      7  C   UNL     1      49.736   7.628  17.558  0.00  0.00    +0.000 A 
BRANCH   5   8
ATOM      8  C   UNL     1      49.111  11.391  17.962  0.00  0.00    +0.000 C 
ATOM      9  C   UNL     1      48.786  12.401  16.846  0.00  0.00    +0.000 C 
BRANCH   8  10
ATOM     10  N   UNL     1      48.336  11.532  19.187  0.00  0.00    +0.000 NA
ATOM     11  C   UNL     1      49.073  11.573  20.449  0.00  0.00    +0.000 C 
ATOM     12  C   UNL     1      48.815  10.355  21.344  0.00  0.00    +0.000 C 
ATOM     13  O   UNL     1      47.412  10.164  21.563  0.00  0.00    +0.000 OA
ATOM     14  C   UNL     1      46.743   9.938  20.316  0.00  0.00    +0.000 C 
ATOM     15  C   UNL     1      46.956  11.091  19.319  0.00  0.00    +0.000 C 
ENDBRANCH   8  10
ENDBRANCH   5   8
ENDBRANCH   1   2
BRANCH   1  16
ATOM     16  N   UNL     1      47.613   5.866  15.039  0.00  0.00    +0.000 N 
ATOM     17  C   UNL     1      47.749   6.009  13.681  0.00  0.00    +0.000 C 
ATOM     18  O   UNL     1      48.844   6.102  13.133  0.00  0.00    +0.000 OA
ATOM     19  H   UNL     1      46.709   6.097  15.445  0.00  0.00    +0.000 HD
BRANCH  17  20
ATOM     20  C   UNL     1      46.516   5.974  12.889  0.00  0.00    +0.000 A 
ATOM     21  C   UNL     1      46.012   7.144  12.339  0.00  0.00    +0.000 A 
ATOM     22  S   UNL     1      44.552   6.924  11.487  0.00  0.00    +0.000 S 
ATOM     23  C   UNL     1      44.521   5.265  11.864  0.00  0.00    +0.000 A 
ATOM     24  N   UNL     1      43.475   4.478  11.490  0.00  0.00    +0.000 NA
ATOM     25  C   UNL     1      43.562   3.252  11.887  0.00  0.00    +0.000 A 
ATOM     26  N   UNL     1      44.618   2.735  12.600  0.00  0.00    +0.000 N 
ATOM     27  C   UNL     1      45.723   3.474  12.940  0.00  0.00    +0.000 A 
ATOM     28  O   UNL     1      46.694   2.967  13.484  0.00  0.00    +0.000 OA
ATOM     29  C   UNL     1      45.636   4.875  12.579  0.00  0.00    +0.000 A 
ATOM     30  H   UNL     1      44.643   1.755  12.845  0.00  0.00    +0.000 HD
ENDBRANCH  17  20
ENDBRANCH   1  16
BRANCH   1  31
ATOM     31  C   UNL     1      48.554   4.940  17.148  0.00  0.00    +0.000 C 
BRANCH  31  32
ATOM     32  C   UNL     1      47.791   3.703  16.751  0.00  0.00    +0.000 C 
ATOM     33  O   UNL     1      46.598   3.518  16.938  0.00  0.00    +0.000 OA
BRANCH  32  35
ATOM     34  C   UNL     1      49.740   2.375  17.028  0.00  0.00    +0.000 C 
ATOM     35  O   UNL     1      48.659   2.809  16.200  0.00  0.00    +0.000 OA
ENDBRANCH  32  35
ENDBRANCH  31  32
ENDBRANCH   1  31
TORSDOF 8
ENDMDL
MODEL 4
REMARK VINA RESULT:    -6.515      2.989      9.107
REMARK INTER + INTRA:         -11.352
REMARK INTER:                  -9.600
REMARK INTRA:                  -1.753
REMARK UNBOUND:                -1.790
REMARK  Name = 
REMARK  10 active torsions:
REMARK  status: ('A' for Active; 'I' for Inactive)
REMARK    1  A    between atoms: C_1  and  O_2
REMARK    2  A    between atoms: O_2  and  C_3
REMARK    3  A    between atoms: C_3  and  C_5
REMARK    4  A    between atoms: C_5  and  C_6
REMARK    5  A    between atoms: C_6  and  N_7
REMARK    6  A    between atoms: C_6  and  C_20
REMARK    7  A    between atoms: C_8  and  C_10
REMARK    8  A    between atoms: C_23  and  C_24
REMARK    9  A    between atoms: C_24  and  C_25
REMARK   10  A    between atoms: C_24  and  N_26
REMARK                            x       y       z     vdW  Elec       q    Type
REMARK                         _______ _______ _______ _____ _____    ______ ____
ROOT
ATOM      1  C   UNL     1      48.801   6.841  13.594  0.00  0.00    +0.000 C 
ENDROOT
BRANCH   1   2
ATOM      2  C   UNL     1      47.620   6.147  12.922  0.00  0.00    +0.000 A 
ATOM      3  C   UNL     1      47.117   4.953  13.450  0.00  0.00    +0.000 A 
ATOM      4  C   UNL     1      46.005   4.338  12.873  0.00  0.00    +0.000 A 
ATOM      5  C   UNL     1      45.342   4.919  11.778  0.00  0.00    +0.000 A 
ATOM      6  C   UNL     1      45.883   6.079  11.212  0.00  0.00    +0.000 A 
ATOM      7  C   UNL     1      47.007   6.687  11.780  0.00  0.00    +0.000 A 
BRANCH   5   8
ATOM      8  C   UNL     1      44.012   4.335  11.323  0.00  0.00    +0.000 C 
ATOM      9  C   UNL     1      42.873   5.322  11.638  0.00  0.00    +0.000 C 
BRANCH   8  10
ATOM     10  N   UNL     1      43.999   3.762   9.985  0.00  0.00    +0.000 NA
ATOM     11  C   UNL     1      44.228   2.323   9.866  0.00  0.00    +0.000 C 
ATOM     12  C   UNL     1      45.546   1.972   9.163  0.00  0.00    +0.000 C 
ATOM     13  O   UNL     1      45.641   2.624   7.891  0.00  0.00    +0.000 OA
ATOM     14  C   UNL     1      45.603   4.046   8.061  0.00  0.00    +0.000 C 
ATOM     15  C   UNL     1      44.329   4.517   8.785  0.00  0.00    +0.000 C 
ENDBRANCH   8  10
ENDBRANCH   5   8
ENDBRANCH   1   2
BRANCH   1  16
ATOM     16  N   UNL     1      48.384   7.259  14.935  0.00  0.00    +0.000 N 
ATOM     17  C   UNL     1      49.086   6.937  16.070  0.00  0.00    +0.000 C 
ATOM     18  O   UNL     1      50.154   6.331  16.037  0.00  0.00    +0.000 OA
ATOM     19  H   UNL     1      47.396   7.477  15.042  0.00  0.00    +0.000 HD
BRANCH  17  20
ATOM     20  C   UNL     1      48.535   7.417  17.340  0.00  0.00    +0.000 A 
ATOM     21  C   UNL     1      48.367   8.778  17.552  0.00  0.00    +0.000 A 
ATOM     22  S   UNL     1      47.755   9.159  19.097  0.00  0.00    +0.000 S 
ATOM     23  C   UNL     1      47.738   7.520  19.552  0.00  0.00    +0.000 A 
ATOM     24  N   UNL     1      47.382   7.142  20.810  0.00  0.00    +0.000 NA
ATOM     25  C   UNL     1      47.463   5.872  21.028  0.00  0.00    +0.000 A 
ATOM     26  N   UNL     1      47.842   4.941  20.090  0.00  0.00    +0.000 N 
ATOM     27  C   UNL     1      48.145   5.268  18.792  0.00  0.00    +0.000 A 
ATOM     28  O   UNL     1      48.380   4.413  17.950  0.00  0.00    +0.000 OA
ATOM     29  C   UNL     1      48.138   6.692  18.521  0.00  0.00    +0.000 A 
ATOM     30  H   UNL     1      47.846   3.956  20.314  0.00  0.00    +0.000 HD
ENDBRANCH  17  20
ENDBRANCH   1  16
BRANCH   1  31
ATOM     31  C   UNL     1      49.303   8.019  12.751  0.00  0.00    +0.000 C 
BRANCH  31  32
ATOM     32  C   UNL     1      49.074   9.337  13.443  0.00  0.00    +0.000 C 
ATOM     33  O   UNL     1      48.053  10.004  13.374  0.00  0.00    +0.000 OA
BRANCH  32  35
ATOM     34  C   UNL     1      51.446   9.254  13.539  0.00  0.00    +0.000 C 
ATOM     35  O   UNL     1      50.209   9.686  14.111  0.00  0.00    +0.000 OA
ENDBRANCH  32  35
ENDBRANCH  31  32
ENDBRANCH   1  31
TORSDOF 8
ENDMDL
MODEL 5
REMARK VINA RESULT:    -6.364      2.925      5.035
REMARK INTER + INTRA:         -11.131
REMARK INTER:                  -9.480
REMARK INTRA:                  -1.651
REMARK UNBOUND:                -1.790
REMARK  Name = 
REMARK  10 active torsions:
REMARK  status: ('A' for Active; 'I' for Inactive)
REMARK    1  A    between atoms: C_1  and  O_2
REMARK    2  A    between atoms: O_2  and  C_3
REMARK    3  A    between atoms: C_3  and  C_5
REMARK    4  A    between atoms: C_5  and  C_6
REMARK    5  A    between atoms: C_6  and  N_7
REMARK    6  A    between atoms: C_6  and  C_20
REMARK    7  A    between atoms: C_8  and  C_10
REMARK    8  A    between atoms: C_23  and  C_24
REMARK    9  A    between atoms: C_24  and  C_25
REMARK   10  A    between atoms: C_24  and  N_26
REMARK                            x       y       z     vdW  Elec       q    Type
REMARK                         _______ _______ _______ _____ _____    ______ ____
ROOT
ATOM      1  C   UNL     1      47.638   7.874  12.427  0.00  0.00    +0.000 C 
ENDROOT
BRANCH   1   2
ATOM      2  C   UNL     1      48.161   7.846  13.860  0.00  0.00    +0.000 A 
ATOM      3  C   UNL     1      47.812   8.865  14.753  0.00  0.00    +0.000 A 
ATOM      4  C   UNL     1      48.242   8.822  16.079  0.00  0.00    +0.000 A 
ATOM      5  C   UNL     1      49.001   7.740  16.560  0.00  0.00    +0.000 A 
ATOM      6  C   UNL     1      49.403   6.754  15.652  0.00  0.00    +0.000 A 
ATOM      7  C   UNL     1      48.985   6.805  14.319  0.00  0.00    +0.000 A 
BRANCH   5   8
ATOM      8  C   UNL     1      49.260   7.625  18.056  0.00  0.00    +0.000 C 
ATOM      9  C   UNL     1      48.811   8.917  18.764  0.00  0.00    +0.000 C 
BRANCH   8  10
ATOM     10  N   UNL     1      48.827   6.381  18.677  0.00  0.00    +0.000 NA
ATOM     11  C   UNL     1      49.840   5.351  18.898  0.00  0.00    +0.000 C 
ATOM     12  C   UNL     1      49.627   4.094  18.045  0.00  0.00    +0.000 C 
ATOM     13  O   UNL     1      48.304   3.573  18.217  0.00  0.00    +0.000 OA
ATOM     14  C   UNL     1      47.332   4.545  17.812  0.00  0.00    +0.000 C 
ATOM     15  C   UNL     1      47.468   5.868  18.586  0.00  0.00    +0.000 C 
ENDBRANCH   8  10
ENDBRANCH   5   8
ENDBRANCH   1   2
BRANCH   1  16
ATOM     16  N   UNL     1      46.851   6.659  12.203  0.00  0.00    +0.000 N 
ATOM     17  C   UNL     1      45.533   6.683  11.820  0.00  0.00    +0.000 C 
ATOM     18  O   UNL     1      44.936   7.727  11.572  0.00  0.00    +0.000 OA
ATOM     19  H   UNL     1      47.186   5.822  12.676  0.00  0.00    +0.000 HD
BRANCH  17  20
ATOM     20  C   UNL     1      44.877   5.384  11.648  0.00  0.00    +0.000 A 
ATOM     21  C   UNL     1      44.138   4.837  12.688  0.00  0.00    +0.000 A 
ATOM     22  S   UNL     1      43.480   3.306  12.327  0.00  0.00    +0.000 S 
ATOM     23  C   UNL     1      44.199   3.303  10.785  0.00  0.00    +0.000 A 
ATOM     24  N   UNL     1      44.091   2.225   9.961  0.00  0.00    +0.000 NA
ATOM     25  C   UNL     1      44.727   2.342   8.843  0.00  0.00    +0.000 A 
ATOM     26  N   UNL     1      45.440   3.456   8.463  0.00  0.00    +0.000 N 
ATOM     27  C   UNL     1      45.521   4.590   9.232  0.00  0.00    +0.000 A 
ATOM     28  O   UNL     1      46.073   5.603   8.829  0.00  0.00    +0.000 OA
ATOM     29  C   UNL     1      44.881   4.476  10.528  0.00  0.00    +0.000 A 
ATOM     30  H   UNL     1      45.882   3.499   7.556  0.00  0.00    +0.000 HD
ENDBRANCH  17  20
ENDBRANCH   1  16
BRANCH   1  31
ATOM     31  C   UNL     1      48.789   8.011  11.422  0.00  0.00    +0.000 C 
BRANCH  31  32
ATOM     32  C   UNL     1      49.434   9.370  11.495  0.00  0.00    +0.000 C 
ATOM     33  O   UNL     1      48.867  10.434  11.296  0.00  0.00    +0.000 OA
BRANCH  32  35
ATOM     34  C   UNL     1      51.357   7.985  11.342  0.00  0.00    +0.000 C 
ATOM     35  O   UNL     1      50.760   9.213  11.763  0.00  0.00    +0.000 OA
ENDBRANCH  32  35
ENDBRANCH  31  32
ENDBRANCH   1  31
TORSDOF 8
ENDMDL
MODEL 6
REMARK VINA RESULT:    -6.349      3.140      9.251
REMARK INTER + INTRA:         -11.108
REMARK INTER:                  -9.434
REMARK INTRA:                  -1.674
REMARK UNBOUND:                -1.790
REMARK  Name = 
REMARK  10 active torsions:
REMARK  status: ('A' for Active; 'I' for Inactive)
REMARK    1  A    between atoms: C_1  and  O_2
REMARK    2  A    between atoms: O_2  and  C_3
REMARK    3  A    between atoms: C_3  and  C_5
REMARK    4  A    between atoms: C_5  and  C_6
REMARK    5  A    between atoms: C_6  and  N_7
REMARK    6  A    between atoms: C_6  and  C_20
REMARK    7  A    between atoms: C_8  and  C_10
REMARK    8  A    between atoms: C_23  and  C_24
REMARK    9  A    between atoms: C_24  and  C_25
REMARK   10  A    between atoms: C_24  and  N_26
REMARK                            x       y       z     vdW  Elec       q    Type
REMARK                         _______ _______ _______ _____ _____    ______ ____
ROOT
ATOM      1  C   UNL     1      48.658   6.856  13.694  0.00  0.00    +0.000 C 
ENDROOT
BRANCH   1   2
ATOM      2  C   UNL     1      47.505   6.129  13.007  0.00  0.00    +0.000 A 
ATOM      3  C   UNL     1      47.016   4.931  13.540  0.00  0.00    +0.000 A 
ATOM      4  C   UNL     1      45.929   4.286  12.949  0.00  0.00    +0.000 A 
ATOM      5  C   UNL     1      45.279   4.838  11.832  0.00  0.00    +0.000 A 
ATOM      6  C   UNL     1      45.808   6.001  11.261  0.00  0.00    +0.000 A 
ATOM      7  C   UNL     1      46.907   6.640  11.844  0.00  0.00    +0.000 A 
BRANCH   5   8
ATOM      8  C   UNL     1      43.971   4.220  11.357  0.00  0.00    +0.000 C 
ATOM      9  C   UNL     1      42.795   5.149  11.712  0.00  0.00    +0.000 C 
BRANCH   8  10
ATOM     10  N   UNL     1      43.976   3.699   9.997  0.00  0.00    +0.000 NA
ATOM     11  C   UNL     1      44.248   2.273   9.823  0.00  0.00    +0.000 C 
ATOM     12  C   UNL     1      45.576   1.989   9.111  0.00  0.00    +0.000 C 
ATOM     13  O   UNL     1      45.652   2.692   7.865  0.00  0.00    +0.000 OA
ATOM     14  C   UNL     1      45.572   4.105   8.089  0.00  0.00    +0.000 C 
ATOM     15  C   UNL     1      44.284   4.509   8.828  0.00  0.00    +0.000 C 
ENDBRANCH   8  10
ENDBRANCH   5   8
ENDBRANCH   1   2
BRANCH   1  16
ATOM     16  N   UNL     1      48.273   7.112  15.084  0.00  0.00    +0.000 N 
ATOM     17  C   UNL     1      48.917   6.543  16.154  0.00  0.00    +0.000 C 
ATOM     18  O   UNL     1      49.908   5.830  16.026  0.00  0.00    +0.000 OA
ATOM     19  H   UNL     1      47.315   7.425  15.227  0.00  0.00    +0.000 HD
BRANCH  17  20
ATOM     20  C   UNL     1      48.408   6.886  17.485  0.00  0.00    +0.000 A 
ATOM     21  C   UNL     1      48.126   5.882  18.399  0.00  0.00    +0.000 A 
ATOM     22  S   UNL     1      47.505   6.459  19.879  0.00  0.00    +0.000 S 
ATOM     23  C   UNL     1      47.549   8.068  19.329  0.00  0.00    +0.000 A 
ATOM     24  N   UNL     1      47.075   9.087  20.097  0.00  0.00    +0.000 NA
ATOM     25  C   UNL     1      47.125  10.248  19.534  0.00  0.00    +0.000 A 
ATOM     26  N   UNL     1      47.636  10.485  18.278  0.00  0.00    +0.000 N 
ATOM     27  C   UNL     1      48.185   9.500  17.496  0.00  0.00    +0.000 A 
ATOM     28  O   UNL     1      48.724   9.751  16.429  0.00  0.00    +0.000 OA
ATOM     29  C   UNL     1      48.083   8.168  18.059  0.00  0.00    +0.000 A 
ATOM     30  H   UNL     1      47.683  11.425  17.911  0.00  0.00    +0.000 HD
ENDBRANCH  17  20
ENDBRANCH   1  16
BRANCH   1  31
ATOM     31  C   UNL     1      49.020   8.145  12.948  0.00  0.00    +0.000 C 
BRANCH  31  32
ATOM     32  C   UNL     1      50.310   8.737  13.452  0.00  0.00    +0.000 C 
ATOM     33  O   UNL     1      51.179   8.128  14.057  0.00  0.00    +0.000 OA
BRANCH  32  35
ATOM     34  C   UNL     1      49.050  10.715  13.075  0.00  0.00    +0.000 C 
ATOM     35  O   UNL     1      50.322  10.070  13.169  0.00  0.00    +0.000 OA
ENDBRANCH  32  35
ENDBRANCH  31  32
ENDBRANCH   1  31
TORSDOF 8
ENDMDL
MODEL 7
REMARK VINA RESULT:    -6.226      2.880      5.091
REMARK INTER + INTRA:         -10.929
REMARK INTER:                  -9.386
REMARK INTRA:                  -1.543
REMARK UNBOUND:                -1.790
REMARK  Name = 
REMARK  10 active torsions:
REMARK  status: ('A' for Active; 'I' for Inactive)
REMARK    1  A    between atoms: C_1  and  O_2
REMARK    2  A    between atoms: O_2  and  C_3
REMARK    3  A    between atoms: C_3  and  C_5
REMARK    4  A    between atoms: C_5  and  C_6
REMARK    5  A    between atoms: C_6  and  N_7
REMARK    6  A    between atoms: C_6  and  C_20
REMARK    7  A    between atoms: C_8  and  C_10
REMARK    8  A    between atoms: C_23  and  C_24
REMARK    9  A    between atoms: C_24  and  C_25
REMARK   10  A    between atoms: C_24  and  N_26
REMARK                            x       y       z     vdW  Elec       q    Type
REMARK                         _______ _______ _______ _____ _____    ______ ____
ROOT
ATOM      1  C   UNL     1      48.426   7.822  12.602  0.00  0.00    +0.000 C 
ENDROOT
BRANCH   1   2
ATOM      2  C   UNL     1      48.854   7.275  13.960  0.00  0.00    +0.000 A 
ATOM      3  C   UNL     1      48.051   6.338  14.622  0.00  0.00    +0.000 A 
ATOM      4  C   UNL     1      48.459   5.793  15.840  0.00  0.00    +0.000 A 
ATOM      5  C   UNL     1      49.695   6.140  16.412  0.00  0.00    +0.000 A 
ATOM      6  C   UNL     1      50.466   7.124  15.783  0.00  0.00    +0.000 A 
ATOM      7  C   UNL     1      50.052   7.682  14.570  0.00  0.00    +0.000 A 
BRANCH   5   8
ATOM      8  C   UNL     1      50.195   5.362  17.621  0.00  0.00    +0.000 C 
ATOM      9  C   UNL     1      51.688   5.028  17.445  0.00  0.00    +0.000 C 
BRANCH   8  10
ATOM     10  N   UNL     1      49.818   5.902  18.920  0.00  0.00    +0.000 NA
ATOM     11  C   UNL     1      50.037   5.056  20.091  0.00  0.00    +0.000 C 
ATOM     12  C   UNL     1      48.737   4.603  20.767  0.00  0.00    +0.000 C 
ATOM     13  O   UNL     1      47.902   5.724  21.081  0.00  0.00    +0.000 OA
ATOM     14  C   UNL     1      47.549   6.428  19.884  0.00  0.00    +0.000 C 
ATOM     15  C   UNL     1      48.783   6.910  19.101  0.00  0.00    +0.000 C 
ENDBRANCH   8  10
ENDBRANCH   5   8
ENDBRANCH   1   2
BRANCH   1  16
ATOM     16  N   UNL     1      47.693   6.768  11.895  0.00  0.00    +0.000 N 
ATOM     17  C   UNL     1      46.346   6.837  11.640  0.00  0.00    +0.000 C 
ATOM     18  O   UNL     1      45.669   7.820  11.928  0.00  0.00    +0.000 OA
ATOM     19  H   UNL     1      48.120   5.844  11.915  0.00  0.00    +0.000 HD
BRANCH  17  20
ATOM     20  C   UNL     1      45.753   5.699  10.933  0.00  0.00    +0.000 A 
ATOM     21  C   UNL     1      45.866   5.605   9.553  0.00  0.00    +0.000 A 
ATOM     22  S   UNL     1      45.083   4.241   8.895  0.00  0.00    +0.000 S 
ATOM     23  C   UNL     1      44.527   3.755  10.427  0.00  0.00    +0.000 A 
ATOM     24  N   UNL     1      43.714   2.673  10.570  0.00  0.00    +0.000 NA
ATOM     25  C   UNL     1      43.330   2.451  11.783  0.00  0.00    +0.000 A 
ATOM     26  N   UNL     1      43.710   3.200  12.872  0.00  0.00    +0.000 N 
ATOM     27  C   UNL     1      44.580   4.258  12.785  0.00  0.00    +0.000 A 
ATOM     28  O   UNL     1      44.984   4.843  13.779  0.00  0.00    +0.000 OA
ATOM     29  C   UNL     1      44.981   4.588  11.431  0.00  0.00    +0.000 A 
ATOM     30  H   UNL     1      43.406   2.948  13.802  0.00  0.00    +0.000 HD
ENDBRANCH  17  20
ENDBRANCH   1  16
BRANCH   1  31
ATOM     31  C   UNL     1      49.635   8.322  11.802  0.00  0.00    +0.000 C 
BRANCH  31  32
ATOM     32  C   UNL     1      49.457   9.749  11.355  0.00  0.00    +0.000 C 
ATOM     33  O   UNL     1      50.360  10.510  11.044  0.00  0.00    +0.000 OA
BRANCH  32  35
ATOM     34  C   UNL     1      47.790  11.431  11.175  0.00  0.00    +0.000 C 
ATOM     35  O   UNL     1      48.132  10.064  11.407  0.00  0.00    +0.000 OA
ENDBRANCH  32  35
ENDBRANCH  31  32
ENDBRANCH   1  31
TORSDOF 8
ENDMDL
MODEL 8
REMARK VINA RESULT:    -6.074      3.008      3.913
REMARK INTER + INTRA:         -10.705
REMARK INTER:                  -8.817
REMARK INTRA:                  -1.889
REMARK UNBOUND:                -1.790
REMARK  Name = 
REMARK  10 active torsions:
REMARK  status: ('A' for Active; 'I' for Inactive)
REMARK    1  A    between atoms: C_1  and  O_2
REMARK    2  A    between atoms: O_2  and  C_3
REMARK    3  A    between atoms: C_3  and  C_5
REMARK    4  A    between atoms: C_5  and  C_6
REMARK    5  A    between atoms: C_6  and  N_7
REMARK    6  A    between atoms: C_6  and  C_20
REMARK    7  A    between atoms: C_8  and  C_10
REMARK    8  A    between atoms: C_23  and  C_24
REMARK    9  A    between atoms: C_24  and  C_25
REMARK   10  A    between atoms: C_24  and  N_26
REMARK                            x       y       z     vdW  Elec       q    Type
REMARK                         _______ _______ _______ _____ _____    ______ ____
ROOT
ATOM      1  C   UNL     1      48.825   6.468  15.723  0.00  0.00    +0.000 C 
ENDROOT
BRANCH   1   2
ATOM      2  C   UNL     1      49.289   7.921  15.695  0.00  0.00    +0.000 A 
ATOM      3  C   UNL     1      50.599   8.230  15.311  0.00  0.00    +0.000 A 
ATOM      4  C   UNL     1      51.018   9.558  15.232  0.00  0.00    +0.000 A 
ATOM      5  C   UNL     1      50.131  10.615  15.499  0.00  0.00    +0.000 A 
ATOM      6  C   UNL     1      48.841  10.305  15.945  0.00  0.00    +0.000 A 
ATOM      7  C   UNL     1      48.425   8.973  16.039  0.00  0.00    +0.000 A 
BRANCH   5   8
ATOM      8  C   UNL     1      50.564  12.041  15.189  0.00  0.00    +0.000 C 
ATOM      9  C   UNL     1      49.329  12.904  14.869  0.00  0.00    +0.000 C 
BRANCH   8  10
ATOM     10  N   UNL     1      51.519  12.627  16.119  0.00  0.00    +0.000 NA
ATOM     11  C   UNL     1      52.895  12.796  15.654  0.00  0.00    +0.000 C 
ATOM     12  C   UNL     1      53.901  11.904  16.391  0.00  0.00    +0.000 C 
ATOM     13  O   UNL     1      53.803  12.080  17.809  0.00  0.00    +0.000 OA
ATOM     14  C   UNL     1      52.491  11.723  18.262  0.00  0.00    +0.000 C 
ATOM     15  C   UNL     1      51.388  12.540  17.566  0.00  0.00    +0.000 C 
ENDBRANCH   8  10
ENDBRANCH   5   8
ENDBRANCH   1   2
BRANCH   1  16
ATOM     16  N   UNL     1      47.660   6.343  14.844  0.00  0.00    +0.000 N 
ATOM     17  C   UNL     1      47.763   6.177  13.485  0.00  0.00    +0.000 C 
ATOM     18  O   UNL     1      48.844   6.053  12.916  0.00  0.00    +0.000 OA
ATOM     19  H   UNL     1      46.791   6.735  15.203  0.00  0.00    +0.000 HD
BRANCH  17  20
ATOM     20  C   UNL     1      46.507   6.080  12.738  0.00  0.00    +0.000 A 
ATOM     21  C   UNL     1      45.956   7.214  12.158  0.00  0.00    +0.000 A 
ATOM     22  S   UNL     1      44.475   6.925  11.364  0.00  0.00    +0.000 S 
ATOM     23  C   UNL     1      44.497   5.283  11.809  0.00  0.00    +0.000 A 
ATOM     24  N   UNL     1      43.460   4.457  11.503  0.00  0.00    +0.000 NA
ATOM     25  C   UNL     1      43.590   3.251  11.946  0.00  0.00    +0.000 A 
ATOM     26  N   UNL     1      44.681   2.789  12.644  0.00  0.00    +0.000 N 
ATOM     27  C   UNL     1      45.778   3.566  12.917  0.00  0.00    +0.000 A 
ATOM     28  O   UNL     1      46.778   3.106  13.448  0.00  0.00    +0.000 OA
ATOM     29  C   UNL     1      45.645   4.949  12.502  0.00  0.00    +0.000 A 
ATOM     30  H   UNL     1      44.739   1.821  12.928  0.00  0.00    +0.000 HD
ENDBRANCH  17  20
ENDBRANCH   1  16
BRANCH   1  31
ATOM     31  C   UNL     1      48.519   6.014  17.156  0.00  0.00    +0.000 C 
BRANCH  31  32
ATOM     32  C   UNL     1      47.860   4.660  17.183  0.00  0.00    +0.000 C 
ATOM     33  O   UNL     1      46.875   4.365  17.843  0.00  0.00    +0.000 OA
BRANCH  32  35
ATOM     34  C   UNL     1      48.461   2.415  16.692  0.00  0.00    +0.000 C 
ATOM     35  O   UNL     1      48.574   3.808  16.394  0.00  0.00    +0.000 OA
ENDBRANCH  32  35
ENDBRANCH  31  32
ENDBRANCH   1  31
TORSDOF 8
ENDMDL
MODEL 9
REMARK VINA RESULT:    -6.022      2.840      4.503
REMARK INTER + INTRA:         -10.628
REMARK INTER:                  -8.924
REMARK INTRA:                  -1.705
REMARK UNBOUND:                -1.790
REMARK  Name = 
REMARK  10 active torsions:
REMARK  status: ('A' for Active; 'I' for Inactive)
REMARK    1  A    between atoms: C_1  and  O_2
REMARK    2  A    between atoms: O_2  and  C_3
REMARK    3  A    between atoms: C_3  and  C_5
REMARK    4  A    between atoms: C_5  and  C_6
REMARK    5  A    between atoms: C_6  and  N_7
REMARK    6  A    between atoms: C_6  and  C_20
REMARK    7  A    between atoms: C_8  and  C_10
REMARK    8  A    between atoms: C_23  and  C_24
REMARK    9  A    between atoms: C_24  and  C_25
REMARK   10  A    between atoms: C_24  and  N_26
REMARK                            x       y       z     vdW  Elec       q    Type
REMARK                         _______ _______ _______ _____ _____    ______ ____
ROOT
ATOM      1  C   UNL     1      48.220   7.252  13.426  0.00  0.00    +0.000 C 
ENDROOT
BRANCH   1   2
ATOM      2  C   UNL     1      48.398   6.631  14.808  0.00  0.00    +0.000 A 
ATOM      3  C   UNL     1      47.875   5.362  15.078  0.00  0.00    +0.000 A 
ATOM      4  C   UNL     1      48.076   4.764  16.322  0.00  0.00    +0.000 A 
ATOM      5  C   UNL     1      48.838   5.401  17.317  0.00  0.00    +0.000 A 
ATOM      6  C   UNL     1      49.306   6.696  17.070  0.00  0.00    +0.000 A 
ATOM      7  C   UNL     1      49.091   7.303  15.829  0.00  0.00    +0.000 A 
BRANCH   5   8
ATOM      8  C   UNL     1      49.215   4.624  18.571  0.00  0.00    +0.000 C 
ATOM      9  C   UNL     1      48.390   3.326  18.648  0.00  0.00    +0.000 C 
BRANCH   8  10
ATOM     10  N   UNL     1      50.643   4.479  18.818  0.00  0.00    +0.000 NA
ATOM     11  C   UNL     1      51.226   5.284  19.890  0.00  0.00    +0.000 C 
ATOM     12  C   UNL     1      52.208   6.349  19.388  0.00  0.00    +0.000 C 
ATOM     13  O   UNL     1      53.222   5.766  18.562  0.00  0.00    +0.000 OA
ATOM     14  C   UNL     1      52.629   5.145  17.415  0.00  0.00    +0.000 C 
ATOM     15  C   UNL     1      51.597   4.069  17.799  0.00  0.00    +0.000 C 
ENDBRANCH   8  10
ENDBRANCH   5   8
ENDBRANCH   1   2
BRANCH   1  16
ATOM     16  N   UNL     1      47.487   6.300  12.588  0.00  0.00    +0.000 N 
ATOM     17  C   UNL     1      46.415   6.661  11.809  0.00  0.00    +0.000 C 
ATOM     18  O   UNL     1      46.035   7.824  11.706  0.00  0.00    +0.000 OA
ATOM     19  H   UNL     1      47.556   5.323  12.865  0.00  0.00    +0.000 HD
BRANCH  17  20
ATOM     20  C   UNL     1      45.777   5.593  11.035  0.00  0.00    +0.000 A 
ATOM     21  C   UNL     1      45.862   5.595   9.650  0.00  0.00    +0.000 A 
ATOM     22  S   UNL     1      45.029   4.303   8.912  0.00  0.00    +0.000 S 
ATOM     23  C   UNL     1      44.487   3.724  10.418  0.00  0.00    +0.000 A 
ATOM     24  N   UNL     1      43.647   2.657  10.500  0.00  0.00    +0.000 NA
ATOM     25  C   UNL     1      43.278   2.360  11.701  0.00  0.00    +0.000 A 
ATOM     26  N   UNL     1      43.700   3.018  12.833  0.00  0.00    +0.000 N 
ATOM     27  C   UNL     1      44.598   4.055  12.804  0.00  0.00    +0.000 A 
ATOM     28  O   UNL     1      45.036   4.557  13.828  0.00  0.00    +0.000 OA
ATOM     29  C   UNL     1      44.983   4.471  11.469  0.00  0.00    +0.000 A 
ATOM     30  H   UNL     1      43.405   2.709  13.749  0.00  0.00    +0.000 HD
ENDBRANCH  17  20
ENDBRANCH   1  16
BRANCH   1  31
ATOM     31  C   UNL     1      49.572   7.638  12.815  0.00  0.00    +0.000 C 
BRANCH  31  32
ATOM     32  C   UNL     1      49.604   9.084  12.396  0.00  0.00    +0.000 C 
ATOM     33  O   UNL     1      48.629   9.815  12.304  0.00  0.00    +0.000 OA
BRANCH  32  35
ATOM     34  C   UNL     1      51.058  10.396  11.053  0.00  0.00    +0.000 C 
ATOM     35  O   UNL     1      50.886   9.424  12.086  0.00  0.00    +0.000 OA
ENDBRANCH  32  35
ENDBRANCH  31  32
ENDBRANCH   1  31
TORSDOF 8
ENDMDL
