MODEL 1
REMARK VINA RESULT:    -7.843      0.000      0.000
REMARK INTER + INTRA:         -12.234
REMARK INTER:                 -11.053
REMARK INTRA:                  -1.181
REMARK UNBOUND:                -1.181
REMARK  Name = 
REMARK  8 active torsions:
REMARK  status: ('A' for Active; 'I' for Inactive)
REMARK    1  A    between atoms: C_1  and  O_2
REMARK    2  A    between atoms: O_2  and  C_3
REMARK    3  A    between atoms: C_7  and  C_8
REMARK    4  A    between atoms: C_8  and  N_9
REMARK    5  A    between atoms: N_9  and  C_10
REMARK    6  A    between atoms: C_13  and  C_14
REMARK    7  A    between atoms: C_14  and  N_15
REMARK    8  A    between atoms: C_16  and  C_18
REMARK                            x       y       z     vdW  Elec       q    Type
REMARK                         _______ _______ _______ _____ _____    ______ ____
ROOT
ATOM      1  C   UNL     1      45.143   6.696  11.210  0.00  0.00    +0.000 A 
ATOM      2  C   UNL     1      46.369   6.084  11.502  0.00  0.00    +0.000 A 
ATOM      3  C   UNL     1      47.266   6.653  12.420  0.00  0.00    +0.000 A 
ATOM      4  C   UNL     1      46.963   7.865  13.049  0.00  0.00    +0.000 A 
ATOM      5  C   UNL     1      45.784   8.523  12.694  0.00  0.00    +0.000 A 
ATOM      6  C   UNL     1      44.895   7.951  11.779  0.00  0.00    +0.000 A 
ENDROOT
BRANCH   1   7
ATOM      7  N   UNL     1      44.284   6.107  10.261  0.00  0.00    +0.000 N 
ATOM      8  H   UNL     1      44.661   6.217   9.319  0.00  0.00    +0.000 HD
BRANCH   7   9
ATOM      9  C   UNL     1      43.929   4.704  10.500  0.00  0.00    +0.000 C 
BRANCH   9  14
ATOM     10  C   UNL     1      45.880   3.557   7.595  0.00  0.00    +0.000 A 
ATOM     11  C   UNL     1      45.975   2.184   7.748  0.00  0.00    +0.000 A 
ATOM     12  C   UNL     1      45.336   1.596   8.835  0.00  0.00    +0.000 A 
ATOM     13  C   UNL     1      44.638   2.403   9.730  0.00  0.00    +0.000 A 
ATOM     14  C   UNL     1      44.598   3.777   9.507  0.00  0.00    +0.000 A 
ATOM     15  N   UNL     1      45.204   4.359   8.443  0.00  0.00    +0.000 NA
BRANCH  10  17
ATOM     16  C   UNL     1      46.979   3.135   5.582  0.00  0.00    +0.000 C 
ATOM     17  O   UNL     1      46.550   4.115   6.525  0.00  0.00    +0.000 OA
ENDBRANCH  10  17
ENDBRANCH   9  14
ENDBRANCH   7   9
ENDBRANCH   1   7
BRANCH   4  18
ATOM     18  C   UNL     1      47.890   8.487  14.056  0.00  0.00    +0.000 C 
BRANCH  18  19
ATOM     19  N   UNL     1      48.081   7.636  15.203  0.00  0.00    +0.000 N 
ATOM     20  C   UNL     1      49.263   6.966  15.381  0.00  0.00    +0.000 C 
ATOM     21  O   UNL     1      50.211   7.106  14.614  0.00  0.00    +0.000 OA
ATOM     22  H   UNL     1      47.250   7.337  15.704  0.00  0.00    +0.000 HD
BRANCH  20  23
ATOM     23  C   UNL     1      49.363   6.105  16.567  0.00  0.00    +0.000 A 
ATOM     24  C   UNL     1      50.334   6.370  17.522  0.00  0.00    +0.000 A 
ATOM     25  S   UNL     1      50.294   5.308  18.854  0.00  0.00    +0.000 S 
ATOM     26  C   UNL     1      49.009   4.424  18.180  0.00  0.00    +0.000 A 
ATOM     27  N   UNL     1      48.497   3.336  18.814  0.00  0.00    +0.000 NA
ATOM     28  C   UNL     1      47.546   2.742  18.178  0.00  0.00    +0.000 A 
ATOM     29  N   UNL     1      47.051   3.142  16.964  0.00  0.00    +0.000 N 
ATOM     30  C   UNL     1      47.518   4.249  16.293  0.00  0.00    +0.000 A 
ATOM     31  O   UNL     1      47.029   4.603  15.226  0.00  0.00    +0.000 OA
ATOM     32  C   UNL     1      48.600   4.946  16.964  0.00  0.00    +0.000 A 
ATOM     33  H   UNL     1      46.297   2.639  16.520  0.00  0.00    +0.000 HD
ENDBRANCH  20  23
ENDBRANCH  18  19
ENDBRANCH   4  18
TORSDOF 7
ENDMDL
MODEL 2
REMARK VINA RESULT:    -7.748      1.976      2.476
REMARK INTER + INTRA:         -12.100
REMARK INTER:                 -10.884
REMARK INTRA:                  -1.215
REMARK UNBOUND:                -1.181
REMARK  Name = 
REMARK  8 active torsions:
REMARK  status: ('A' for Active; 'I' for Inactive)
REMARK    1  A    between atoms: C_1  and  O_2
REMARK    2  A    between atoms: O_2  and  C_3
REMARK    3  A    between atoms: C_7  and  C_8
REMARK    4  A    between atoms: C_8  and  N_9
REMARK    5  A    between atoms: N_9  and  C_10
REMARK    6  A    between atoms: C_13  and  C_14
REMARK    7  A    between atoms: C_14  and  N_15
REMARK    8  A    between atoms: C_16  and  C_18
REMARK                            x       y       z     vdW  Elec       q    Type
REMARK                         _______ _______ _______ _____ _____    ______ ____
ROOT
ATOM      1  C   UNL     1      45.184   3.859  12.755  0.00  0.00    +0.000 A 
ATOM      2  C   UNL     1      44.738   5.187  12.760  0.00  0.00    +0.000 A 
ATOM      3  C   UNL     1      45.587   6.238  13.136  0.00  0.00    +0.000 A 
ATOM      4  C   UNL     1      46.901   5.979  13.543  0.00  0.00    +0.000 A 
ATOM      5  C   UNL     1      47.321   4.650  13.625  0.00  0.00    +0.000 A 
ATOM      6  C   UNL     1      46.470   3.607  13.249  0.00  0.00    +0.000 A 
ENDROOT
BRANCH   1   7
ATOM      7  N   UNL     1      44.291   2.829  12.399  0.00  0.00    +0.000 N 
ATOM      8  H   UNL     1      43.650   2.628  13.166  0.00  0.00    +0.000 HD
BRANCH   7   9
ATOM      9  C   UNL     1      43.539   3.034  11.156  0.00  0.00    +0.000 C 
BRANCH   9  14
ATOM     10  C   UNL     1      45.812   1.947   8.471  0.00  0.00    +0.000 A 
ATOM     11  C   UNL     1      45.992   3.068   7.678  0.00  0.00    +0.000 A 
ATOM     12  C   UNL     1      45.370   4.251   8.062  0.00  0.00    +0.000 A 
ATOM     13  C   UNL     1      44.586   4.266   9.213  0.00  0.00    +0.000 A 
ATOM     14  C   UNL     1      44.452   3.091   9.949  0.00  0.00    +0.000 A 
ATOM     15  N   UNL     1      45.066   1.937   9.594  0.00  0.00    +0.000 NA
BRANCH  10  17
ATOM     16  C   UNL     1      47.330   0.998   6.976  0.00  0.00    +0.000 C 
ATOM     17  O   UNL     1      46.417   0.780   8.049  0.00  0.00    +0.000 OA
ENDBRANCH  10  17
ENDBRANCH   9  14
ENDBRANCH   7   9
ENDBRANCH   1   7
BRANCH   4  18
ATOM     18  C   UNL     1      47.843   7.085  13.927  0.00  0.00    +0.000 C 
BRANCH  18  19
ATOM     19  N   UNL     1      48.143   7.066  15.336  0.00  0.00    +0.000 N 
ATOM     20  C   UNL     1      49.437   6.938  15.768  0.00  0.00    +0.000 C 
ATOM     21  O   UNL     1      50.382   6.894  14.987  0.00  0.00    +0.000 OA
ATOM     22  H   UNL     1      47.375   6.872  15.973  0.00  0.00    +0.000 HD
BRANCH  20  23
ATOM     23  C   UNL     1      49.648   6.907  17.222  0.00  0.00    +0.000 A 
ATOM     24  C   UNL     1      50.396   7.911  17.824  0.00  0.00    +0.000 A 
ATOM     25  S   UNL     1      50.515   7.755  19.517  0.00  0.00    +0.000 S 
ATOM     26  C   UNL     1      49.614   6.314  19.502  0.00  0.00    +0.000 A 
ATOM     27  N   UNL     1      49.365   5.631  20.651  0.00  0.00    +0.000 NA
ATOM     28  C   UNL     1      48.696   4.541  20.493  0.00  0.00    +0.000 A 
ATOM     29  N   UNL     1      48.241   4.073  19.287  0.00  0.00    +0.000 N 
ATOM     30  C   UNL     1      48.445   4.739  18.100  0.00  0.00    +0.000 A 
ATOM     31  O   UNL     1      47.993   4.313  17.043  0.00  0.00    +0.000 OA
ATOM     32  C   UNL     1      49.206   5.968  18.225  0.00  0.00    +0.000 A 
ATOM     33  H   UNL     1      47.713   3.215  19.230  0.00  0.00    +0.000 HD
ENDBRANCH  20  23
ENDBRANCH  18  19
ENDBRANCH   4  18
TORSDOF 7
ENDMDL
MODEL 3
REMARK VINA RESULT:    -7.350      2.227      2.811
REMARK INTER + INTRA:         -11.538
REMARK INTER:                 -10.809
REMARK INTRA:                  -0.729
REMARK UNBOUND:                -1.181
REMARK  Name = 
REMARK  8 active torsions:
REMARK  status: ('A' for Active; 'I' for Inactive)
REMARK    1  A    between atoms: C_1  and  O_2
REMARK    2  A    between atoms: O_2  and  C_3
REMARK    3  A    between atoms: C_7  and  C_8
REMARK    4  A    between atoms: C_8  and  N_9
REMARK    5  A    between atoms: N_9  and  C_10
REMARK    6  A    between atoms: C_13  and  C_14
REMARK    7  A    between atoms: C_14  and  N_15
REMARK    8  A    between atoms: C_16  and  C_18
REMARK                            x       y       z     vdW  Elec       q    Type
REMARK                         _______ _______ _______ _____ _____    ______ ____
ROOT
ATOM      1  C   UNL     1      44.846   4.868  11.376  0.00  0.00    +0.000 A 
ATOM      2  C   UNL     1      45.482   4.257  12.465  0.00  0.00    +0.000 A 
ATOM      3  C   UNL     1      46.424   4.950  13.239  0.00  0.00    +0.000 A 
ATOM      4  C   UNL     1      46.771   6.269  12.924  0.00  0.00    +0.000 A 
ATOM      5  C   UNL     1      46.207   6.850  11.786  0.00  0.00    +0.000 A 
ATOM      6  C   UNL     1      45.268   6.155  11.019  0.00  0.00    +0.000 A 
ENDROOT
BRANCH   1   7
ATOM      7  N   UNL     1      43.927   4.128  10.605  0.00  0.00    +0.000 N 
ATOM      8  H   UNL     1      43.621   4.668   9.796  0.00  0.00    +0.000 HD
BRANCH   7   9
ATOM      9  C   UNL     1      44.373   2.796  10.181  0.00  0.00    +0.000 C 
BRANCH   9  14
ATOM     10  C   UNL     1      46.624   1.731   7.469  0.00  0.00    +0.000 A 
ATOM     11  C   UNL     1      46.902   2.887   6.759  0.00  0.00    +0.000 A 
ATOM     12  C   UNL     1      46.357   4.084   7.212  0.00  0.00    +0.000 A 
ATOM     13  C   UNL     1      45.550   4.077   8.347  0.00  0.00    +0.000 A 
ATOM     14  C   UNL     1      45.315   2.868   8.998  0.00  0.00    +0.000 A 
ATOM     15  N   UNL     1      45.853   1.699   8.575  0.00  0.00    +0.000 NA
BRANCH  10  17
ATOM     16  C   UNL     1      46.695  -0.589   7.697  0.00  0.00    +0.000 C 
ATOM     17  O   UNL     1      47.153   0.554   6.978  0.00  0.00    +0.000 OA
ENDBRANCH  10  17
ENDBRANCH   9  14
ENDBRANCH   7   9
ENDBRANCH   1   7
BRANCH   4  18
ATOM     18  C   UNL     1      47.757   7.047  13.749  0.00  0.00    +0.000 C 
BRANCH  18  19
ATOM     19  N   UNL     1      47.741   6.634  15.129  0.00  0.00    +0.000 N 
ATOM     20  C   UNL     1      48.914   6.387  15.794  0.00  0.00    +0.000 C 
ATOM     21  O   UNL     1      50.008   6.560  15.267  0.00  0.00    +0.000 OA
ATOM     22  H   UNL     1      46.865   6.273  15.497  0.00  0.00    +0.000 HD
BRANCH  20  23
ATOM     23  C   UNL     1      48.802   5.952  17.193  0.00  0.00    +0.000 A 
ATOM     24  C   UNL     1      49.131   4.646  17.528  0.00  0.00    +0.000 A 
ATOM     25  S   UNL     1      48.987   4.308  19.193  0.00  0.00    +0.000 S 
ATOM     26  C   UNL     1      48.433   5.881  19.519  0.00  0.00    +0.000 A 
ATOM     27  N   UNL     1      48.093   6.257  20.780  0.00  0.00    +0.000 NA
ATOM     28  C   UNL     1      47.660   7.468  20.881  0.00  0.00    +0.000 A 
ATOM     29  N   UNL     1      47.545   8.344  19.833  0.00  0.00    +0.000 N 
ATOM     30  C   UNL     1      47.898   8.020  18.543  0.00  0.00    +0.000 A 
ATOM     31  O   UNL     1      47.818   8.839  17.634  0.00  0.00    +0.000 OA
ATOM     32  C   UNL     1      48.380   6.662  18.376  0.00  0.00    +0.000 A 
ATOM     33  H   UNL     1      47.207   9.284  19.979  0.00  0.00    +0.000 HD
ENDBRANCH  20  23
ENDBRANCH  18  19
ENDBRANCH   4  18
TORSDOF 7
ENDMDL
MODEL 4
REMARK VINA RESULT:    -7.273      2.431      3.273
REMARK INTER + INTRA:         -11.430
REMARK INTER:                 -10.317
REMARK INTRA:                  -1.113
REMARK UNBOUND:                -1.181
REMARK  Name = 
REMARK  8 active torsions:
REMARK  status: ('A' for Active; 'I' for Inactive)
REMARK    1  A    between atoms: C_1  and  O_2
REMARK    2  A    between atoms: O_2  and  C_3
REMARK    3  A    between atoms: C_7  and  C_8
REMARK    4  A    between atoms: C_8  and  N_9
REMARK    5  A    between atoms: N_9  and  C_10
REMARK    6  A    between atoms: C_13  and  C_14
REMARK    7  A    between atoms: C_14  and  N_15
REMARK    8  A    between atoms: C_16  and  C_18
REMARK                            x       y       z     vdW  Elec       q    Type
REMARK                         _______ _______ _______ _____ _____    ______ ____
ROOT
ATOM      1  C   UNL     1      45.117   4.949  12.203  0.00  0.00    +0.000 A 
ATOM      2  C   UNL     1      45.567   6.227  11.847  0.00  0.00    +0.000 A 
ATOM      3  C   UNL     1      46.655   6.824  12.502  0.00  0.00    +0.000 A 
ATOM      4  C   UNL     1      47.304   6.160  13.549  0.00  0.00    +0.000 A 
ATOM      5  C   UNL     1      46.803   4.925  13.966  0.00  0.00    +0.000 A 
ATOM      6  C   UNL     1      45.719   4.336  13.309  0.00  0.00    +0.000 A 
ENDROOT
BRANCH   1   7
ATOM      7  N   UNL     1      44.003   4.397  11.541  0.00  0.00    +0.000 N 
ATOM      8  H   UNL     1      43.142   4.619  12.041  0.00  0.00    +0.000 HD
BRANCH   7   9
ATOM      9  C   UNL     1      43.863   4.744  10.122  0.00  0.00    +0.000 C 
BRANCH   9  14
ATOM     10  C   UNL     1      46.008   3.503   7.398  0.00  0.00    +0.000 A 
ATOM     11  C   UNL     1      46.172   2.152   7.658  0.00  0.00    +0.000 A 
ATOM     12  C   UNL     1      45.516   1.610   8.759  0.00  0.00    +0.000 A 
ATOM     13  C   UNL     1      44.733   2.438   9.560  0.00  0.00    +0.000 A 
ATOM     14  C   UNL     1      44.628   3.788   9.231  0.00  0.00    +0.000 A 
ATOM     15  N   UNL     1      45.250   4.323   8.153  0.00  0.00    +0.000 NA
BRANCH  10  17
ATOM     16  C   UNL     1      47.140   3.003   5.422  0.00  0.00    +0.000 C 
ATOM     17  O   UNL     1      46.695   4.018   6.318  0.00  0.00    +0.000 OA
ENDBRANCH  10  17
ENDBRANCH   9  14
ENDBRANCH   7   9
ENDBRANCH   1   7
BRANCH   4  18
ATOM     18  C   UNL     1      48.489   6.761  14.253  0.00  0.00    +0.000 C 
BRANCH  18  19
ATOM     19  N   UNL     1      48.203   7.038  15.637  0.00  0.00    +0.000 N 
ATOM     20  C   UNL     1      48.802   6.306  16.629  0.00  0.00    +0.000 C 
ATOM     21  O   UNL     1      49.635   5.439  16.384  0.00  0.00    +0.000 OA
ATOM     22  H   UNL     1      47.368   7.577  15.842  0.00  0.00    +0.000 HD
BRANCH  20  23
ATOM     23  C   UNL     1      48.437   6.643  18.012  0.00  0.00    +0.000 A 
ATOM     24  C   UNL     1      47.910   5.659  18.837  0.00  0.00    +0.000 A 
ATOM     25  S   UNL     1      47.576   6.198  20.420  0.00  0.00    +0.000 S 
ATOM     26  C   UNL     1      48.078   7.777  20.046  0.00  0.00    +0.000 A 
ATOM     27  N   UNL     1      48.021   8.769  20.974  0.00  0.00    +0.000 NA
ATOM     28  C   UNL     1      48.404   9.925  20.549  0.00  0.00    +0.000 A 
ATOM     29  N   UNL     1      48.850  10.179  19.278  0.00  0.00    +0.000 N 
ATOM     30  C   UNL     1      48.949   9.206  18.310  0.00  0.00    +0.000 A 
ATOM     31  O   UNL     1      49.387   9.459  17.193  0.00  0.00    +0.000 OA
ATOM     32  C   UNL     1      48.517   7.889  18.737  0.00  0.00    +0.000 A 
ATOM     33  H   UNL     1      49.146  11.106  19.008  0.00  0.00    +0.000 HD
ENDBRANCH  20  23
ENDBRANCH  18  19
ENDBRANCH   4  18
TORSDOF 7
ENDMDL
MODEL 5
REMARK VINA RESULT:    -6.739      3.403      7.729
REMARK INTER + INTRA:         -10.678
REMARK INTER:                  -9.403
REMARK INTRA:                  -1.275
REMARK UNBOUND:                -1.181
REMARK  Name = 
REMARK  8 active torsions:
REMARK  status: ('A' for Active; 'I' for Inactive)
REMARK    1  A    between atoms: C_1  and  O_2
REMARK    2  A    between atoms: O_2  and  C_3
REMARK    3  A    between atoms: C_7  and  C_8
REMARK    4  A    between atoms: C_8  and  N_9
REMARK    5  A    between atoms: N_9  and  C_10
REMARK    6  A    between atoms: C_13  and  C_14
REMARK    7  A    between atoms: C_14  and  N_15
REMARK    8  A    between atoms: C_16  and  C_18
REMARK                            x       y       z     vdW  Elec       q    Type
REMARK                         _______ _______ _______ _____ _____    ______ ____
ROOT
ATOM      1  C   UNL     1      49.972   6.944  18.409  0.00  0.00    +0.000 A 
ATOM      2  C   UNL     1      50.522   6.844  17.124  0.00  0.00    +0.000 A 
ATOM      3  C   UNL     1      49.995   7.573  16.048  0.00  0.00    +0.000 A 
ATOM      4  C   UNL     1      48.883   8.404  16.230  0.00  0.00    +0.000 A 
ATOM      5  C   UNL     1      48.278   8.438  17.488  0.00  0.00    +0.000 A 
ATOM      6  C   UNL     1      48.808   7.709  18.556  0.00  0.00    +0.000 A 
ENDROOT
BRANCH   1   7
ATOM      7  N   UNL     1      50.512   6.173  19.457  0.00  0.00    +0.000 N 
ATOM      8  H   UNL     1      50.751   6.765  20.252  0.00  0.00    +0.000 HD
BRANCH   7   9
ATOM      9  C   UNL     1      49.698   5.037  19.903  0.00  0.00    +0.000 C 
BRANCH   9  14
ATOM     10  C   UNL     1      49.660   2.576  17.162  0.00  0.00    +0.000 A 
ATOM     11  C   UNL     1      48.347   2.551  16.722  0.00  0.00    +0.000 A 
ATOM     12  C   UNL     1      47.434   3.410  17.325  0.00  0.00    +0.000 A 
ATOM     13  C   UNL     1      47.865   4.251  18.349  0.00  0.00    +0.000 A 
ATOM     14  C   UNL     1      49.202   4.208  18.736  0.00  0.00    +0.000 A 
ATOM     15  N   UNL     1      50.104   3.387  18.145  0.00  0.00    +0.000 NA
BRANCH  10  17
ATOM     16  C   UNL     1      51.660   1.402  17.393  0.00  0.00    +0.000 C 
ATOM     17  O   UNL     1      50.535   1.692  16.567  0.00  0.00    +0.000 OA
ENDBRANCH  10  17
ENDBRANCH   9  14
ENDBRANCH   7   9
ENDBRANCH   1   7
BRANCH   4  18
ATOM     18  C   UNL     1      48.311   9.218  15.103  0.00  0.00    +0.000 C 
BRANCH  18  19
ATOM     19  N   UNL     1      47.221   8.537  14.454  0.00  0.00    +0.000 N 
ATOM     20  C   UNL     1      47.452   7.735  13.366  0.00  0.00    +0.000 C 
ATOM     21  O   UNL     1      48.585   7.524  12.945  0.00  0.00    +0.000 OA
ATOM     22  H   UNL     1      46.282   8.876  14.641  0.00  0.00    +0.000 HD
BRANCH  20  23
ATOM     23  C   UNL     1      46.280   7.096  12.755  0.00  0.00    +0.000 A 
ATOM     24  C   UNL     1      45.344   7.879  12.092  0.00  0.00    +0.000 A 
ATOM     25  S   UNL     1      44.066   6.985  11.405  0.00  0.00    +0.000 S 
ATOM     26  C   UNL     1      44.690   5.525  12.009  0.00  0.00    +0.000 A 
ATOM     27  N   UNL     1      44.046   4.347  11.797  0.00  0.00    +0.000 NA
ATOM     28  C   UNL     1      44.612   3.321  12.335  0.00  0.00    +0.000 A 
ATOM     29  N   UNL     1      45.775   3.364  13.060  0.00  0.00    +0.000 N 
ATOM     30  C   UNL     1      46.477   4.526  13.283  0.00  0.00    +0.000 A 
ATOM     31  O   UNL     1      47.533   4.525  13.905  0.00  0.00    +0.000 OA
ATOM     32  C   UNL     1      45.871   5.712  12.707  0.00  0.00    +0.000 A 
ATOM     33  H   UNL     1      46.174   2.522  13.449  0.00  0.00    +0.000 HD
ENDBRANCH  20  23
ENDBRANCH  18  19
ENDBRANCH   4  18
TORSDOF 7
ENDMDL
MODEL 6
REMARK VINA RESULT:    -6.645      2.837      8.209
REMARK INTER + INTRA:         -10.545
REMARK INTER:                  -9.330
REMARK INTRA:                  -1.215
REMARK UNBOUND:                -1.181
REMARK  Name = 
REMARK  8 active torsions:
REMARK  status: ('A' for Active; 'I' for Inactive)
REMARK    1  A    between atoms: C_1  and  O_2
REMARK    2  A    between atoms: O_2  and  C_3
REMARK    3  A    between atoms: C_7  and  C_8
REMARK    4  A    between atoms: C_8  and  N_9
REMARK    5  A    between atoms: N_9  and  C_10
REMARK    6  A    between atoms: C_13  and  C_14
REMARK    7  A    between atoms: C_14  and  N_15
REMARK    8  A    between atoms: C_16  and  C_18
REMARK                            x       y       z     vdW  Elec       q    Type
REMARK                         _______ _______ _______ _____ _____    ______ ____
ROOT
ATOM      1  C   UNL     1      49.715   8.275  15.587  0.00  0.00    +0.000 A 
ATOM      2  C   UNL     1      50.112   7.396  14.571  0.00  0.00    +0.000 A 
ATOM      3  C   UNL     1      49.400   7.307  13.365  0.00  0.00    +0.000 A 
ATOM      4  C   UNL     1      48.253   8.083  13.160  0.00  0.00    +0.000 A 
ATOM      5  C   UNL     1      47.803   8.893  14.204  0.00  0.00    +0.000 A 
ATOM      6  C   UNL     1      48.517   8.977  15.403  0.00  0.00    +0.000 A 
ENDROOT
BRANCH   1   7
ATOM      7  N   UNL     1      50.440   8.312  16.794  0.00  0.00    +0.000 N 
ATOM      8  H   UNL     1      50.824   9.244  16.953  0.00  0.00    +0.000 HD
BRANCH   7   9
ATOM      9  C   UNL     1      49.722   7.854  17.988  0.00  0.00    +0.000 C 
BRANCH   9  14
ATOM     10  C   UNL     1      50.013   4.206  17.575  0.00  0.00    +0.000 A 
ATOM     11  C   UNL     1      48.747   3.713  17.841  0.00  0.00    +0.000 A 
ATOM     12  C   UNL     1      47.735   4.622  18.133  0.00  0.00    +0.000 A 
ATOM     13  C   UNL     1      48.030   5.984  18.158  0.00  0.00    +0.000 A 
ATOM     14  C   UNL     1      49.333   6.394  17.885  0.00  0.00    +0.000 A 
ATOM     15  N   UNL     1      50.322   5.519  17.584  0.00  0.00    +0.000 NA
BRANCH  10  17
ATOM     16  C   UNL     1      50.476   1.984  17.044  0.00  0.00    +0.000 C 
ATOM     17  O   UNL     1      51.003   3.279  17.319  0.00  0.00    +0.000 OA
ENDBRANCH  10  17
ENDBRANCH   9  14
ENDBRANCH   7   9
ENDBRANCH   1   7
BRANCH   4  18
ATOM     18  C   UNL     1      47.483   8.031  11.870  0.00  0.00    +0.000 C 
BRANCH  18  19
ATOM     19  N   UNL     1      46.831   6.759  11.689  0.00  0.00    +0.000 N 
ATOM     20  C   UNL     1      45.463   6.673  11.692  0.00  0.00    +0.000 C 
ATOM     21  O   UNL     1      44.750   7.667  11.790  0.00  0.00    +0.000 OA
ATOM     22  H   UNL     1      47.390   5.924  11.836  0.00  0.00    +0.000 HD
BRANCH  20  23
ATOM     23  C   UNL     1      44.884   5.334  11.521  0.00  0.00    +0.000 A 
ATOM     24  C   UNL     1      44.186   4.754  12.572  0.00  0.00    +0.000 A 
ATOM     25  S   UNL     1      43.543   3.219  12.203  0.00  0.00    +0.000 S 
ATOM     26  C   UNL     1      44.215   3.252  10.642  0.00  0.00    +0.000 A 
ATOM     27  N   UNL     1      44.060   2.205   9.790  0.00  0.00    +0.000 NA
ATOM     28  C   UNL     1      44.646   2.350   8.650  0.00  0.00    +0.000 A 
ATOM     29  N   UNL     1      45.367   3.455   8.279  0.00  0.00    +0.000 N 
ATOM     30  C   UNL     1      45.533   4.550   9.095  0.00  0.00    +0.000 A 
ATOM     31  O   UNL     1      46.153   5.539   8.719  0.00  0.00    +0.000 OA
ATOM     32  C   UNL     1      44.902   4.430  10.396  0.00  0.00    +0.000 A 
ATOM     33  H   UNL     1      45.795   3.512   7.366  0.00  0.00    +0.000 HD
ENDBRANCH  20  23
ENDBRANCH  18  19
ENDBRANCH   4  18
TORSDOF 7
ENDMDL
MODEL 7
REMARK VINA RESULT:    -6.625      2.078      2.888
REMARK INTER + INTRA:         -10.517
REMARK INTER:                  -9.534
REMARK INTRA:                  -0.982
REMARK UNBOUND:                -1.181
REMARK  Name = 
REMARK  8 active torsions:
REMARK  status: ('A' for Active; 'I' for Inactive)
REMARK    1  A    between atoms: C_1  and  O_2
REMARK    2  A    between atoms: O_2  and  C_3
REMARK    3  A    between atoms: C_7  and  C_8
REMARK    4  A    between atoms: C_8  and  N_9
REMARK    5  A    between atoms: N_9  and  C_10
REMARK    6  A    between atoms: C_13  and  C_14
REMARK    7  A    between atoms: C_14  and  N_15
REMARK    8  A    between atoms: C_16  and  C_18
REMARK                            x       y       z     vdW  Elec       q    Type
REMARK                         _______ _______ _______ _____ _____    ______ ____
ROOT
ATOM      1  C   UNL     1      44.964   5.315  12.527  0.00  0.00    +0.000 A 
ATOM      2  C   UNL     1      45.771   4.512  13.345  0.00  0.00    +0.000 A 
ATOM      3  C   UNL     1      46.945   5.013  13.927  0.00  0.00    +0.000 A 
ATOM      4  C   UNL     1      47.352   6.330  13.682  0.00  0.00    +0.000 A 
ATOM      5  C   UNL     1      46.600   7.105  12.797  0.00  0.00    +0.000 A 
ATOM      6  C   UNL     1      45.431   6.599  12.221  0.00  0.00    +0.000 A 
ENDROOT
BRANCH   1   7
ATOM      7  N   UNL     1      43.809   4.765  11.938  0.00  0.00    +0.000 N 
ATOM      8  H   UNL     1      42.977   5.031  12.464  0.00  0.00    +0.000 HD
BRANCH   7   9
ATOM      9  C   UNL     1      43.616   5.054  10.513  0.00  0.00    +0.000 C 
BRANCH   9  14
ATOM     10  C   UNL     1      45.745   3.663   7.849  0.00  0.00    +0.000 A 
ATOM     11  C   UNL     1      45.772   2.299   8.088  0.00  0.00    +0.000 A 
ATOM     12  C   UNL     1      45.025   1.803   9.152  0.00  0.00    +0.000 A 
ATOM     13  C   UNL     1      44.291   2.687   9.939  0.00  0.00    +0.000 A 
ATOM     14  C   UNL     1      44.325   4.046   9.633  0.00  0.00    +0.000 A 
ATOM     15  N   UNL     1      45.036   4.538   8.591  0.00  0.00    +0.000 NA
BRANCH  10  17
ATOM     16  C   UNL     1      46.859   3.102   5.879  0.00  0.00    +0.000 C 
ATOM     17  O   UNL     1      46.520   4.130   6.807  0.00  0.00    +0.000 OA
ENDBRANCH  10  17
ENDBRANCH   9  14
ENDBRANCH   7   9
ENDBRANCH   1   7
BRANCH   4  18
ATOM     18  C   UNL     1      48.590   6.905  14.311  0.00  0.00    +0.000 C 
BRANCH  18  19
ATOM     19  N   UNL     1      48.880   6.287  15.580  0.00  0.00    +0.000 N 
ATOM     20  C   UNL     1      48.874   7.031  16.732  0.00  0.00    +0.000 C 
ATOM     21  O   UNL     1      48.571   8.219  16.736  0.00  0.00    +0.000 OA
ATOM     22  H   UNL     1      49.345   5.384  15.563  0.00  0.00    +0.000 HD
BRANCH  20  23
ATOM     23  C   UNL     1      49.199   6.323  17.977  0.00  0.00    +0.000 A 
ATOM     24  C   UNL     1      48.273   5.447  18.526  0.00  0.00    +0.000 A 
ATOM     25  S   UNL     1      48.815   4.676  19.946  0.00  0.00    +0.000 S 
ATOM     26  C   UNL     1      50.289   5.521  19.906  0.00  0.00    +0.000 A 
ATOM     27  N   UNL     1      51.225   5.343  20.876  0.00  0.00    +0.000 NA
ATOM     28  C   UNL     1      52.283   6.067  20.740  0.00  0.00    +0.000 A 
ATOM     29  N   UNL     1      52.497   6.950  19.713  0.00  0.00    +0.000 N 
ATOM     30  C   UNL     1      51.592   7.148  18.695  0.00  0.00    +0.000 A 
ATOM     31  O   UNL     1      51.829   7.918  17.771  0.00  0.00    +0.000 OA
ATOM     32  C   UNL     1      50.377   6.364  18.811  0.00  0.00    +0.000 A 
ATOM     33  H   UNL     1      53.353   7.483  19.657  0.00  0.00    +0.000 HD
ENDBRANCH  20  23
ENDBRANCH  18  19
ENDBRANCH   4  18
TORSDOF 7
ENDMDL
MODEL 8
REMARK VINA RESULT:    -6.491      3.731      5.737
REMARK INTER + INTRA:         -10.328
REMARK INTER:                  -9.483
REMARK INTRA:                  -0.846
REMARK UNBOUND:                -1.181
REMARK  Name = 
REMARK  8 active torsions:
REMARK  status: ('A' for Active; 'I' for Inactive)
REMARK    1  A    between atoms: C_1  and  O_2
REMARK    2  A    between atoms: O_2  and  C_3
REMARK    3  A    between atoms: C_7  and  C_8
REMARK    4  A    between atoms: C_8  and  N_9
REMARK    5  A    between atoms: N_9  and  C_10
REMARK    6  A    between atoms: C_13  and  C_14
REMARK    7  A    between atoms: C_14  and  N_15
REMARK    8  A    between atoms: C_16  and  C_18
REMARK                            x       y       z     vdW  Elec       q    Type
REMARK                         _______ _______ _______ _____ _____    ______ ____
ROOT
ATOM      1  C   UNL     1      44.759   6.773  12.017  0.00  0.00    +0.000 A 
ATOM      2  C   UNL     1      44.203   5.539  12.379  0.00  0.00    +0.000 A 
ATOM      3  C   UNL     1      44.899   4.641  13.203  0.00  0.00    +0.000 A 
ATOM      4  C   UNL     1      46.183   4.951  13.665  0.00  0.00    +0.000 A 
ATOM      5  C   UNL     1      46.775   6.140  13.235  0.00  0.00    +0.000 A 
ATOM      6  C   UNL     1      46.077   7.030  12.414  0.00  0.00    +0.000 A 
ENDROOT
BRANCH   1   7
ATOM      7  N   UNL     1      44.040   7.633  11.164  0.00  0.00    +0.000 N 
ATOM      8  H   UNL     1      43.035   7.491  11.275  0.00  0.00    +0.000 HD
BRANCH   7   9
ATOM      9  C   UNL     1      44.360   9.061  11.274  0.00  0.00    +0.000 C 
BRANCH   9  14
ATOM     10  C   UNL     1      41.143  10.676  10.498  0.00  0.00    +0.000 A 
ATOM     11  C   UNL     1      41.430  11.577   9.486  0.00  0.00    +0.000 A 
ATOM     12  C   UNL     1      42.734  11.633   9.004  0.00  0.00    +0.000 A 
ATOM     13  C   UNL     1      43.700  10.796   9.559  0.00  0.00    +0.000 A 
ATOM     14  C   UNL     1      43.328   9.924  10.579  0.00  0.00    +0.000 A 
ATOM     15  N   UNL     1      42.058   9.850  11.045  0.00  0.00    +0.000 NA
BRANCH  10  17
ATOM     16  C   UNL     1      38.903  11.078   9.992  0.00  0.00    +0.000 C 
ATOM     17  O   UNL     1      39.849  10.665  10.976  0.00  0.00    +0.000 OA
ENDBRANCH  10  17
ENDBRANCH   9  14
ENDBRANCH   7   9
ENDBRANCH   1   7
BRANCH   4  18
ATOM     18  C   UNL     1      46.944   4.023  14.571  0.00  0.00    +0.000 C 
BRANCH  18  19
ATOM     19  N   UNL     1      47.465   4.712  15.724  0.00  0.00    +0.000 N 
ATOM     20  C   UNL     1      47.199   4.250  16.987  0.00  0.00    +0.000 C 
ATOM     21  O   UNL     1      46.565   3.219  17.181  0.00  0.00    +0.000 OA
ATOM     22  H   UNL     1      47.785   5.666  15.591  0.00  0.00    +0.000 HD
BRANCH  20  23
ATOM     23  C   UNL     1      47.754   5.026  18.104  0.00  0.00    +0.000 A 
ATOM     24  C   UNL     1      46.899   5.748  18.925  0.00  0.00    +0.000 A 
ATOM     25  S   UNL     1      47.692   6.560  20.197  0.00  0.00    +0.000 S 
ATOM     26  C   UNL     1      49.212   6.016  19.669  0.00  0.00    +0.000 A 
ATOM     27  N   UNL     1      50.350   6.380  20.316  0.00  0.00    +0.000 NA
ATOM     28  C   UNL     1      51.436   5.921  19.793  0.00  0.00    +0.000 A 
ATOM     29  N   UNL     1      51.488   5.120  18.681  0.00  0.00    +0.000 N 
ATOM     30  C   UNL     1      50.364   4.704  18.005  0.00  0.00    +0.000 A 
ATOM     31  O   UNL     1      50.441   3.957  17.036  0.00  0.00    +0.000 OA
ATOM     32  C   UNL     1      49.116   5.206  18.549  0.00  0.00    +0.000 A 
ATOM     33  H   UNL     1      52.371   4.785  18.325  0.00  0.00    +0.000 HD
ENDBRANCH  20  23
ENDBRANCH  18  19
ENDBRANCH   4  18
TORSDOF 7
ENDMDL
MODEL 9
REMARK VINA RESULT:    -6.303      3.880      6.286
REMARK INTER + INTRA:         -10.063
REMARK INTER:                  -9.144
REMARK INTRA:                  -0.919
REMARK UNBOUND:                -1.181
REMARK  Name = 
REMARK  8 active torsions:
REMARK  status: ('A' for Active; 'I' for Inactive)
REMARK    1  A    between atoms: C_1  and  O_2
REMARK    2  A    between atoms: O_2  and  C_3
REMARK    3  A    between atoms: C_7  and  C_8
REMARK    4  A    between atoms: C_8  and  N_9
REMARK    5  A    between atoms: N_9  and  C_10
REMARK    6  A    between atoms: C_13  and  C_14
REMARK    7  A    between atoms: C_14  and  N_15
REMARK    8  A    between atoms: C_16  and  C_18
REMARK                            x       y       z     vdW  Elec       q    Type
REMARK                         _______ _______ _______ _____ _____    ______ ____
ROOT
ATOM      1  C   UNL     1      43.433   7.011  11.531  0.00  0.00    +0.000 A 
ATOM      2  C   UNL     1      43.029   5.711  11.862  0.00  0.00    +0.000 A 
ATOM      3  C   UNL     1      43.913   4.806  12.469  0.00  0.00    +0.000 A 
ATOM      4  C   UNL     1      45.236   5.178  12.737  0.00  0.00    +0.000 A 
ATOM      5  C   UNL     1      45.667   6.441  12.327  0.00  0.00    +0.000 A 
ATOM      6  C   UNL     1      44.781   7.337  11.722  0.00  0.00    +0.000 A 
ENDROOT
BRANCH   1   7
ATOM      7  N   UNL     1      42.523   7.879  10.895  0.00  0.00    +0.000 N 
ATOM      8  H   UNL     1      41.632   7.890  11.391  0.00  0.00    +0.000 HD
BRANCH   7   9
ATOM      9  C   UNL     1      42.993   9.251  10.674  0.00  0.00    +0.000 C 
BRANCH   9  14
ATOM     10  C   UNL     1      39.715  10.793  11.336  0.00  0.00    +0.000 A 
ATOM     11  C   UNL     1      39.779  12.040  10.737  0.00  0.00    +0.000 A 
ATOM     12  C   UNL     1      40.938  12.381  10.048  0.00  0.00    +0.000 A 
ATOM     13  C   UNL     1      41.990  11.469   9.993  0.00  0.00    +0.000 A 
ATOM     14  C   UNL     1      41.846  10.238  10.630  0.00  0.00    +0.000 A 
ATOM     15  N   UNL     1      40.716   9.889  11.291  0.00  0.00    +0.000 NA
BRANCH  10  17
ATOM     16  C   UNL     1      37.602  11.544  11.972  0.00  0.00    +0.000 C 
ATOM     17  O   UNL     1      38.566  10.495  12.039  0.00  0.00    +0.000 OA
ENDBRANCH  10  17
ENDBRANCH   9  14
ENDBRANCH   7   9
ENDBRANCH   1   7
BRANCH   4  18
ATOM     18  C   UNL     1      46.200   4.242  13.410  0.00  0.00    +0.000 C 
BRANCH  18  19
ATOM     19  N   UNL     1      46.738   4.809  14.619  0.00  0.00    +0.000 N 
ATOM     20  C   UNL     1      47.474   4.037  15.481  0.00  0.00    +0.000 C 
ATOM     21  O   UNL     1      47.748   2.867  15.233  0.00  0.00    +0.000 OA
ATOM     22  H   UNL     1      46.337   5.685  14.942  0.00  0.00    +0.000 HD
BRANCH  20  23
ATOM     23  C   UNL     1      47.967   4.693  16.699  0.00  0.00    +0.000 A 
ATOM     24  C   UNL     1      47.593   4.196  17.940  0.00  0.00    +0.000 A 
ATOM     25  S   UNL     1      48.278   5.041  19.253  0.00  0.00    +0.000 S 
ATOM     26  C   UNL     1      49.061   6.132  18.211  0.00  0.00    +0.000 A 
ATOM     27  N   UNL     1      49.814   7.151  18.702  0.00  0.00    +0.000 NA
ATOM     28  C   UNL     1      50.326   7.922  17.803  0.00  0.00    +0.000 A 
ATOM     29  N   UNL     1      50.162   7.759  16.452  0.00  0.00    +0.000 N 
ATOM     30  C   UNL     1      49.430   6.730  15.905  0.00  0.00    +0.000 A 
ATOM     31  O   UNL     1      49.333   6.591  14.691  0.00  0.00    +0.000 OA
ATOM     32  C   UNL     1      48.822   5.843  16.878  0.00  0.00    +0.000 A 
ATOM     33  H   UNL     1      50.598   8.392  15.797  0.00  0.00    +0.000 HD
ENDBRANCH  20  23
ENDBRANCH  18  19
ENDBRANCH   4  18
TORSDOF 7
ENDMDL
