MODEL 1
REMARK VINA RESULT:    -8.275      0.000      0.000
REMARK INTER + INTRA:         -10.415
REMARK INTER:                 -10.210
REMARK INTRA:                  -0.205
REMARK UNBOUND:                -0.205
REMARK  Name = 
REMARK  4 active torsions:
REMARK  status: ('A' for Active; 'I' for Inactive)
REMARK    1  A    between atoms: C_5  and  N_6
REMARK    2  A    between atoms: N_6  and  C_7
REMARK    3  A    between atoms: C_7  and  C_8
REMARK    4  A    between atoms: C_12  and  C_13
REMARK                            x       y       z     vdW  Elec       q    Type
REMARK                         _______ _______ _______ _____ _____    ______ ____
ROOT
ATOM      1  C   UNL     1      43.949   4.932  11.089  0.00  0.00    +0.000 C 
ATOM      2  C   UNL     1      43.187   3.990  12.019  0.00  0.00    +0.000 C 
ATOM      3  C   UNL     1      42.718   5.392  11.853  0.00  0.00    +0.000 C 
ENDROOT
BRANCH   1   4
ATOM      4  C   UNL     1      45.312   5.421  11.591  0.00  0.00    +0.000 A 
ATOM      5  C   UNL     1      45.987   6.485  10.977  0.00  0.00    +0.000 A 
ATOM      6  C   UNL     1      47.127   7.046  11.550  0.00  0.00    +0.000 A 
ATOM      7  C   UNL     1      47.606   6.562  12.768  0.00  0.00    +0.000 A 
ATOM      8  C   UNL     1      46.987   5.479  13.410  0.00  0.00    +0.000 A 
ATOM      9  C   UNL     1      45.882   4.893  12.767  0.00  0.00    +0.000 A 
BRANCH   8  10
ATOM     10  C   UNL     1      47.393   5.038  14.757  0.00  0.00    +0.000 A 
ATOM     11  C   UNL     1      48.212   5.808  15.595  0.00  0.00    +0.000 A 
ATOM     12  C   UNL     1      48.630   5.311  16.830  0.00  0.00    +0.000 A 
ATOM     13  C   UNL     1      48.211   4.048  17.208  0.00  0.00    +0.000 A 
ATOM     14  N   UNL     1      47.422   3.266  16.445  0.00  0.00    +0.000 NA
ATOM     15  C   UNL     1      47.043   3.775  15.247  0.00  0.00    +0.000 A 
ENDBRANCH   8  10
ENDBRANCH   1   4
BRANCH   1  16
ATOM     16  N   UNL     1      43.868   4.675   9.638  0.00  0.00    +0.000 N 
ATOM     17  H   UNL     1      42.946   4.485   9.246  0.00  0.00    +0.000 HD
BRANCH  16  22
ATOM     18 CL   UNL     1      47.621   1.259   6.794  0.00  0.00    +0.000 Cl
ATOM     19  C   UNL     1      46.541   2.274   7.648  0.00  0.00    +0.000 A 
ATOM     20  C   UNL     1      46.447   3.630   7.398  0.00  0.00    +0.000 A 
ATOM     21  N   UNL     1      45.571   4.442   8.051  0.00  0.00    +0.000 NA
ATOM     22  C   UNL     1      44.780   3.848   8.971  0.00  0.00    +0.000 A 
ATOM     23  C   UNL     1      44.919   2.477   9.226  0.00  0.00    +0.000 A 
ATOM     24  N   UNL     1      45.785   1.658   8.574  0.00  0.00    +0.000 NA
ENDBRANCH  16  22
ENDBRANCH   1  16
TORSDOF 4
ENDMDL
MODEL 2
REMARK VINA RESULT:    -8.008      2.124      3.553
REMARK INTER + INTRA:         -10.085
REMARK INTER:                  -9.995
REMARK INTRA:                  -0.090
REMARK UNBOUND:                -0.205
REMARK  Name = 
REMARK  4 active torsions:
REMARK  status: ('A' for Active; 'I' for Inactive)
REMARK    1  A    between atoms: C_5  and  N_6
REMARK    2  A    between atoms: N_6  and  C_7
REMARK    3  A    between atoms: C_7  and  C_8
REMARK    4  A    between atoms: C_12  and  C_13
REMARK                            x       y       z     vdW  Elec       q    Type
REMARK                         _______ _______ _______ _____ _____    ______ ____
ROOT
ATOM      1  C   UNL     1      43.915   4.933  11.162  0.00  0.00    +0.000 C 
ATOM      2  C   UNL     1      42.990   3.838  11.688  0.00  0.00    +0.000 C 
ATOM      3  C   UNL     1      42.552   5.258  11.750  0.00  0.00    +0.000 C 
ENDROOT
BRANCH   1   4
ATOM      4  C   UNL     1      45.146   5.249  12.018  0.00  0.00    +0.000 A 
ATOM      5  C   UNL     1      45.690   4.309  12.905  0.00  0.00    +0.000 A 
ATOM      6  C   UNL     1      46.913   4.532  13.535  0.00  0.00    +0.000 A 
ATOM      7  C   UNL     1      47.631   5.699  13.272  0.00  0.00    +0.000 A 
ATOM      8  C   UNL     1      47.118   6.686  12.417  0.00  0.00    +0.000 A 
ATOM      9  C   UNL     1      45.849   6.460  11.855  0.00  0.00    +0.000 A 
BRANCH   8  10
ATOM     10  C   UNL     1      47.915   7.864  12.023  0.00  0.00    +0.000 A 
ATOM     11  C   UNL     1      49.265   7.779  11.653  0.00  0.00    +0.000 A 
ATOM     12  C   UNL     1      49.993   8.933  11.362  0.00  0.00    +0.000 A 
ATOM     13  C   UNL     1      49.350  10.156  11.439  0.00  0.00    +0.000 A 
ATOM     14  N   UNL     1      48.055  10.295  11.784  0.00  0.00    +0.000 NA
ATOM     15  C   UNL     1      47.380   9.155  12.071  0.00  0.00    +0.000 A 
ENDBRANCH   8  10
ENDBRANCH   1   4
BRANCH   1  16
ATOM     16  N   UNL     1      44.129   5.005   9.703  0.00  0.00    +0.000 N 
ATOM     17  H   UNL     1      43.309   5.158   9.116  0.00  0.00    +0.000 HD
BRANCH  16  22
ATOM     18 CL   UNL     1      47.571   1.318   6.803  0.00  0.00    +0.000 Cl
ATOM     19  C   UNL     1      46.583   2.411   7.674  0.00  0.00    +0.000 A 
ATOM     20  C   UNL     1      46.611   3.775   7.449  0.00  0.00    +0.000 A 
ATOM     21  N   UNL     1      45.809   4.649   8.115  0.00  0.00    +0.000 NA
ATOM     22  C   UNL     1      44.965   4.112   9.022  0.00  0.00    +0.000 A 
ATOM     23  C   UNL     1      44.980   2.730   9.252  0.00  0.00    +0.000 A 
ATOM     24  N   UNL     1      45.772   1.848   8.588  0.00  0.00    +0.000 NA
ENDBRANCH  16  22
ENDBRANCH   1  16
TORSDOF 4
ENDMDL
MODEL 3
REMARK VINA RESULT:    -7.917      2.616      4.387
REMARK INTER + INTRA:          -9.973
REMARK INTER:                  -9.824
REMARK INTRA:                  -0.149
REMARK UNBOUND:                -0.205
REMARK  Name = 
REMARK  4 active torsions:
REMARK  status: ('A' for Active; 'I' for Inactive)
REMARK    1  A    between atoms: C_5  and  N_6
REMARK    2  A    between atoms: N_6  and  C_7
REMARK    3  A    between atoms: C_7  and  C_8
REMARK    4  A    between atoms: C_12  and  C_13
REMARK                            x       y       z     vdW  Elec       q    Type
REMARK                         _______ _______ _______ _____ _____    ______ ____
ROOT
ATOM      1  C   UNL     1      43.833   5.044  11.202  0.00  0.00    +0.000 C 
ATOM      2  C   UNL     1      43.451   3.845  12.068  0.00  0.00    +0.000 C 
ATOM      3  C   UNL     1      42.529   5.009  11.982  0.00  0.00    +0.000 C 
ENDROOT
BRANCH   1   4
ATOM      4  C   UNL     1      44.953   5.939  11.742  0.00  0.00    +0.000 A 
ATOM      5  C   UNL     1      46.216   5.426  12.070  0.00  0.00    +0.000 A 
ATOM      6  C   UNL     1      47.282   6.270  12.377  0.00  0.00    +0.000 A 
ATOM      7  C   UNL     1      47.110   7.654  12.342  0.00  0.00    +0.000 A 
ATOM      8  C   UNL     1      45.860   8.220  12.050  0.00  0.00    +0.000 A 
ATOM      9  C   UNL     1      44.790   7.338  11.815  0.00  0.00    +0.000 A 
BRANCH   8  10
ATOM     10  C   UNL     1      45.685   9.674  11.878  0.00  0.00    +0.000 A 
ATOM     11  C   UNL     1      46.762  10.571  11.849  0.00  0.00    +0.000 A 
ATOM     12  C   UNL     1      46.539  11.945  11.761  0.00  0.00    +0.000 A 
ATOM     13  C   UNL     1      45.232  12.398  11.694  0.00  0.00    +0.000 A 
ATOM     14  N   UNL     1      44.160  11.582  11.713  0.00  0.00    +0.000 NA
ATOM     15  C   UNL     1      44.414  10.253  11.811  0.00  0.00    +0.000 A 
ENDBRANCH   8  10
ENDBRANCH   1   4
BRANCH   1  16
ATOM     16  N   UNL     1      43.826   4.860   9.738  0.00  0.00    +0.000 N 
ATOM     17  H   UNL     1      42.921   4.731   9.286  0.00  0.00    +0.000 HD
BRANCH  16  22
ATOM     18 CL   UNL     1      47.594   1.419   6.942  0.00  0.00    +0.000 Cl
ATOM     19  C   UNL     1      46.509   2.440   7.783  0.00  0.00    +0.000 A 
ATOM     20  C   UNL     1      46.487   3.810   7.599  0.00  0.00    +0.000 A 
ATOM     21  N   UNL     1      45.609   4.627   8.241  0.00  0.00    +0.000 NA
ATOM     22  C   UNL     1      44.740   4.026   9.082  0.00  0.00    +0.000 A 
ATOM     23  C   UNL     1      44.805   2.639   9.274  0.00  0.00    +0.000 A 
ATOM     24  N   UNL     1      45.673   1.814   8.632  0.00  0.00    +0.000 NA
ENDBRANCH  16  22
ENDBRANCH   1  16
TORSDOF 4
ENDMDL
MODEL 4
REMARK VINA RESULT:    -7.521      2.862      6.962
REMARK INTER + INTRA:          -9.484
REMARK INTER:                  -8.904
REMARK INTRA:                  -0.581
REMARK UNBOUND:                -0.205
REMARK  Name = 
REMARK  4 active torsions:
REMARK  status: ('A' for Active; 'I' for Inactive)
REMARK    1  A    between atoms: C_5  and  N_6
REMARK    2  A    between atoms: N_6  and  C_7
REMARK    3  A    between atoms: C_7  and  C_8
REMARK    4  A    between atoms: C_12  and  C_13
REMARK                            x       y       z     vdW  Elec       q    Type
REMARK                         _______ _______ _______ _____ _____    ______ ____
ROOT
ATOM      1  C   UNL     1      46.474   7.183  12.579  0.00  0.00    +0.000 C 
ATOM      2  C   UNL     1      46.627   8.582  11.986  0.00  0.00    +0.000 C 
ATOM      3  C   UNL     1      45.935   8.413  13.292  0.00  0.00    +0.000 C 
ENDROOT
BRANCH   1   4
ATOM      4  C   UNL     1      45.458   6.264  11.893  0.00  0.00    +0.000 A 
ATOM      5  C   UNL     1      44.077   6.431  12.064  0.00  0.00    +0.000 A 
ATOM      6  C   UNL     1      43.161   5.719  11.292  0.00  0.00    +0.000 A 
ATOM      7  C   UNL     1      43.613   4.833  10.313  0.00  0.00    +0.000 A 
ATOM      8  C   UNL     1      44.983   4.606  10.120  0.00  0.00    +0.000 A 
ATOM      9  C   UNL     1      45.877   5.288  10.965  0.00  0.00    +0.000 A 
BRANCH   8  10
ATOM     10  C   UNL     1      45.486   3.777   9.008  0.00  0.00    +0.000 A 
ATOM     11  C   UNL     1      45.514   2.377   9.056  0.00  0.00    +0.000 A 
ATOM     12  C   UNL     1      46.070   1.643   8.008  0.00  0.00    +0.000 A 
ATOM     13  C   UNL     1      46.582   2.330   6.921  0.00  0.00    +0.000 A 
ATOM     14  N   UNL     1      46.578   3.673   6.820  0.00  0.00    +0.000 NA
ATOM     15  C   UNL     1      46.041   4.355   7.861  0.00  0.00    +0.000 A 
ENDBRANCH   8  10
ENDBRANCH   1   4
BRANCH   1  16
ATOM     16  N   UNL     1      47.693   6.514  13.075  0.00  0.00    +0.000 N 
ATOM     17  H   UNL     1      48.280   6.040  12.389  0.00  0.00    +0.000 HD
BRANCH  16  22
ATOM     18 CL   UNL     1      47.803   3.259  17.896  0.00  0.00    +0.000 Cl
ATOM     19  C   UNL     1      47.751   4.236  16.492  0.00  0.00    +0.000 A 
ATOM     20  C   UNL     1      48.463   5.416  16.386  0.00  0.00    +0.000 A 
ATOM     21  N   UNL     1      48.452   6.186  15.264  0.00  0.00    +0.000 NA
ATOM     22  C   UNL     1      47.700   5.733  14.237  0.00  0.00    +0.000 A 
ATOM     23  C   UNL     1      46.964   4.549  14.384  0.00  0.00    +0.000 A 
ATOM     24  N   UNL     1      46.974   3.771  15.497  0.00  0.00    +0.000 NA
ENDBRANCH  16  22
ENDBRANCH   1  16
TORSDOF 4
ENDMDL
MODEL 5
REMARK VINA RESULT:    -6.885      2.255      3.086
REMARK INTER + INTRA:          -8.700
REMARK INTER:                  -8.805
REMARK INTRA:                   0.104
REMARK UNBOUND:                -0.205
REMARK  Name = 
REMARK  4 active torsions:
REMARK  status: ('A' for Active; 'I' for Inactive)
REMARK    1  A    between atoms: C_5  and  N_6
REMARK    2  A    between atoms: N_6  and  C_7
REMARK    3  A    between atoms: C_7  and  C_8
REMARK    4  A    between atoms: C_12  and  C_13
REMARK                            x       y       z     vdW  Elec       q    Type
REMARK                         _______ _______ _______ _____ _____    ______ ____
ROOT
ATOM      1  C   UNL     1      44.651   5.227  11.429  0.00  0.00    +0.000 C 
ATOM      2  C   UNL     1      45.309   4.178  12.323  0.00  0.00    +0.000 C 
ATOM      3  C   UNL     1      43.964   4.703  12.679  0.00  0.00    +0.000 C 
ENDROOT
BRANCH   1   4
ATOM      4  C   UNL     1      45.246   6.638  11.490  0.00  0.00    +0.000 A 
ATOM      5  C   UNL     1      44.441   7.783  11.424  0.00  0.00    +0.000 A 
ATOM      6  C   UNL     1      44.965   9.051  11.672  0.00  0.00    +0.000 A 
ATOM      7  C   UNL     1      46.310   9.197  12.012  0.00  0.00    +0.000 A 
ATOM      8  C   UNL     1      47.167   8.087  12.062  0.00  0.00    +0.000 A 
ATOM      9  C   UNL     1      46.621   6.833  11.737  0.00  0.00    +0.000 A 
BRANCH   8  10
ATOM     10  C   UNL     1      48.556   8.199  12.546  0.00  0.00    +0.000 A 
ATOM     11  C   UNL     1      49.579   8.790  11.791  0.00  0.00    +0.000 A 
ATOM     12  C   UNL     1      50.892   8.802  12.262  0.00  0.00    +0.000 A 
ATOM     13  C   UNL     1      51.156   8.226  13.493  0.00  0.00    +0.000 A 
ATOM     14  N   UNL     1      50.212   7.648  14.262  0.00  0.00    +0.000 NA
ATOM     15  C   UNL     1      48.950   7.644  13.768  0.00  0.00    +0.000 A 
ENDBRANCH   8  10
ENDBRANCH   1   4
BRANCH   1  16
ATOM     16  N   UNL     1      44.190   4.797  10.095  0.00  0.00    +0.000 N 
ATOM     17  H   UNL     1      43.236   4.444  10.019  0.00  0.00    +0.000 HD
BRANCH  16  22
ATOM     18 CL   UNL     1      47.457   1.627   6.472  0.00  0.00    +0.000 Cl
ATOM     19  C   UNL     1      46.522   2.565   7.554  0.00  0.00    +0.000 A 
ATOM     20  C   UNL     1      46.522   3.947   7.526  0.00  0.00    +0.000 A 
ATOM     21  N   UNL     1      45.760   4.703   8.362  0.00  0.00    +0.000 NA
ATOM     22  C   UNL     1      44.985   4.026   9.238  0.00  0.00    +0.000 A 
ATOM     23  C   UNL     1      45.029   2.625   9.266  0.00  0.00    +0.000 A 
ATOM     24  N   UNL     1      45.781   1.863   8.430  0.00  0.00    +0.000 NA
ENDBRANCH  16  22
ENDBRANCH   1  16
TORSDOF 4
ENDMDL
MODEL 6
REMARK VINA RESULT:    -6.761      3.579      7.472
REMARK INTER + INTRA:          -8.547
REMARK INTER:                  -7.768
REMARK INTRA:                  -0.780
REMARK UNBOUND:                -0.205
REMARK  Name = 
REMARK  4 active torsions:
REMARK  status: ('A' for Active; 'I' for Inactive)
REMARK    1  A    between atoms: C_5  and  N_6
REMARK    2  A    between atoms: N_6  and  C_7
REMARK    3  A    between atoms: C_7  and  C_8
REMARK    4  A    between atoms: C_12  and  C_13
REMARK                            x       y       z     vdW  Elec       q    Type
REMARK                         _______ _______ _______ _____ _____    ______ ____
ROOT
ATOM      1  C   UNL     1      48.879   7.999  12.605  0.00  0.00    +0.000 C 
ATOM      2  C   UNL     1      49.640   8.561  11.406  0.00  0.00    +0.000 C 
ATOM      3  C   UNL     1      49.328   9.451  12.557  0.00  0.00    +0.000 C 
ENDROOT
BRANCH   1   4
ATOM      4  C   UNL     1      47.389   7.715  12.387  0.00  0.00    +0.000 A 
ATOM      5  C   UNL     1      46.408   8.689  12.625  0.00  0.00    +0.000 A 
ATOM      6  C   UNL     1      45.082   8.488  12.245  0.00  0.00    +0.000 A 
ATOM      7  C   UNL     1      44.713   7.309  11.597  0.00  0.00    +0.000 A 
ATOM      8  C   UNL     1      45.647   6.290  11.361  0.00  0.00    +0.000 A 
ATOM      9  C   UNL     1      46.960   6.497  11.822  0.00  0.00    +0.000 A 
BRANCH   8  10
ATOM     10  C   UNL     1      45.311   5.095  10.564  0.00  0.00    +0.000 A 
ATOM     11  C   UNL     1      45.607   4.984   9.198  0.00  0.00    +0.000 A 
ATOM     12  C   UNL     1      45.200   3.865   8.473  0.00  0.00    +0.000 A 
ATOM     13  C   UNL     1      44.506   2.867   9.135  0.00  0.00    +0.000 A 
ATOM     14  N   UNL     1      44.198   2.919  10.445  0.00  0.00    +0.000 NA
ATOM     15  C   UNL     1      44.599   4.026  11.117  0.00  0.00    +0.000 A 
ENDBRANCH   8  10
ENDBRANCH   1   4
BRANCH   1  16
ATOM     16  N   UNL     1      49.583   7.034  13.471  0.00  0.00    +0.000 N 
ATOM     17  H   UNL     1      49.775   6.110  13.085  0.00  0.00    +0.000 HD
BRANCH  16  22
ATOM     18 CL   UNL     1      48.139   6.298  19.059  0.00  0.00    +0.000 Cl
ATOM     19  C   UNL     1      48.587   6.494  17.419  0.00  0.00    +0.000 A 
ATOM     20  C   UNL     1      48.292   5.551  16.453  0.00  0.00    +0.000 A 
ATOM     21  N   UNL     1      48.618   5.710  15.142  0.00  0.00    +0.000 NA
ATOM     22  C   UNL     1      49.254   6.858  14.821  0.00  0.00    +0.000 A 
ATOM     23  C   UNL     1      49.569   7.783  15.826  0.00  0.00    +0.000 A 
ATOM     24  N   UNL     1      49.241   7.635  17.136  0.00  0.00    +0.000 NA
ENDBRANCH  16  22
ENDBRANCH   1  16
TORSDOF 4
ENDMDL
MODEL 7
REMARK VINA RESULT:    -6.619      1.399      1.920
REMARK INTER + INTRA:          -8.371
REMARK INTER:                  -7.991
REMARK INTRA:                  -0.380
REMARK UNBOUND:                -0.205
REMARK  Name = 
REMARK  4 active torsions:
REMARK  status: ('A' for Active; 'I' for Inactive)
REMARK    1  A    between atoms: C_5  and  N_6
REMARK    2  A    between atoms: N_6  and  C_7
REMARK    3  A    between atoms: C_7  and  C_8
REMARK    4  A    between atoms: C_12  and  C_13
REMARK                            x       y       z     vdW  Elec       q    Type
REMARK                         _______ _______ _______ _____ _____    ______ ____
ROOT
ATOM      1  C   UNL     1      45.169   5.740  11.887  0.00  0.00    +0.000 C 
ATOM      2  C   UNL     1      44.010   6.340  12.679  0.00  0.00    +0.000 C 
ATOM      3  C   UNL     1      44.324   6.871  11.325  0.00  0.00    +0.000 C 
ENDROOT
BRANCH   1   4
ATOM      4  C   UNL     1      46.578   6.089  12.378  0.00  0.00    +0.000 A 
ATOM      5  C   UNL     1      47.417   6.954  11.662  0.00  0.00    +0.000 A 
ATOM      6  C   UNL     1      48.614   7.416  12.206  0.00  0.00    +0.000 A 
ATOM      7  C   UNL     1      48.988   7.035  13.495  0.00  0.00    +0.000 A 
ATOM      8  C   UNL     1      48.201   6.147  14.244  0.00  0.00    +0.000 A 
ATOM      9  C   UNL     1      47.036   5.645  13.636  0.00  0.00    +0.000 A 
BRANCH   8  10
ATOM     10  C   UNL     1      48.507   5.834  15.652  0.00  0.00    +0.000 A 
ATOM     11  C   UNL     1      49.515   6.487  16.375  0.00  0.00    +0.000 A 
ATOM     12  C   UNL     1      49.815   6.100  17.681  0.00  0.00    +0.000 A 
ATOM     13  C   UNL     1      49.090   5.066  18.246  0.00  0.00    +0.000 A 
ATOM     14  N   UNL     1      48.108   4.407  17.600  0.00  0.00    +0.000 NA
ATOM     15  C   UNL     1      47.850   4.800  16.329  0.00  0.00    +0.000 A 
ENDBRANCH   8  10
ENDBRANCH   1   4
BRANCH   1  16
ATOM     16  N   UNL     1      45.006   4.367  11.370  0.00  0.00    +0.000 N 
ATOM     17  H   UNL     1      45.292   3.600  11.979  0.00  0.00    +0.000 HD
BRANCH  16  22
ATOM     18 CL   UNL     1      46.519   2.835   5.965  0.00  0.00    +0.000 Cl
ATOM     19  C   UNL     1      46.044   3.283   7.547  0.00  0.00    +0.000 A 
ATOM     20  C   UNL     1      45.588   2.362   8.471  0.00  0.00    +0.000 A 
ATOM     21  N   UNL     1      45.236   2.704   9.740  0.00  0.00    +0.000 NA
ATOM     22  C   UNL     1      45.357   4.010  10.062  0.00  0.00    +0.000 A 
ATOM     23  C   UNL     1      45.791   4.927   9.095  0.00  0.00    +0.000 A 
ATOM     24  N   UNL     1      46.152   4.594   7.829  0.00  0.00    +0.000 NA
ENDBRANCH  16  22
ENDBRANCH   1  16
TORSDOF 4
ENDMDL
MODEL 8
REMARK VINA RESULT:    -6.308      2.907      4.526
REMARK INTER + INTRA:          -7.988
REMARK INTER:                  -7.313
REMARK INTRA:                  -0.675
REMARK UNBOUND:                -0.205
REMARK  Name = 
REMARK  4 active torsions:
REMARK  status: ('A' for Active; 'I' for Inactive)
REMARK    1  A    between atoms: C_5  and  N_6
REMARK    2  A    between atoms: N_6  and  C_7
REMARK    3  A    between atoms: C_7  and  C_8
REMARK    4  A    between atoms: C_12  and  C_13
REMARK                            x       y       z     vdW  Elec       q    Type
REMARK                         _______ _______ _______ _____ _____    ______ ____
ROOT
ATOM      1  C   UNL     1      47.349   7.937  12.826  0.00  0.00    +0.000 C 
ATOM      2  C   UNL     1      47.964   8.891  11.805  0.00  0.00    +0.000 C 
ATOM      3  C   UNL     1      48.192   7.428  11.668  0.00  0.00    +0.000 C 
ENDROOT
BRANCH   1   4
ATOM      4  C   UNL     1      47.989   7.932  14.219  0.00  0.00    +0.000 A 
ATOM      5  C   UNL     1      48.015   9.079  15.024  0.00  0.00    +0.000 A 
ATOM      6  C   UNL     1      48.424   9.020  16.355  0.00  0.00    +0.000 A 
ATOM      7  C   UNL     1      48.798   7.798  16.917  0.00  0.00    +0.000 A 
ATOM      8  C   UNL     1      48.818   6.625  16.148  0.00  0.00    +0.000 A 
ATOM      9  C   UNL     1      48.468   6.735  14.790  0.00  0.00    +0.000 A 
BRANCH   8  10
ATOM     10  C   UNL     1      49.081   5.304  16.750  0.00  0.00    +0.000 A 
ATOM     11  C   UNL     1      50.291   4.985  17.383  0.00  0.00    +0.000 A 
ATOM     12  C   UNL     1      50.518   3.698  17.869  0.00  0.00    +0.000 A 
ATOM     13  C   UNL     1      49.520   2.750  17.720  0.00  0.00    +0.000 A 
ATOM     14  N   UNL     1      48.338   3.003  17.124  0.00  0.00    +0.000 NA
ATOM     15  C   UNL     1      48.155   4.261  16.653  0.00  0.00    +0.000 A 
ENDBRANCH   8  10
ENDBRANCH   1   4
BRANCH   1  16
ATOM     16  N   UNL     1      45.883   7.766  12.807  0.00  0.00    +0.000 N 
ATOM     17  H   UNL     1      45.349   8.220  13.548  0.00  0.00    +0.000 HD
BRANCH  16  22
ATOM     18 CL   UNL     1      43.281   2.669  11.759  0.00  0.00    +0.000 Cl
ATOM     19  C   UNL     1      44.067   4.162  12.044  0.00  0.00    +0.000 A 
ATOM     20  C   UNL     1      43.882   5.263  11.229  0.00  0.00    +0.000 A 
ATOM     21  N   UNL     1      44.479   6.463  11.464  0.00  0.00    +0.000 NA
ATOM     22  C   UNL     1      45.274   6.531  12.553  0.00  0.00    +0.000 A 
ATOM     23  C   UNL     1      45.468   5.391  13.344  0.00  0.00    +0.000 A 
ATOM     24  N   UNL     1      44.871   4.191  13.122  0.00  0.00    +0.000 NA
ENDBRANCH  16  22
ENDBRANCH   1  16
TORSDOF 4
ENDMDL
MODEL 9
REMARK VINA RESULT:    -5.756      3.271      5.779
REMARK INTER + INTRA:          -7.307
REMARK INTER:                  -6.770
REMARK INTRA:                  -0.536
REMARK UNBOUND:                -0.205
REMARK  Name = 
REMARK  4 active torsions:
REMARK  status: ('A' for Active; 'I' for Inactive)
REMARK    1  A    between atoms: C_5  and  N_6
REMARK    2  A    between atoms: N_6  and  C_7
REMARK    3  A    between atoms: C_7  and  C_8
REMARK    4  A    between atoms: C_12  and  C_13
REMARK                            x       y       z     vdW  Elec       q    Type
REMARK                         _______ _______ _______ _____ _____    ______ ____
ROOT
ATOM      1  C   UNL     1      48.375   8.916  14.714  0.00  0.00    +0.000 C 
ATOM      2  C   UNL     1      49.205  10.161  14.410  0.00  0.00    +0.000 C 
ATOM      3  C   UNL     1      49.513   8.887  13.707  0.00  0.00    +0.000 C 
ENDROOT
BRANCH   1   4
ATOM      4  C   UNL     1      48.620   8.254  16.074  0.00  0.00    +0.000 A 
ATOM      5  C   UNL     1      48.182   8.839  17.270  0.00  0.00    +0.000 A 
ATOM      6  C   UNL     1      48.238   8.145  18.478  0.00  0.00    +0.000 A 
ATOM      7  C   UNL     1      48.718   6.835  18.509  0.00  0.00    +0.000 A 
ATOM      8  C   UNL     1      49.197   6.213  17.346  0.00  0.00    +0.000 A 
ATOM      9  C   UNL     1      49.191   6.968  16.160  0.00  0.00    +0.000 A 
BRANCH   8  10
ATOM     10  C   UNL     1      49.584   4.790  17.329  0.00  0.00    +0.000 A 
ATOM     11  C   UNL     1      50.860   4.345  17.705  0.00  0.00    +0.000 A 
ATOM     12  C   UNL     1      51.200   2.996  17.598  0.00  0.00    +0.000 A 
ATOM     13  C   UNL     1      50.248   2.112  17.121  0.00  0.00    +0.000 A 
ATOM     14  N   UNL     1      49.007   2.483  16.750  0.00  0.00    +0.000 NA
ATOM     15  C   UNL     1      48.714   3.802  16.856  0.00  0.00    +0.000 A 
ENDBRANCH   8  10
ENDBRANCH   1   4
BRANCH   1  16
ATOM     16  N   UNL     1      46.974   8.898  14.249  0.00  0.00    +0.000 N 
ATOM     17  H   UNL     1      46.244   8.997  14.955  0.00  0.00    +0.000 HD
BRANCH  16  22
ATOM     18 CL   UNL     1      45.120   5.075  10.275  0.00  0.00    +0.000 Cl
ATOM     19  C   UNL     1      45.648   6.185  11.465  0.00  0.00    +0.000 A 
ATOM     20  C   UNL     1      46.604   5.860  12.408  0.00  0.00    +0.000 A 
ATOM     21  N   UNL     1      47.052   6.744  13.341  0.00  0.00    +0.000 NA
ATOM     22  C   UNL     1      46.510   7.980  13.299  0.00  0.00    +0.000 A 
ATOM     23  C   UNL     1      45.519   8.273  12.353  0.00  0.00    +0.000 A 
ATOM     24  N   UNL     1      45.071   7.399  11.414  0.00  0.00    +0.000 NA
ENDBRANCH  16  22
ENDBRANCH   1  16
TORSDOF 4
ENDMDL
