MODEL 1
REMARK VINA RESULT:    -8.141      0.000      0.000
REMARK INTER + INTRA:         -12.052
REMARK INTER:                 -11.234
REMARK INTRA:                  -0.818
REMARK UNBOUND:                -0.818
REMARK  Name = 
REMARK  8 active torsions:
REMARK  status: ('A' for Active; 'I' for Inactive)
REMARK    1  A    between atoms: C_1  and  C_2
REMARK    2  A    between atoms: C_2  and  C_3
REMARK    3  A    between atoms: C_2  and  C_14
REMARK    4  A    between atoms: C_3  and  O_4
REMARK    5  A    between atoms: O_4  and  C_5
REMARK    6  A    between atoms: C_8  and  C_9
REMARK    7  A    between atoms: C_18  and  C_19
REMARK    8  A    between atoms: C_19  and  N_20
REMARK                            x       y       z     vdW  Elec       q    Type
REMARK                         _______ _______ _______ _____ _____    ______ ____
ROOT
ATOM      1  C   UNL     1      43.776   3.267  11.646  0.00  0.00    +0.000 C 
ENDROOT
BRANCH   1   3
ATOM      2  C   UNL     1      42.441   5.429  11.953  0.00  0.00    +0.000 C 
ATOM      3  C   UNL     1      43.472   4.474  12.557  0.00  0.00    +0.000 C 
BRANCH   3   4
ATOM      4  C   UNL     1      44.772   5.193  12.893  0.00  0.00    +0.000 A 
ATOM      5  C   UNL     1      45.889   4.476  13.338  0.00  0.00    +0.000 A 
ATOM      6  C   UNL     1      47.102   5.129  13.574  0.00  0.00    +0.000 A 
ATOM      7  C   UNL     1      47.218   6.503  13.357  0.00  0.00    +0.000 A 
ATOM      8  C   UNL     1      46.118   7.243  12.909  0.00  0.00    +0.000 A 
ATOM      9  C   UNL     1      44.899   6.579  12.702  0.00  0.00    +0.000 A 
BRANCH   8  10
ATOM     10  C   UNL     1      46.224   8.724  12.648  0.00  0.00    +0.000 C 
BRANCH  10  11
ATOM     11  N   UNL     1      44.936   9.388  12.823  0.00  0.00    +0.000 NA
ATOM     12  H   UNL     1      44.512   9.056  13.688  0.00  0.00    +0.000 HD
ATOM     13  H   UNL     1      44.310   9.112  12.069  0.00  0.00    +0.000 HD
ENDBRANCH  10  11
ENDBRANCH   8  10
ENDBRANCH   3   4
ENDBRANCH   1   3
BRANCH   1  14
ATOM     14  O   UNL     1      43.402   3.522  10.285  0.00  0.00    +0.000 OA
BRANCH  14  15
ATOM     15  C   UNL     1      44.398   3.276   9.371  0.00  0.00    +0.000 A 
ATOM     16  C   UNL     1      44.980   4.245   8.549  0.00  0.00    +0.000 A 
ATOM     17  C   UNL     1      45.987   3.896   7.646  0.00  0.00    +0.000 A 
ATOM     18  C   UNL     1      46.441   2.577   7.566  0.00  0.00    +0.000 A 
ATOM     19  C   UNL     1      45.872   1.604   8.398  0.00  0.00    +0.000 A 
ATOM     20  C   UNL     1      44.860   1.959   9.302  0.00  0.00    +0.000 A 
BRANCH  18  21
ATOM     21  C   UNL     1      47.503   2.273   6.570  0.00  0.00    +0.000 C 
ATOM     22  N   UNL     1      47.546   3.035   5.438  0.00  0.00    +0.000 N 
ATOM     23  O   UNL     1      48.286   1.347   6.731  0.00  0.00    +0.000 OA
ATOM     24  H   UNL     1      46.784   3.631   5.153  0.00  0.00    +0.000 HD
ATOM     25  H   UNL     1      48.195   2.725   4.725  0.00  0.00    +0.000 HD
ENDBRANCH  18  21
ENDBRANCH  14  15
ENDBRANCH   1  14
TORSDOF 7
ENDMDL
MODEL 2
REMARK VINA RESULT:    -8.031      1.731      2.204
REMARK INTER + INTRA:         -11.900
REMARK INTER:                 -10.896
REMARK INTRA:                  -1.004
REMARK UNBOUND:                -0.818
REMARK  Name = 
REMARK  8 active torsions:
REMARK  status: ('A' for Active; 'I' for Inactive)
REMARK    1  A    between atoms: C_1  and  C_2
REMARK    2  A    between atoms: C_2  and  C_3
REMARK    3  A    between atoms: C_2  and  C_14
REMARK    4  A    between atoms: C_3  and  O_4
REMARK    5  A    between atoms: O_4  and  C_5
REMARK    6  A    between atoms: C_8  and  C_9
REMARK    7  A    between atoms: C_18  and  C_19
REMARK    8  A    between atoms: C_19  and  N_20
REMARK                            x       y       z     vdW  Elec       q    Type
REMARK                         _______ _______ _______ _____ _____    ______ ____
ROOT
ATOM      1  C   UNL     1      43.703   3.286  11.636  0.00  0.00    +0.000 C 
ENDROOT
BRANCH   1   3
ATOM      2  C   UNL     1      42.895   5.702  11.393  0.00  0.00    +0.000 C 
ATOM      3  C   UNL     1      43.642   4.691  12.266  0.00  0.00    +0.000 C 
BRANCH   3   4
ATOM      4  C   UNL     1      45.053   5.164  12.587  0.00  0.00    +0.000 A 
ATOM      5  C   UNL     1      45.660   6.169  11.823  0.00  0.00    +0.000 A 
ATOM      6  C   UNL     1      46.924   6.653  12.166  0.00  0.00    +0.000 A 
ATOM      7  C   UNL     1      47.595   6.149  13.282  0.00  0.00    +0.000 A 
ATOM      8  C   UNL     1      47.011   5.148  14.064  0.00  0.00    +0.000 A 
ATOM      9  C   UNL     1      45.752   4.651  13.693  0.00  0.00    +0.000 A 
BRANCH   8  10
ATOM     10  C   UNL     1      47.706   4.602  15.286  0.00  0.00    +0.000 C 
BRANCH  10  11
ATOM     11  N   UNL     1      47.761   3.144  15.259  0.00  0.00    +0.000 NA
ATOM     12  H   UNL     1      47.404   2.819  14.362  0.00  0.00    +0.000 HD
ATOM     13  H   UNL     1      47.137   2.771  15.972  0.00  0.00    +0.000 HD
ENDBRANCH  10  11
ENDBRANCH   8  10
ENDBRANCH   3   4
ENDBRANCH   1   3
BRANCH   1  14
ATOM     14  O   UNL     1      43.312   3.305  10.256  0.00  0.00    +0.000 OA
BRANCH  14  15
ATOM     15  C   UNL     1      44.351   3.132   9.373  0.00  0.00    +0.000 A 
ATOM     16  C   UNL     1      44.997   4.168   8.693  0.00  0.00    +0.000 A 
ATOM     17  C   UNL     1      46.044   3.891   7.810  0.00  0.00    +0.000 A 
ATOM     18  C   UNL     1      46.473   2.576   7.610  0.00  0.00    +0.000 A 
ATOM     19  C   UNL     1      45.839   1.535   8.300  0.00  0.00    +0.000 A 
ATOM     20  C   UNL     1      44.787   1.818   9.184  0.00  0.00    +0.000 A 
BRANCH  18  21
ATOM     21  C   UNL     1      47.579   2.353   6.643  0.00  0.00    +0.000 C 
ATOM     22  N   UNL     1      47.555   3.063   5.477  0.00  0.00    +0.000 N 
ATOM     23  O   UNL     1      48.462   1.532   6.857  0.00  0.00    +0.000 OA
ATOM     24  H   UNL     1      46.734   3.552   5.154  0.00  0.00    +0.000 HD
ATOM     25  H   UNL     1      48.248   2.798   4.787  0.00  0.00    +0.000 HD
ENDBRANCH  18  21
ENDBRANCH  14  15
ENDBRANCH   1  14
TORSDOF 7
ENDMDL
MODEL 3
REMARK VINA RESULT:    -7.627      1.282      2.153
REMARK INTER + INTRA:         -11.344
REMARK INTER:                 -10.653
REMARK INTRA:                  -0.690
REMARK UNBOUND:                -0.818
REMARK  Name = 
REMARK  8 active torsions:
REMARK  status: ('A' for Active; 'I' for Inactive)
REMARK    1  A    between atoms: C_1  and  C_2
REMARK    2  A    between atoms: C_2  and  C_3
REMARK    3  A    between atoms: C_2  and  C_14
REMARK    4  A    between atoms: C_3  and  O_4
REMARK    5  A    between atoms: O_4  and  C_5
REMARK    6  A    between atoms: C_8  and  C_9
REMARK    7  A    between atoms: C_18  and  C_19
REMARK    8  A    between atoms: C_19  and  N_20
REMARK                            x       y       z     vdW  Elec       q    Type
REMARK                         _______ _______ _______ _____ _____    ______ ____
ROOT
ATOM      1  C   UNL     1      43.835   4.587  11.396  0.00  0.00    +0.000 C 
ENDROOT
BRANCH   1   3
ATOM      2  C   UNL     1      45.756   3.878  12.930  0.00  0.00    +0.000 C 
ATOM      3  C   UNL     1      45.328   4.747  11.746  0.00  0.00    +0.000 C 
BRANCH   3   4
ATOM      4  C   UNL     1      45.635   6.218  11.991  0.00  0.00    +0.000 A 
ATOM      5  C   UNL     1      46.862   6.608  12.543  0.00  0.00    +0.000 A 
ATOM      6  C   UNL     1      47.170   7.962  12.696  0.00  0.00    +0.000 A 
ATOM      7  C   UNL     1      46.265   8.944  12.290  0.00  0.00    +0.000 A 
ATOM      8  C   UNL     1      45.034   8.582  11.733  0.00  0.00    +0.000 A 
ATOM      9  C   UNL     1      44.725   7.218  11.609  0.00  0.00    +0.000 A 
BRANCH   8  10
ATOM     10  C   UNL     1      44.048   9.623  11.267  0.00  0.00    +0.000 C 
BRANCH  10  11
ATOM     11  N   UNL     1      42.856   9.007  10.693  0.00  0.00    +0.000 NA
ATOM     12  H   UNL     1      42.462   8.359  11.374  0.00  0.00    +0.000 HD
ATOM     13  H   UNL     1      43.121   8.451   9.883  0.00  0.00    +0.000 HD
ENDBRANCH  10  11
ENDBRANCH   8  10
ENDBRANCH   3   4
ENDBRANCH   1   3
BRANCH   1  14
ATOM     14  O   UNL     1      43.621   4.576   9.978  0.00  0.00    +0.000 OA
BRANCH  14  15
ATOM     15  C   UNL     1      44.532   3.826   9.275  0.00  0.00    +0.000 A 
ATOM     16  C   UNL     1      44.643   2.435   9.350  0.00  0.00    +0.000 A 
ATOM     17  C   UNL     1      45.607   1.759   8.597  0.00  0.00    +0.000 A 
ATOM     18  C   UNL     1      46.460   2.463   7.744  0.00  0.00    +0.000 A 
ATOM     19  C   UNL     1      46.345   3.856   7.654  0.00  0.00    +0.000 A 
ATOM     20  C   UNL     1      45.377   4.530   8.413  0.00  0.00    +0.000 A 
BRANCH  18  21
ATOM     21  C   UNL     1      47.474   1.682   6.987  0.00  0.00    +0.000 C 
ATOM     22  N   UNL     1      48.465   2.376   6.354  0.00  0.00    +0.000 N 
ATOM     23  O   UNL     1      47.406   0.464   6.893  0.00  0.00    +0.000 OA
ATOM     24  H   UNL     1      48.419   3.372   6.198  0.00  0.00    +0.000 HD
ATOM     25  H   UNL     1      49.064   1.830   5.745  0.00  0.00    +0.000 HD
ENDBRANCH  18  21
ENDBRANCH  14  15
ENDBRANCH   1  14
TORSDOF 7
ENDMDL
MODEL 4
REMARK VINA RESULT:    -7.561      1.708      2.577
REMARK INTER + INTRA:         -11.253
REMARK INTER:                 -10.545
REMARK INTRA:                  -0.708
REMARK UNBOUND:                -0.818
REMARK  Name = 
REMARK  8 active torsions:
REMARK  status: ('A' for Active; 'I' for Inactive)
REMARK    1  A    between atoms: C_1  and  C_2
REMARK    2  A    between atoms: C_2  and  C_3
REMARK    3  A    between atoms: C_2  and  C_14
REMARK    4  A    between atoms: C_3  and  O_4
REMARK    5  A    between atoms: O_4  and  C_5
REMARK    6  A    between atoms: C_8  and  C_9
REMARK    7  A    between atoms: C_18  and  C_19
REMARK    8  A    between atoms: C_19  and  N_20
REMARK                            x       y       z     vdW  Elec       q    Type
REMARK                         _______ _______ _______ _____ _____    ______ ____
ROOT
ATOM      1  C   UNL     1      43.804   4.836  11.288  0.00  0.00    +0.000 C 
ENDROOT
BRANCH   1   3
ATOM      2  C   UNL     1      45.664   3.978  12.822  0.00  0.00    +0.000 C 
ATOM      3  C   UNL     1      45.313   4.831  11.601  0.00  0.00    +0.000 C 
BRANCH   3   4
ATOM      4  C   UNL     1      45.801   6.265  11.762  0.00  0.00    +0.000 A 
ATOM      5  C   UNL     1      44.889   7.326  11.825  0.00  0.00    +0.000 A 
ATOM      6  C   UNL     1      45.335   8.631  12.047  0.00  0.00    +0.000 A 
ATOM      7  C   UNL     1      46.696   8.892  12.222  0.00  0.00    +0.000 A 
ATOM      8  C   UNL     1      47.628   7.851  12.167  0.00  0.00    +0.000 A 
ATOM      9  C   UNL     1      47.169   6.548  11.916  0.00  0.00    +0.000 A 
BRANCH   8  10
ATOM     10  C   UNL     1      49.099   8.105  12.373  0.00  0.00    +0.000 C 
BRANCH  10  11
ATOM     11  N   UNL     1      49.786   6.902  12.834  0.00  0.00    +0.000 NA
ATOM     12  H   UNL     1      49.594   6.776  13.827  0.00  0.00    +0.000 HD
ATOM     13  H   UNL     1      50.792   7.035  12.748  0.00  0.00    +0.000 HD
ENDBRANCH  10  11
ENDBRANCH   8  10
ENDBRANCH   3   4
ENDBRANCH   1   3
BRANCH   1  14
ATOM     14  O   UNL     1      43.552   4.675   9.885  0.00  0.00    +0.000 OA
BRANCH  14  15
ATOM     15  C   UNL     1      44.433   3.835   9.247  0.00  0.00    +0.000 A 
ATOM     16  C   UNL     1      44.446   2.444   9.385  0.00  0.00    +0.000 A 
ATOM     17  C   UNL     1      45.385   1.673   8.696  0.00  0.00    +0.000 A 
ATOM     18  C   UNL     1      46.312   2.279   7.843  0.00  0.00    +0.000 A 
ATOM     19  C   UNL     1      46.294   3.672   7.690  0.00  0.00    +0.000 A 
ATOM     20  C   UNL     1      45.350   4.442   8.386  0.00  0.00    +0.000 A 
BRANCH  18  21
ATOM     21  C   UNL     1      47.293   1.400   7.156  0.00  0.00    +0.000 C 
ATOM     22  N   UNL     1      48.390   1.990   6.596  0.00  0.00    +0.000 N 
ATOM     23  O   UNL     1      47.112   0.194   7.053  0.00  0.00    +0.000 OA
ATOM     24  H   UNL     1      48.453   2.985   6.440  0.00  0.00    +0.000 HD
ATOM     25  H   UNL     1      48.972   1.387   6.028  0.00  0.00    +0.000 HD
ENDBRANCH  18  21
ENDBRANCH  14  15
ENDBRANCH   1  14
TORSDOF 7
ENDMDL
MODEL 5
REMARK VINA RESULT:    -6.752      2.767      7.044
REMARK INTER + INTRA:         -10.136
REMARK INTER:                  -9.698
REMARK INTRA:                  -0.438
REMARK UNBOUND:                -0.818
REMARK  Name = 
REMARK  8 active torsions:
REMARK  status: ('A' for Active; 'I' for Inactive)
REMARK    1  A    between atoms: C_1  and  C_2
REMARK    2  A    between atoms: C_2  and  C_3
REMARK    3  A    between atoms: C_2  and  C_14
REMARK    4  A    between atoms: C_3  and  O_4
REMARK    5  A    between atoms: O_4  and  C_5
REMARK    6  A    between atoms: C_8  and  C_9
REMARK    7  A    between atoms: C_18  and  C_19
REMARK    8  A    between atoms: C_19  and  N_20
REMARK                            x       y       z     vdW  Elec       q    Type
REMARK                         _______ _______ _______ _____ _____    ______ ____
ROOT
ATOM      1  C   UNL     1      45.846   5.661   9.945  0.00  0.00    +0.000 C 
ENDROOT
BRANCH   1   3
ATOM      2  C   UNL     1      43.624   4.409  10.164  0.00  0.00    +0.000 C 
ATOM      3  C   UNL     1      44.774   4.809   9.237  0.00  0.00    +0.000 C 
BRANCH   3   4
ATOM      4  C   UNL     1      45.433   3.590   8.605  0.00  0.00    +0.000 A 
ATOM      5  C   UNL     1      45.227   2.311   9.138  0.00  0.00    +0.000 A 
ATOM      6  C   UNL     1      45.772   1.188   8.512  0.00  0.00    +0.000 A 
ATOM      7  C   UNL     1      46.518   1.324   7.340  0.00  0.00    +0.000 A 
ATOM      8  C   UNL     1      46.735   2.589   6.784  0.00  0.00    +0.000 A 
ATOM      9  C   UNL     1      46.205   3.712   7.438  0.00  0.00    +0.000 A 
BRANCH   8  10
ATOM     10  C   UNL     1      47.520   2.759   5.508  0.00  0.00    +0.000 C 
BRANCH  10  11
ATOM     11  N   UNL     1      48.578   1.760   5.398  0.00  0.00    +0.000 NA
ATOM     12  H   UNL     1      48.203   0.854   5.675  0.00  0.00    +0.000 HD
ATOM     13  H   UNL     1      49.321   1.982   6.058  0.00  0.00    +0.000 HD
ENDBRANCH  10  11
ENDBRANCH   8  10
ENDBRANCH   3   4
ENDBRANCH   1   3
BRANCH   1  14
ATOM     14  O   UNL     1      45.331   6.282  11.132  0.00  0.00    +0.000 OA
BRANCH  14  15
ATOM     15  C   UNL     1      45.952   5.882  12.291  0.00  0.00    +0.000 A 
ATOM     16  C   UNL     1      47.067   6.509  12.853  0.00  0.00    +0.000 A 
ATOM     17  C   UNL     1      47.630   6.026  14.036  0.00  0.00    +0.000 A 
ATOM     18  C   UNL     1      47.074   4.921  14.686  0.00  0.00    +0.000 A 
ATOM     19  C   UNL     1      45.948   4.297  14.136  0.00  0.00    +0.000 A 
ATOM     20  C   UNL     1      45.387   4.785  12.946  0.00  0.00    +0.000 A 
BRANCH  18  21
ATOM     21  C   UNL     1      47.736   4.449  15.931  0.00  0.00    +0.000 C 
ATOM     22  N   UNL     1      47.078   3.521  16.686  0.00  0.00    +0.000 N 
ATOM     23  O   UNL     1      48.812   4.903  16.297  0.00  0.00    +0.000 OA
ATOM     24  H   UNL     1      46.099   3.310  16.559  0.00  0.00    +0.000 HD
ATOM     25  H   UNL     1      47.492   3.315  17.587  0.00  0.00    +0.000 HD
ENDBRANCH  18  21
ENDBRANCH  14  15
ENDBRANCH   1  14
TORSDOF 7
ENDMDL
MODEL 6
REMARK VINA RESULT:    -6.696      2.341      6.318
REMARK INTER + INTRA:         -10.059
REMARK INTER:                  -9.033
REMARK INTRA:                  -1.026
REMARK UNBOUND:                -0.818
REMARK  Name = 
REMARK  8 active torsions:
REMARK  status: ('A' for Active; 'I' for Inactive)
REMARK    1  A    between atoms: C_1  and  C_2
REMARK    2  A    between atoms: C_2  and  C_3
REMARK    3  A    between atoms: C_2  and  C_14
REMARK    4  A    between atoms: C_3  and  O_4
REMARK    5  A    between atoms: O_4  and  C_5
REMARK    6  A    between atoms: C_8  and  C_9
REMARK    7  A    between atoms: C_18  and  C_19
REMARK    8  A    between atoms: C_19  and  N_20
REMARK                            x       y       z     vdW  Elec       q    Type
REMARK                         _______ _______ _______ _____ _____    ______ ____
ROOT
ATOM      1  C   UNL     1      43.336   4.966  11.205  0.00  0.00    +0.000 C 
ENDROOT
BRANCH   1   3
ATOM      2  C   UNL     1      44.070   2.631  11.954  0.00  0.00    +0.000 C 
ATOM      3  C   UNL     1      43.600   3.505  10.789  0.00  0.00    +0.000 C 
BRANCH   3   4
ATOM      4  C   UNL     1      44.593   3.480   9.634  0.00  0.00    +0.000 A 
ATOM      5  C   UNL     1      45.070   4.674   9.078  0.00  0.00    +0.000 A 
ATOM      6  C   UNL     1      46.036   4.648   8.070  0.00  0.00    +0.000 A 
ATOM      7  C   UNL     1      46.549   3.433   7.613  0.00  0.00    +0.000 A 
ATOM      8  C   UNL     1      46.093   2.226   8.154  0.00  0.00    +0.000 A 
ATOM      9  C   UNL     1      45.102   2.264   9.147  0.00  0.00    +0.000 A 
BRANCH   8  10
ATOM     10  C   UNL     1      46.647   0.902   7.692  0.00  0.00    +0.000 C 
BRANCH  10  11
ATOM     11  N   UNL     1      47.756   1.086   6.761  0.00  0.00    +0.000 NA
ATOM     12  H   UNL     1      48.007   2.073   6.742  0.00  0.00    +0.000 HD
ATOM     13  H   UNL     1      47.449   0.846   5.821  0.00  0.00    +0.000 HD
ENDBRANCH  10  11
ENDBRANCH   8  10
ENDBRANCH   3   4
ENDBRANCH   1   3
BRANCH   1  14
ATOM     14  O   UNL     1      43.847   5.244  12.516  0.00  0.00    +0.000 OA
BRANCH  14  15
ATOM     15  C   UNL     1      45.034   5.936  12.523  0.00  0.00    +0.000 A 
ATOM     16  C   UNL     1      45.223   7.197  11.951  0.00  0.00    +0.000 A 
ATOM     17  C   UNL     1      46.472   7.820  12.007  0.00  0.00    +0.000 A 
ATOM     18  C   UNL     1      47.545   7.201  12.653  0.00  0.00    +0.000 A 
ATOM     19  C   UNL     1      47.358   5.943  13.241  0.00  0.00    +0.000 A 
ATOM     20  C   UNL     1      46.102   5.320  13.180  0.00  0.00    +0.000 A 
BRANCH  18  21
ATOM     21  C   UNL     1      48.850   7.913  12.658  0.00  0.00    +0.000 C 
ATOM     22  N   UNL     1      48.961   9.038  11.892  0.00  0.00    +0.000 N 
ATOM     23  O   UNL     1      49.809   7.489  13.289  0.00  0.00    +0.000 OA
ATOM     24  H   UNL     1      48.292   9.277  11.176  0.00  0.00    +0.000 HD
ATOM     25  H   UNL     1      49.893   9.427  11.816  0.00  0.00    +0.000 HD
ENDBRANCH  18  21
ENDBRANCH  14  15
ENDBRANCH   1  14
TORSDOF 7
ENDMDL
MODEL 7
REMARK VINA RESULT:    -6.267      5.101      7.101
REMARK INTER + INTRA:          -9.467
REMARK INTER:                  -8.934
REMARK INTRA:                  -0.533
REMARK UNBOUND:                -0.818
REMARK  Name = 
REMARK  8 active torsions:
REMARK  status: ('A' for Active; 'I' for Inactive)
REMARK    1  A    between atoms: C_1  and  C_2
REMARK    2  A    between atoms: C_2  and  C_3
REMARK    3  A    between atoms: C_2  and  C_14
REMARK    4  A    between atoms: C_3  and  O_4
REMARK    5  A    between atoms: O_4  and  C_5
REMARK    6  A    between atoms: C_8  and  C_9
REMARK    7  A    between atoms: C_18  and  C_19
REMARK    8  A    between atoms: C_19  and  N_20
REMARK                            x       y       z     vdW  Elec       q    Type
REMARK                         _______ _______ _______ _____ _____    ______ ____
ROOT
ATOM      1  C   UNL     1      47.376   4.471  15.952  0.00  0.00    +0.000 C 
ENDROOT
BRANCH   1   3
ATOM      2  C   UNL     1      47.044   2.735  17.803  0.00  0.00    +0.000 C 
ATOM      3  C   UNL     1      47.904   3.186  16.621  0.00  0.00    +0.000 C 
BRANCH   3   4
ATOM      4  C   UNL     1      49.357   3.390  17.031  0.00  0.00    +0.000 A 
ATOM      5  C   UNL     1      49.826   4.660  17.387  0.00  0.00    +0.000 A 
ATOM      6  C   UNL     1      51.138   4.831  17.835  0.00  0.00    +0.000 A 
ATOM      7  C   UNL     1      51.995   3.734  17.945  0.00  0.00    +0.000 A 
ATOM      8  C   UNL     1      51.551   2.454  17.599  0.00  0.00    +0.000 A 
ATOM      9  C   UNL     1      50.239   2.300  17.125  0.00  0.00    +0.000 A 
BRANCH   8  10
ATOM     10  C   UNL     1      52.451   1.251  17.729  0.00  0.00    +0.000 C 
BRANCH  10  11
ATOM     11  N   UNL     1      51.706   0.074  18.166  0.00  0.00    +0.000 NA
ATOM     12  H   UNL     1      52.139  -0.292  19.013  0.00  0.00    +0.000 HD
ATOM     13  H   UNL     1      51.784  -0.655  17.461  0.00  0.00    +0.000 HD
ENDBRANCH  10  11
ENDBRANCH   8  10
ENDBRANCH   3   4
ENDBRANCH   1   3
BRANCH   1  14
ATOM     14  O   UNL     1      47.827   4.587  14.596  0.00  0.00    +0.000 OA
BRANCH  14  15
ATOM     15  C   UNL     1      46.815   4.628  13.667  0.00  0.00    +0.000 A 
ATOM     16  C   UNL     1      46.158   3.505  13.158  0.00  0.00    +0.000 A 
ATOM     17  C   UNL     1      45.141   3.649  12.210  0.00  0.00    +0.000 A 
ATOM     18  C   UNL     1      44.753   4.918  11.774  0.00  0.00    +0.000 A 
ATOM     19  C   UNL     1      45.398   6.048  12.292  0.00  0.00    +0.000 A 
ATOM     20  C   UNL     1      46.421   5.899  13.241  0.00  0.00    +0.000 A 
BRANCH  18  21
ATOM     21  C   UNL     1      43.676   4.995  10.752  0.00  0.00    +0.000 C 
ATOM     22  N   UNL     1      43.996   4.656   9.468  0.00  0.00    +0.000 N 
ATOM     23  O   UNL     1      42.552   5.390  11.033  0.00  0.00    +0.000 OA
ATOM     24  H   UNL     1      44.949   4.570   9.149  0.00  0.00    +0.000 HD
ATOM     25  H   UNL     1      43.281   4.840   8.775  0.00  0.00    +0.000 HD
ENDBRANCH  18  21
ENDBRANCH  14  15
ENDBRANCH   1  14
TORSDOF 7
ENDMDL
MODEL 8
REMARK VINA RESULT:    -6.090      4.192      6.601
REMARK INTER + INTRA:          -9.222
REMARK INTER:                  -8.305
REMARK INTRA:                  -0.918
REMARK UNBOUND:                -0.818
REMARK  Name = 
REMARK  8 active torsions:
REMARK  status: ('A' for Active; 'I' for Inactive)
REMARK    1  A    between atoms: C_1  and  C_2
REMARK    2  A    between atoms: C_2  and  C_3
REMARK    3  A    between atoms: C_2  and  C_14
REMARK    4  A    between atoms: C_3  and  O_4
REMARK    5  A    between atoms: O_4  and  C_5
REMARK    6  A    between atoms: C_8  and  C_9
REMARK    7  A    between atoms: C_18  and  C_19
REMARK    8  A    between atoms: C_19  and  N_20
REMARK                            x       y       z     vdW  Elec       q    Type
REMARK                         _______ _______ _______ _____ _____    ______ ____
ROOT
ATOM      1  C   UNL     1      49.041   7.396  14.083  0.00  0.00    +0.000 C 
ENDROOT
BRANCH   1   3
ATOM      2  C   UNL     1      48.998   8.754  16.252  0.00  0.00    +0.000 C 
ATOM      3  C   UNL     1      48.628   7.436  15.568  0.00  0.00    +0.000 C 
BRANCH   3   4
ATOM      4  C   UNL     1      49.229   6.240  16.293  0.00  0.00    +0.000 A 
ATOM      5  C   UNL     1      50.596   6.205  16.599  0.00  0.00    +0.000 A 
ATOM      6  C   UNL     1      51.130   5.142  17.330  0.00  0.00    +0.000 A 
ATOM      7  C   UNL     1      50.307   4.106  17.776  0.00  0.00    +0.000 A 
ATOM      8  C   UNL     1      48.938   4.118  17.488  0.00  0.00    +0.000 A 
ATOM      9  C   UNL     1      48.418   5.179  16.729  0.00  0.00    +0.000 A 
BRANCH   8  10
ATOM     10  C   UNL     1      48.025   3.023  17.976  0.00  0.00    +0.000 C 
BRANCH  10  11
ATOM     11  N   UNL     1      46.663   3.206  17.481  0.00  0.00    +0.000 NA
ATOM     12  H   UNL     1      46.019   2.733  18.113  0.00  0.00    +0.000 HD
ATOM     13  H   UNL     1      46.570   2.750  16.576  0.00  0.00    +0.000 HD
ENDBRANCH  10  11
ENDBRANCH   8  10
ENDBRANCH   3   4
ENDBRANCH   1   3
BRANCH   1  14
ATOM     14  O   UNL     1      48.671   6.157  13.463  0.00  0.00    +0.000 OA
BRANCH  14  15
ATOM     15  C   UNL     1      47.386   6.131  12.976  0.00  0.00    +0.000 A 
ATOM     16  C   UNL     1      46.893   6.988  11.989  0.00  0.00    +0.000 A 
ATOM     17  C   UNL     1      45.566   6.886  11.561  0.00  0.00    +0.000 A 
ATOM     18  C   UNL     1      44.721   5.913  12.100  0.00  0.00    +0.000 A 
ATOM     19  C   UNL     1      45.214   5.041  13.079  0.00  0.00    +0.000 A 
ATOM     20  C   UNL     1      46.546   5.149  13.507  0.00  0.00    +0.000 A 
BRANCH  18  21
ATOM     21  C   UNL     1      43.318   5.873  11.611  0.00  0.00    +0.000 C 
ATOM     22  N   UNL     1      42.758   7.047  11.193  0.00  0.00    +0.000 N 
ATOM     23  O   UNL     1      42.664   4.838  11.620  0.00  0.00    +0.000 OA
ATOM     24  H   UNL     1      43.165   7.947  11.399  0.00  0.00    +0.000 HD
ATOM     25  H   UNL     1      41.767   7.013  10.987  0.00  0.00    +0.000 HD
ENDBRANCH  18  21
ENDBRANCH  14  15
ENDBRANCH   1  14
TORSDOF 7
ENDMDL
MODEL 9
REMARK VINA RESULT:    -6.059      3.814      7.328
REMARK INTER + INTRA:          -9.180
REMARK INTER:                  -8.330
REMARK INTRA:                  -0.850
REMARK UNBOUND:                -0.818
REMARK  Name = 
REMARK  8 active torsions:
REMARK  status: ('A' for Active; 'I' for Inactive)
REMARK    1  A    between atoms: C_1  and  C_2
REMARK    2  A    between atoms: C_2  and  C_3
REMARK    3  A    between atoms: C_2  and  C_14
REMARK    4  A    between atoms: C_3  and  O_4
REMARK    5  A    between atoms: O_4  and  C_5
REMARK    6  A    between atoms: C_8  and  C_9
REMARK    7  A    between atoms: C_18  and  C_19
REMARK    8  A    between atoms: C_19  and  N_20
REMARK                            x       y       z     vdW  Elec       q    Type
REMARK                         _______ _______ _______ _____ _____    ______ ____
ROOT
ATOM      1  C   UNL     1      47.763   6.798  12.364  0.00  0.00    +0.000 C 
ENDROOT
BRANCH   1   3
ATOM      2  C   UNL     1      45.886   8.474  12.834  0.00  0.00    +0.000 C 
ATOM      3  C   UNL     1      46.398   7.360  11.918  0.00  0.00    +0.000 C 
BRANCH   3   4
ATOM      4  C   UNL     1      45.394   6.221  11.805  0.00  0.00    +0.000 A 
ATOM      5  C   UNL     1      44.378   6.069  12.758  0.00  0.00    +0.000 A 
ATOM      6  C   UNL     1      43.414   5.069  12.611  0.00  0.00    +0.000 A 
ATOM      7  C   UNL     1      43.443   4.216  11.506  0.00  0.00    +0.000 A 
ATOM      8  C   UNL     1      44.445   4.348  10.538  0.00  0.00    +0.000 A 
ATOM      9  C   UNL     1      45.423   5.340  10.712  0.00  0.00    +0.000 A 
BRANCH   8  10
ATOM     10  C   UNL     1      44.485   3.453   9.326  0.00  0.00    +0.000 C 
BRANCH  10  11
ATOM     11  N   UNL     1      44.558   2.046   9.708  0.00  0.00    +0.000 NA
ATOM     12  H   UNL     1      43.634   1.739  10.009  0.00  0.00    +0.000 HD
ATOM     13  H   UNL     1      45.173   1.947  10.513  0.00  0.00    +0.000 HD
ENDBRANCH  10  11
ENDBRANCH   8  10
ENDBRANCH   3   4
ENDBRANCH   1   3
BRANCH   1  14
ATOM     14  O   UNL     1      48.094   7.207  13.699  0.00  0.00    +0.000 OA
BRANCH  14  15
ATOM     15  C   UNL     1      47.966   6.214  14.641  0.00  0.00    +0.000 A 
ATOM     16  C   UNL     1      47.250   5.029  14.454  0.00  0.00    +0.000 A 
ATOM     17  C   UNL     1      47.175   4.079  15.476  0.00  0.00    +0.000 A 
ATOM     18  C   UNL     1      47.831   4.292  16.691  0.00  0.00    +0.000 A 
ATOM     19  C   UNL     1      48.563   5.471  16.878  0.00  0.00    +0.000 A 
ATOM     20  C   UNL     1      48.633   6.423  15.850  0.00  0.00    +0.000 A 
BRANCH  18  21
ATOM     21  C   UNL     1      47.693   3.247  17.740  0.00  0.00    +0.000 C 
ATOM     22  N   UNL     1      48.681   3.158  18.679  0.00  0.00    +0.000 N 
ATOM     23  O   UNL     1      46.754   2.462  17.744  0.00  0.00    +0.000 OA
ATOM     24  H   UNL     1      49.578   3.607  18.570  0.00  0.00    +0.000 HD
ATOM     25  H   UNL     1      48.624   2.360  19.301  0.00  0.00    +0.000 HD
ENDBRANCH  18  21
ENDBRANCH  14  15
ENDBRANCH   1  14
TORSDOF 7
ENDMDL
