MODEL 1
REMARK VINA RESULT:    -8.250      0.000      0.000
REMARK INTER + INTRA:         -10.945
REMARK INTER:                 -10.661
REMARK INTRA:                  -0.283
REMARK UNBOUND:                -0.283
REMARK  Name = 
REMARK  5 active torsions:
REMARK  status: ('A' for Active; 'I' for Inactive)
REMARK    1  A    between atoms: C_2  and  C_4
REMARK    2  A    between atoms: C_8  and  O_9
REMARK    3  A    between atoms: O_9  and  C_10
REMARK    4  A    between atoms: C_10  and  C_11
REMARK    5  A    between atoms: C_16  and  C_17
REMARK                            x       y       z     vdW  Elec       q    Type
REMARK                         _______ _______ _______ _____ _____    ______ ____
ROOT
ATOM      1  C   UNL     1      44.750   4.408  12.126  0.00  0.00    +0.000 A 
ATOM      2  C   UNL     1      45.505   3.509  12.885  0.00  0.00    +0.000 A 
ATOM      3  C   UNL     1      46.617   3.965  13.574  0.00  0.00    +0.000 A 
ATOM      4  F   UNL     1      47.346   3.100  14.293  0.00  0.00    +0.000 F 
ATOM      5  C   UNL     1      47.018   5.297  13.493  0.00  0.00    +0.000 A 
ATOM      6  C   UNL     1      46.300   6.221  12.714  0.00  0.00    +0.000 A 
ATOM      7  C   UNL     1      45.137   5.761  12.073  0.00  0.00    +0.000 A 
ENDROOT
BRANCH   6   8
ATOM      8  C   UNL     1      46.899   7.606  12.462  0.00  0.00    +0.000 C 
ATOM      9  C   UNL     1      48.212   7.604  11.657  0.00  0.00    +0.000 C 
ATOM     10  C   UNL     1      49.424   7.293  12.531  0.00  0.00    +0.000 C 
ATOM     11  N   UNL     1      49.544   8.231  13.648  0.00  0.00    +0.000 NA
ATOM     12  C   UNL     1      48.346   8.217  14.485  0.00  0.00    +0.000 C 
ATOM     13  C   UNL     1      47.077   8.525  13.688  0.00  0.00    +0.000 C 
ATOM     14  H   UNL     1      49.689   9.172  13.282  0.00  0.00    +0.000 HD
ENDBRANCH   6   8
BRANCH   1  15
ATOM     15  C   UNL     1      43.545   3.931  11.358  0.00  0.00    +0.000 C 
BRANCH  15  16
ATOM     16  O   UNL     1      43.945   2.836  10.541  0.00  0.00    +0.000 OA
BRANCH  16  21
ATOM     17  C   UNL     1      46.351   2.178   7.909  0.00  0.00    +0.000 A 
ATOM     18  C   UNL     1      46.548   3.446   7.350  0.00  0.00    +0.000 A 
ATOM     19  C   UNL     1      45.849   4.543   7.850  0.00  0.00    +0.000 A 
ATOM     20  C   UNL     1      44.960   4.384   8.916  0.00  0.00    +0.000 A 
ATOM     21  C   UNL     1      44.774   3.127   9.492  0.00  0.00    +0.000 A 
ATOM     22  C   UNL     1      45.477   2.027   8.992  0.00  0.00    +0.000 A 
BRANCH  17  24
ATOM     23  N   UNL     1      46.640  -0.227   7.651  0.00  0.00    +0.000 N 
ATOM     24  C   UNL     1      47.094   1.023   7.342  0.00  0.00    +0.000 C 
ATOM     25  O   UNL     1      48.049   1.181   6.589  0.00  0.00    +0.000 OA
ATOM     26  H   UNL     1      47.085  -0.999   7.170  0.00  0.00    +0.000 HD
ATOM     27  H   UNL     1      45.733  -0.394   8.067  0.00  0.00    +0.000 HD
ENDBRANCH  17  24
ENDBRANCH  16  21
ENDBRANCH  15  16
ENDBRANCH   1  15
TORSDOF 5
ENDMDL
MODEL 2
REMARK VINA RESULT:    -7.921      1.629      2.251
REMARK INTER + INTRA:         -10.520
REMARK INTER:                  -9.628
REMARK INTRA:                  -0.892
REMARK UNBOUND:                -0.283
REMARK  Name = 
REMARK  5 active torsions:
REMARK  status: ('A' for Active; 'I' for Inactive)
REMARK    1  A    between atoms: C_2  and  C_4
REMARK    2  A    between atoms: C_8  and  O_9
REMARK    3  A    between atoms: O_9  and  C_10
REMARK    4  A    between atoms: C_10  and  C_11
REMARK    5  A    between atoms: C_16  and  C_17
REMARK                            x       y       z     vdW  Elec       q    Type
REMARK                         _______ _______ _______ _____ _____    ______ ____
ROOT
ATOM      1  C   UNL     1      45.793   5.872  11.765  0.00  0.00    +0.000 A 
ATOM      2  C   UNL     1      45.922   4.899  12.759  0.00  0.00    +0.000 A 
ATOM      3  C   UNL     1      46.903   5.040  13.727  0.00  0.00    +0.000 A 
ATOM      4  F   UNL     1      47.034   4.100  14.674  0.00  0.00    +0.000 F 
ATOM      5  C   UNL     1      47.788   6.115  13.704  0.00  0.00    +0.000 A 
ATOM      6  C   UNL     1      47.707   7.097  12.700  0.00  0.00    +0.000 A 
ATOM      7  C   UNL     1      46.666   6.977  11.763  0.00  0.00    +0.000 A 
ENDROOT
BRANCH   6   8
ATOM      8  C   UNL     1      48.832   8.124  12.570  0.00  0.00    +0.000 C 
ATOM      9  C   UNL     1      49.469   8.556  13.904  0.00  0.00    +0.000 C 
ATOM     10  C   UNL     1      48.644   9.622  14.620  0.00  0.00    +0.000 C 
ATOM     11  N   UNL     1      48.436  10.803  13.781  0.00  0.00    +0.000 NA
ATOM     12  C   UNL     1      47.768  10.454  12.529  0.00  0.00    +0.000 C 
ATOM     13  C   UNL     1      48.531   9.389  11.739  0.00  0.00    +0.000 C 
ATOM     14  H   UNL     1      49.339  11.231  13.573  0.00  0.00    +0.000 HD
ENDBRANCH   6   8
BRANCH   1  15
ATOM     15  C   UNL     1      44.742   5.732  10.695  0.00  0.00    +0.000 C 
BRANCH  15  16
ATOM     16  O   UNL     1      45.398   5.468   9.460  0.00  0.00    +0.000 OA
BRANCH  16  21
ATOM     17  C   UNL     1      46.527   2.619   7.521  0.00  0.00    +0.000 A 
ATOM     18  C   UNL     1      45.801   1.562   8.079  0.00  0.00    +0.000 A 
ATOM     19  C   UNL     1      44.927   1.799   9.139  0.00  0.00    +0.000 A 
ATOM     20  C   UNL     1      44.766   3.094   9.639  0.00  0.00    +0.000 A 
ATOM     21  C   UNL     1      45.471   4.157   9.075  0.00  0.00    +0.000 A 
ATOM     22  C   UNL     1      46.345   3.919   8.010  0.00  0.00    +0.000 A 
BRANCH  17  24
ATOM     23  N   UNL     1      47.438   3.173   5.330  0.00  0.00    +0.000 N 
ATOM     24  C   UNL     1      47.466   2.332   6.406  0.00  0.00    +0.000 C 
ATOM     25  O   UNL     1      48.268   1.406   6.464  0.00  0.00    +0.000 OA
ATOM     26  H   UNL     1      48.157   3.033   4.631  0.00  0.00    +0.000 HD
ATOM     27  H   UNL     1      46.967   4.068   5.346  0.00  0.00    +0.000 HD
ENDBRANCH  17  24
ENDBRANCH  16  21
ENDBRANCH  15  16
ENDBRANCH   1  15
TORSDOF 5
ENDMDL
MODEL 3
REMARK VINA RESULT:    -7.518      3.191      3.928
REMARK INTER + INTRA:          -9.998
REMARK INTER:                  -9.317
REMARK INTRA:                  -0.681
REMARK UNBOUND:                -0.283
REMARK  Name = 
REMARK  5 active torsions:
REMARK  status: ('A' for Active; 'I' for Inactive)
REMARK    1  A    between atoms: C_2  and  C_4
REMARK    2  A    between atoms: C_8  and  O_9
REMARK    3  A    between atoms: O_9  and  C_10
REMARK    4  A    between atoms: C_10  and  C_11
REMARK    5  A    between atoms: C_16  and  C_17
REMARK                            x       y       z     vdW  Elec       q    Type
REMARK                         _______ _______ _______ _____ _____    ______ ____
ROOT
ATOM      1  C   UNL     1      45.309   6.751  11.369  0.00  0.00    +0.000 A 
ATOM      2  C   UNL     1      46.659   6.729  11.731  0.00  0.00    +0.000 A 
ATOM      3  C   UNL     1      47.250   7.880  12.226  0.00  0.00    +0.000 A 
ATOM      4  F   UNL     1      48.548   7.861  12.562  0.00  0.00    +0.000 F 
ATOM      5  C   UNL     1      46.532   9.069  12.337  0.00  0.00    +0.000 A 
ATOM      6  C   UNL     1      45.180   9.134  11.954  0.00  0.00    +0.000 A 
ATOM      7  C   UNL     1      44.576   7.944  11.514  0.00  0.00    +0.000 A 
ENDROOT
BRANCH   6   8
ATOM      8  C   UNL     1      44.497  10.499  11.867  0.00  0.00    +0.000 C 
ATOM      9  C   UNL     1      43.297  10.559  10.903  0.00  0.00    +0.000 C 
ATOM     10  C   UNL     1      43.731  10.739   9.451  0.00  0.00    +0.000 C 
ATOM     11  N   UNL     1      44.553  11.936   9.273  0.00  0.00    +0.000 NA
ATOM     12  C   UNL     1      45.745  11.893  10.118  0.00  0.00    +0.000 C 
ATOM     13  C   UNL     1      45.402  11.719  11.598  0.00  0.00    +0.000 C 
ATOM     14  H   UNL     1      44.001  12.761   9.510  0.00  0.00    +0.000 HD
ENDBRANCH   6   8
BRANCH   1  15
ATOM     15  C   UNL     1      44.650   5.515  10.815  0.00  0.00    +0.000 C 
BRANCH  15  16
ATOM     16  O   UNL     1      45.121   5.319   9.486  0.00  0.00    +0.000 OA
BRANCH  16  21
ATOM     17  C   UNL     1      46.505   2.602   7.524  0.00  0.00    +0.000 A 
ATOM     18  C   UNL     1      45.881   1.478   8.075  0.00  0.00    +0.000 A 
ATOM     19  C   UNL     1      44.992   1.625   9.139  0.00  0.00    +0.000 A 
ATOM     20  C   UNL     1      44.712   2.896   9.649  0.00  0.00    +0.000 A 
ATOM     21  C   UNL     1      45.314   4.023   9.091  0.00  0.00    +0.000 A 
ATOM     22  C   UNL     1      46.204   3.875   8.023  0.00  0.00    +0.000 A 
BRANCH  17  24
ATOM     23  N   UNL     1      47.277   3.169   5.284  0.00  0.00    +0.000 N 
ATOM     24  C   UNL     1      47.464   2.411   6.405  0.00  0.00    +0.000 C 
ATOM     25  O   UNL     1      48.413   1.640   6.497  0.00  0.00    +0.000 OA
ATOM     26  H   UNL     1      48.000   3.111   4.577  0.00  0.00    +0.000 HD
ATOM     27  H   UNL     1      46.661   3.970   5.260  0.00  0.00    +0.000 HD
ENDBRANCH  17  24
ENDBRANCH  16  21
ENDBRANCH  15  16
ENDBRANCH   1  15
TORSDOF 5
ENDMDL
MODEL 4
REMARK VINA RESULT:    -7.428      4.220      7.744
REMARK INTER + INTRA:          -9.882
REMARK INTER:                  -9.357
REMARK INTRA:                  -0.525
REMARK UNBOUND:                -0.283
REMARK  Name = 
REMARK  5 active torsions:
REMARK  status: ('A' for Active; 'I' for Inactive)
REMARK    1  A    between atoms: C_2  and  C_4
REMARK    2  A    between atoms: C_8  and  O_9
REMARK    3  A    between atoms: O_9  and  C_10
REMARK    4  A    between atoms: C_10  and  C_11
REMARK    5  A    between atoms: C_16  and  C_17
REMARK                            x       y       z     vdW  Elec       q    Type
REMARK                         _______ _______ _______ _____ _____    ______ ____
ROOT
ATOM      1  C   UNL     1      46.883   4.714  13.552  0.00  0.00    +0.000 A 
ATOM      2  C   UNL     1      47.678   5.837  13.309  0.00  0.00    +0.000 A 
ATOM      3  C   UNL     1      47.335   6.706  12.286  0.00  0.00    +0.000 A 
ATOM      4  F   UNL     1      48.104   7.777  12.046  0.00  0.00    +0.000 F 
ATOM      5  C   UNL     1      46.232   6.460  11.472  0.00  0.00    +0.000 A 
ATOM      6  C   UNL     1      45.428   5.323  11.669  0.00  0.00    +0.000 A 
ATOM      7  C   UNL     1      45.749   4.485  12.750  0.00  0.00    +0.000 A 
ENDROOT
BRANCH   6   8
ATOM      8  C   UNL     1      44.377   4.964  10.618  0.00  0.00    +0.000 C 
ATOM      9  C   UNL     1      43.147   4.216  11.166  0.00  0.00    +0.000 C 
ATOM     10  C   UNL     1      43.410   2.723  11.342  0.00  0.00    +0.000 C 
ATOM     11  N   UNL     1      43.839   2.095  10.092  0.00  0.00    +0.000 NA
ATOM     12  C   UNL     1      45.048   2.726   9.568  0.00  0.00    +0.000 C 
ATOM     13  C   UNL     1      44.873   4.231   9.355  0.00  0.00    +0.000 C 
ATOM     14  H   UNL     1      43.091   2.174   9.402  0.00  0.00    +0.000 HD
ENDBRANCH   6   8
BRANCH   1  15
ATOM     15  C   UNL     1      47.246   3.749  14.651  0.00  0.00    +0.000 C 
BRANCH  15  16
ATOM     16  O   UNL     1      46.751   4.270  15.879  0.00  0.00    +0.000 OA
BRANCH  16  21
ATOM     17  C   UNL     1      49.697   3.366  17.792  0.00  0.00    +0.000 A 
ATOM     18  C   UNL     1      49.576   4.162  18.935  0.00  0.00    +0.000 A 
ATOM     19  C   UNL     1      48.498   5.036  19.065  0.00  0.00    +0.000 A 
ATOM     20  C   UNL     1      47.529   5.110  18.060  0.00  0.00    +0.000 A 
ATOM     21  C   UNL     1      47.631   4.303  16.927  0.00  0.00    +0.000 A 
ATOM     22  C   UNL     1      48.711   3.425  16.798  0.00  0.00    +0.000 A 
BRANCH  17  24
ATOM     23  N   UNL     1      51.991   2.789  18.378  0.00  0.00    +0.000 N 
ATOM     24  C   UNL     1      50.868   2.459  17.672  0.00  0.00    +0.000 C 
ATOM     25  O   UNL     1      50.820   1.432  17.004  0.00  0.00    +0.000 OA
ATOM     26  H   UNL     1      52.739   2.107  18.376  0.00  0.00    +0.000 HD
ATOM     27  H   UNL     1      51.992   3.485  19.111  0.00  0.00    +0.000 HD
ENDBRANCH  17  24
ENDBRANCH  16  21
ENDBRANCH  15  16
ENDBRANCH   1  15
TORSDOF 5
ENDMDL
MODEL 5
REMARK VINA RESULT:    -7.242      4.145      7.766
REMARK INTER + INTRA:          -9.642
REMARK INTER:                  -8.953
REMARK INTRA:                  -0.689
REMARK UNBOUND:                -0.283
REMARK  Name = 
REMARK  5 active torsions:
REMARK  status: ('A' for Active; 'I' for Inactive)
REMARK    1  A    between atoms: C_2  and  C_4
REMARK    2  A    between atoms: C_8  and  O_9
REMARK    3  A    between atoms: O_9  and  C_10
REMARK    4  A    between atoms: C_10  and  C_11
REMARK    5  A    between atoms: C_16  and  C_17
REMARK                            x       y       z     vdW  Elec       q    Type
REMARK                         _______ _______ _______ _____ _____    ______ ____
ROOT
ATOM      1  C   UNL     1      47.550   7.647  13.349  0.00  0.00    +0.000 A 
ATOM      2  C   UNL     1      46.672   8.717  13.162  0.00  0.00    +0.000 A 
ATOM      3  C   UNL     1      45.446   8.496  12.555  0.00  0.00    +0.000 A 
ATOM      4  F   UNL     1      44.609   9.525  12.365  0.00  0.00    +0.000 F 
ATOM      5  C   UNL     1      45.089   7.230  12.094  0.00  0.00    +0.000 A 
ATOM      6  C   UNL     1      45.961   6.136  12.239  0.00  0.00    +0.000 A 
ATOM      7  C   UNL     1      47.173   6.362  12.915  0.00  0.00    +0.000 A 
ENDROOT
BRANCH   6   8
ATOM      8  C   UNL     1      45.640   4.827  11.517  0.00  0.00    +0.000 C 
ATOM      9  C   UNL     1      44.672   4.967  10.328  0.00  0.00    +0.000 C 
ATOM     10  C   UNL     1      43.214   5.023  10.772  0.00  0.00    +0.000 C 
ATOM     11  N   UNL     1      42.840   3.849  11.562  0.00  0.00    +0.000 NA
ATOM     12  C   UNL     1      43.687   3.712  12.745  0.00  0.00    +0.000 C 
ATOM     13  C   UNL     1      45.174   3.643  12.391  0.00  0.00    +0.000 C 
ATOM     14  H   UNL     1      42.931   3.012  10.984  0.00  0.00    +0.000 HD
ENDBRANCH   6   8
BRANCH   1  15
ATOM     15  C   UNL     1      48.893   7.868  13.996  0.00  0.00    +0.000 C 
BRANCH  15  16
ATOM     16  O   UNL     1      49.270   6.665  14.656  0.00  0.00    +0.000 OA
BRANCH  16  21
ATOM     17  C   UNL     1      47.995   4.961  17.592  0.00  0.00    +0.000 A 
ATOM     18  C   UNL     1      47.972   5.979  18.552  0.00  0.00    +0.000 A 
ATOM     19  C   UNL     1      48.410   7.260  18.219  0.00  0.00    +0.000 A 
ATOM     20  C   UNL     1      48.860   7.534  16.924  0.00  0.00    +0.000 A 
ATOM     21  C   UNL     1      48.866   6.530  15.957  0.00  0.00    +0.000 A 
ATOM     22  C   UNL     1      48.425   5.246  16.290  0.00  0.00    +0.000 A 
BRANCH  17  24
ATOM     23  N   UNL     1      48.152   3.023  19.060  0.00  0.00    +0.000 N 
ATOM     24  C   UNL     1      47.543   3.601  17.982  0.00  0.00    +0.000 C 
ATOM     25  O   UNL     1      46.629   3.034  17.393  0.00  0.00    +0.000 OA
ATOM     26  H   UNL     1      47.758   2.147  19.383  0.00  0.00    +0.000 HD
ATOM     27  H   UNL     1      48.732   3.542  19.705  0.00  0.00    +0.000 HD
ENDBRANCH  17  24
ENDBRANCH  16  21
ENDBRANCH  15  16
ENDBRANCH   1  15
TORSDOF 5
ENDMDL
MODEL 6
REMARK VINA RESULT:    -7.100      3.704      7.246
REMARK INTER + INTRA:          -9.459
REMARK INTER:                  -8.841
REMARK INTRA:                  -0.618
REMARK UNBOUND:                -0.283
REMARK  Name = 
REMARK  5 active torsions:
REMARK  status: ('A' for Active; 'I' for Inactive)
REMARK    1  A    between atoms: C_2  and  C_4
REMARK    2  A    between atoms: C_8  and  O_9
REMARK    3  A    between atoms: O_9  and  C_10
REMARK    4  A    between atoms: C_10  and  C_11
REMARK    5  A    between atoms: C_16  and  C_17
REMARK                            x       y       z     vdW  Elec       q    Type
REMARK                         _______ _______ _______ _____ _____    ______ ____
ROOT
ATOM      1  C   UNL     1      47.404   6.893  12.296  0.00  0.00    +0.000 A 
ATOM      2  C   UNL     1      47.620   6.230  13.507  0.00  0.00    +0.000 A 
ATOM      3  C   UNL     1      46.843   5.129  13.829  0.00  0.00    +0.000 A 
ATOM      4  F   UNL     1      47.043   4.500  14.995  0.00  0.00    +0.000 F 
ATOM      5  C   UNL     1      45.826   4.693  12.983  0.00  0.00    +0.000 A 
ATOM      6  C   UNL     1      45.561   5.355  11.770  0.00  0.00    +0.000 A 
ATOM      7  C   UNL     1      46.398   6.430  11.426  0.00  0.00    +0.000 A 
ENDROOT
BRANCH   6   8
ATOM      8  C   UNL     1      44.296   4.999  10.988  0.00  0.00    +0.000 C 
ATOM      9  C   UNL     1      43.203   4.296  11.814  0.00  0.00    +0.000 C 
ATOM     10  C   UNL     1      43.468   2.802  11.971  0.00  0.00    +0.000 C 
ATOM     11  N   UNL     1      43.598   2.133  10.675  0.00  0.00    +0.000 NA
ATOM     12  C   UNL     1      44.674   2.720   9.879  0.00  0.00    +0.000 C 
ATOM     13  C   UNL     1      44.486   4.224   9.667  0.00  0.00    +0.000 C 
ATOM     14  H   UNL     1      42.718   2.216  10.165  0.00  0.00    +0.000 HD
ENDBRANCH   6   8
BRANCH   1  15
ATOM     15  C   UNL     1      48.228   8.100  11.932  0.00  0.00    +0.000 C 
BRANCH  15  16
ATOM     16  O   UNL     1      47.691   9.226  12.619  0.00  0.00    +0.000 OA
BRANCH  16  21
ATOM     17  C   UNL     1      44.842  10.853  11.074  0.00  0.00    +0.000 A 
ATOM     18  C   UNL     1      45.436  11.893  10.353  0.00  0.00    +0.000 A 
ATOM     19  C   UNL     1      46.819  12.070  10.397  0.00  0.00    +0.000 A 
ATOM     20  C   UNL     1      47.614  11.202  11.150  0.00  0.00    +0.000 A 
ATOM     21  C   UNL     1      47.031  10.149  11.854  0.00  0.00    +0.000 A 
ATOM     22  C   UNL     1      45.645   9.971  11.809  0.00  0.00    +0.000 A 
BRANCH  17  24
ATOM     23  N   UNL     1      42.671  10.943  12.178  0.00  0.00    +0.000 N 
ATOM     24  C   UNL     1      43.364  10.702  11.026  0.00  0.00    +0.000 C 
ATOM     25  O   UNL     1      42.782  10.418   9.985  0.00  0.00    +0.000 OA
ATOM     26  H   UNL     1      41.661  10.947  12.103  0.00  0.00    +0.000 HD
ATOM     27  H   UNL     1      43.084  11.401  12.980  0.00  0.00    +0.000 HD
ENDBRANCH  17  24
ENDBRANCH  16  21
ENDBRANCH  15  16
ENDBRANCH   1  15
TORSDOF 5
ENDMDL
MODEL 7
REMARK VINA RESULT:    -7.005      4.587      8.547
REMARK INTER + INTRA:          -9.335
REMARK INTER:                  -8.816
REMARK INTRA:                  -0.520
REMARK UNBOUND:                -0.283
REMARK  Name = 
REMARK  5 active torsions:
REMARK  status: ('A' for Active; 'I' for Inactive)
REMARK    1  A    between atoms: C_2  and  C_4
REMARK    2  A    between atoms: C_8  and  O_9
REMARK    3  A    between atoms: O_9  and  C_10
REMARK    4  A    between atoms: C_10  and  C_11
REMARK    5  A    between atoms: C_16  and  C_17
REMARK                            x       y       z     vdW  Elec       q    Type
REMARK                         _______ _______ _______ _____ _____    ______ ____
ROOT
ATOM      1  C   UNL     1      46.940   4.788  13.875  0.00  0.00    +0.000 A 
ATOM      2  C   UNL     1      47.640   5.990  13.743  0.00  0.00    +0.000 A 
ATOM      3  C   UNL     1      47.227   6.919  12.802  0.00  0.00    +0.000 A 
ATOM      4  F   UNL     1      47.905   8.067  12.668  0.00  0.00    +0.000 F 
ATOM      5  C   UNL     1      46.149   6.659  11.959  0.00  0.00    +0.000 A 
ATOM      6  C   UNL     1      45.442   5.447  12.043  0.00  0.00    +0.000 A 
ATOM      7  C   UNL     1      45.830   4.541  13.046  0.00  0.00    +0.000 A 
ENDROOT
BRANCH   6   8
ATOM      8  C   UNL     1      44.425   5.100  10.955  0.00  0.00    +0.000 C 
ATOM      9  C   UNL     1      43.157   4.386  11.460  0.00  0.00    +0.000 C 
ATOM     10  C   UNL     1      43.378   2.890  11.661  0.00  0.00    +0.000 C 
ATOM     11  N   UNL     1      43.842   2.239  10.435  0.00  0.00    +0.000 NA
ATOM     12  C   UNL     1      45.086   2.837   9.953  0.00  0.00    +0.000 C 
ATOM     13  C   UNL     1      44.954   4.343   9.719  0.00  0.00    +0.000 C 
ATOM     14  H   UNL     1      43.125   2.328   9.715  0.00  0.00    +0.000 HD
ENDBRANCH   6   8
BRANCH   1  15
ATOM     15  C   UNL     1      47.381   3.758  14.884  0.00  0.00    +0.000 C 
BRANCH  15  16
ATOM     16  O   UNL     1      46.813   4.101  16.143  0.00  0.00    +0.000 OA
BRANCH  16  21
ATOM     17  C   UNL     1      47.982   5.354  19.339  0.00  0.00    +0.000 A 
ATOM     18  C   UNL     1      49.280   4.840  19.413  0.00  0.00    +0.000 A 
ATOM     19  C   UNL     1      49.773   4.040  18.383  0.00  0.00    +0.000 A 
ATOM     20  C   UNL     1      48.977   3.761  17.269  0.00  0.00    +0.000 A 
ATOM     21  C   UNL     1      47.689   4.287  17.178  0.00  0.00    +0.000 A 
ATOM     22  C   UNL     1      47.196   5.091  18.210  0.00  0.00    +0.000 A 
BRANCH  17  24
ATOM     23  N   UNL     1      47.197   5.548  21.638  0.00  0.00    +0.000 N 
ATOM     24  C   UNL     1      47.476   6.185  20.462  0.00  0.00    +0.000 C 
ATOM     25  O   UNL     1      47.356   7.401  20.358  0.00  0.00    +0.000 OA
ATOM     26  H   UNL     1      46.962   6.139  22.425  0.00  0.00    +0.000 HD
ATOM     27  H   UNL     1      47.501   4.603  21.834  0.00  0.00    +0.000 HD
ENDBRANCH  17  24
ENDBRANCH  16  21
ENDBRANCH  15  16
ENDBRANCH   1  15
TORSDOF 5
ENDMDL
MODEL 8
REMARK VINA RESULT:    -6.945      3.345      7.250
REMARK INTER + INTRA:          -9.259
REMARK INTER:                  -8.517
REMARK INTRA:                  -0.742
REMARK UNBOUND:                -0.283
REMARK  Name = 
REMARK  5 active torsions:
REMARK  status: ('A' for Active; 'I' for Inactive)
REMARK    1  A    between atoms: C_2  and  C_4
REMARK    2  A    between atoms: C_8  and  O_9
REMARK    3  A    between atoms: O_9  and  C_10
REMARK    4  A    between atoms: C_10  and  C_11
REMARK    5  A    between atoms: C_16  and  C_17
REMARK                            x       y       z     vdW  Elec       q    Type
REMARK                         _______ _______ _______ _____ _____    ______ ____
ROOT
ATOM      1  C   UNL     1      45.857   5.662  11.964  0.00  0.00    +0.000 A 
ATOM      2  C   UNL     1      44.878   5.485  12.945  0.00  0.00    +0.000 A 
ATOM      3  C   UNL     1      43.809   4.639  12.696  0.00  0.00    +0.000 A 
ATOM      4  F   UNL     1      42.864   4.479  13.633  0.00  0.00    +0.000 F 
ATOM      5  C   UNL     1      43.675   3.990  11.471  0.00  0.00    +0.000 A 
ATOM      6  C   UNL     1      44.626   4.169  10.451  0.00  0.00    +0.000 A 
ATOM      7  C   UNL     1      45.738   4.978  10.740  0.00  0.00    +0.000 A 
ENDROOT
BRANCH   6   8
ATOM      8  C   UNL     1      44.325   3.634   9.050  0.00  0.00    +0.000 C 
ATOM      9  C   UNL     1      44.385   2.101   8.919  0.00  0.00    +0.000 C 
ATOM     10  C   UNL     1      45.813   1.590   8.754  0.00  0.00    +0.000 C 
ATOM     11  N   UNL     1      46.479   2.198   7.601  0.00  0.00    +0.000 NA
ATOM     12  C   UNL     1      46.511   3.655   7.714  0.00  0.00    +0.000 C 
ATOM     13  C   UNL     1      45.114   4.256   7.879  0.00  0.00    +0.000 C 
ATOM     14  H   UNL     1      45.982   1.937   6.749  0.00  0.00    +0.000 HD
ENDBRANCH   6   8
BRANCH   1  15
ATOM     15  C   UNL     1      47.021   6.587  12.209  0.00  0.00    +0.000 C 
BRANCH  15  16
ATOM     16  O   UNL     1      46.590   7.615  13.095  0.00  0.00    +0.000 OA
BRANCH  16  21
ATOM     17  C   UNL     1      44.645  10.282  11.594  0.00  0.00    +0.000 A 
ATOM     18  C   UNL     1      45.607  11.271  11.364  0.00  0.00    +0.000 A 
ATOM     19  C   UNL     1      46.933  11.053  11.734  0.00  0.00    +0.000 A 
ATOM     20  C   UNL     1      47.307   9.842  12.325  0.00  0.00    +0.000 A 
ATOM     21  C   UNL     1      46.357   8.844  12.538  0.00  0.00    +0.000 A 
ATOM     22  C   UNL     1      45.028   9.062  12.164  0.00  0.00    +0.000 A 
BRANCH  17  24
ATOM     23  N   UNL     1      42.413  11.077  12.164  0.00  0.00    +0.000 N 
ATOM     24  C   UNL     1      43.236  10.552  11.208  0.00  0.00    +0.000 C 
ATOM     25  O   UNL     1      42.834  10.356  10.066  0.00  0.00    +0.000 OA
ATOM     26  H   UNL     1      41.490  11.359  11.858  0.00  0.00    +0.000 HD
ATOM     27  H   UNL     1      42.759  11.465  13.031  0.00  0.00    +0.000 HD
ENDBRANCH  17  24
ENDBRANCH  16  21
ENDBRANCH  15  16
ENDBRANCH   1  15
TORSDOF 5
ENDMDL
MODEL 9
REMARK VINA RESULT:    -6.910      3.716      5.233
REMARK INTER + INTRA:          -9.213
REMARK INTER:                  -8.293
REMARK INTRA:                  -0.919
REMARK UNBOUND:                -0.283
REMARK  Name = 
REMARK  5 active torsions:
REMARK  status: ('A' for Active; 'I' for Inactive)
REMARK    1  A    between atoms: C_2  and  C_4
REMARK    2  A    between atoms: C_8  and  O_9
REMARK    3  A    between atoms: O_9  and  C_10
REMARK    4  A    between atoms: C_10  and  C_11
REMARK    5  A    between atoms: C_16  and  C_17
REMARK                            x       y       z     vdW  Elec       q    Type
REMARK                         _______ _______ _______ _____ _____    ______ ____
ROOT
ATOM      1  C   UNL     1      47.310   8.076  12.316  0.00  0.00    +0.000 A 
ATOM      2  C   UNL     1      48.572   8.444  11.843  0.00  0.00    +0.000 A 
ATOM      3  C   UNL     1      48.797   9.753  11.449  0.00  0.00    +0.000 A 
ATOM      4  F   UNL     1      50.005  10.102  10.984  0.00  0.00    +0.000 F 
ATOM      5  C   UNL     1      47.777  10.701  11.481  0.00  0.00    +0.000 A 
ATOM      6  C   UNL     1      46.487  10.358  11.923  0.00  0.00    +0.000 A 
ATOM      7  C   UNL     1      46.289   9.044  12.381  0.00  0.00    +0.000 A 
ENDROOT
BRANCH   6   8
ATOM      8  C   UNL     1      45.342  11.352  11.724  0.00  0.00    +0.000 C 
ATOM      9  C   UNL     1      43.967  10.710  11.467  0.00  0.00    +0.000 C 
ATOM     10  C   UNL     1      43.789  10.288  10.011  0.00  0.00    +0.000 C 
ATOM     11  N   UNL     1      43.975  11.412   9.093  0.00  0.00    +0.000 NA
ATOM     12  C   UNL     1      45.298  12.013   9.249  0.00  0.00    +0.000 C 
ATOM     13  C   UNL     1      45.562  12.472  10.685  0.00  0.00    +0.000 C 
ATOM     14  H   UNL     1      43.260  12.118   9.276  0.00  0.00    +0.000 HD
ENDBRANCH   6   8
BRANCH   1  15
ATOM     15  C   UNL     1      47.040   6.655  12.737  0.00  0.00    +0.000 C 
BRANCH  15  16
ATOM     16  O   UNL     1      45.637   6.508  12.924  0.00  0.00    +0.000 OA
BRANCH  16  21
ATOM     17  C   UNL     1      44.797   4.343  10.138  0.00  0.00    +0.000 A 
ATOM     18  C   UNL     1      43.946   3.402  10.726  0.00  0.00    +0.000 A 
ATOM     19  C   UNL     1      43.658   3.479  12.088  0.00  0.00    +0.000 A 
ATOM     20  C   UNL     1      44.210   4.501  12.866  0.00  0.00    +0.000 A 
ATOM     21  C   UNL     1      45.042   5.455  12.282  0.00  0.00    +0.000 A 
ATOM     22  C   UNL     1      45.329   5.379  10.916  0.00  0.00    +0.000 A 
BRANCH  17  24
ATOM     23  N   UNL     1      44.333   3.366   7.954  0.00  0.00    +0.000 N 
ATOM     24  C   UNL     1      45.102   4.224   8.688  0.00  0.00    +0.000 C 
ATOM     25  O   UNL     1      45.978   4.899   8.159  0.00  0.00    +0.000 OA
ATOM     26  H   UNL     1      44.477   3.378   6.952  0.00  0.00    +0.000 HD
ATOM     27  H   UNL     1      43.466   2.977   8.299  0.00  0.00    +0.000 HD
ENDBRANCH  17  24
ENDBRANCH  16  21
ENDBRANCH  15  16
ENDBRANCH   1  15
TORSDOF 5
ENDMDL
