MODEL 1
REMARK VINA RESULT:    -9.056      0.000      0.000
REMARK INTER + INTRA:         -12.657
REMARK INTER:                 -11.704
REMARK INTRA:                  -0.953
REMARK UNBOUND:                -0.953
REMARK  Name = 
REMARK  5 active torsions:
REMARK  status: ('A' for Active; 'I' for Inactive)
REMARK    1  A    between atoms: C_2  and  C_4
REMARK    2  A    between atoms: N_8  and  C_9
REMARK    3  A    between atoms: C_9  and  C_10
REMARK    4  A    between atoms: C_10  and  C_11
REMARK    5  A    between atoms: C_16  and  C_17
REMARK                            x       y       z     vdW  Elec       q    Type
REMARK                         _______ _______ _______ _____ _____    ______ ____
ROOT
ATOM      1  C   UNL     1      43.238   4.548  11.095  0.00  0.00    +0.000 C 
ENDROOT
BRANCH   1   6
ATOM      2  C   UNL     1      46.432   2.497   7.747  0.00  0.00    +0.000 A 
ATOM      3  C   UNL     1      45.541   1.871   8.611  0.00  0.00    +0.000 A 
ATOM      4  C   UNL     1      44.604   2.643   9.297  0.00  0.00    +0.000 A 
ATOM      5  C   UNL     1      44.587   4.025   9.132  0.00  0.00    +0.000 A 
ATOM      6  N   UNL     1      43.644   4.849   9.729  0.00  0.00    +0.000 N 
ATOM      7  N   UNL     1      45.464   4.645   8.317  0.00  0.00    +0.000 NA
ATOM      8  C   UNL     1      46.367   3.878   7.648  0.00  0.00    +0.000 A 
ATOM      9  H   UNL     1      43.951   5.805   9.557  0.00  0.00    +0.000 HD
BRANCH   2  11
ATOM     10  N   UNL     1      48.492   2.468   6.460  0.00  0.00    +0.000 N 
ATOM     11  C   UNL     1      47.431   1.756   6.951  0.00  0.00    +0.000 C 
ATOM     12  O   UNL     1      47.336   0.549   6.769  0.00  0.00    +0.000 OA
ATOM     13  H   UNL     1      49.221   1.933   6.004  0.00  0.00    +0.000 HD
ATOM     14  H   UNL     1      48.733   3.391   6.793  0.00  0.00    +0.000 HD
ENDBRANCH   2  11
ENDBRANCH   1   6
BRANCH   1  15
ATOM     15  C   UNL     1      43.572   5.716  12.033  0.00  0.00    +0.000 C 
BRANCH  15  16
ATOM     16  C   UNL     1      45.021   5.665  12.461  0.00  0.00    +0.000 A 
ATOM     17  C   UNL     1      45.476   4.656  13.311  0.00  0.00    +0.000 A 
ATOM     18  C   UNL     1      46.794   4.671  13.746  0.00  0.00    +0.000 A 
ATOM     19  F   UNL     1      47.226   3.705  14.567  0.00  0.00    +0.000 F 
ATOM     20  C   UNL     1      47.673   5.681  13.361  0.00  0.00    +0.000 A 
ATOM     21  C   UNL     1      47.256   6.713  12.503  0.00  0.00    +0.000 A 
ATOM     22  C   UNL     1      45.917   6.675  12.059  0.00  0.00    +0.000 A 
BRANCH  21  23
ATOM     23  C   UNL     1      48.179   7.801  12.097  0.00  0.00    +0.000 A 
ATOM     24  C   UNL     1      47.746   9.130  11.983  0.00  0.00    +0.000 A 
ATOM     25  C   UNL     1      48.644  10.112  11.586  0.00  0.00    +0.000 A 
ATOM     26  N   UNL     1      49.940   9.875  11.305  0.00  0.00    +0.000 NA
ATOM     27  C   UNL     1      50.354   8.599  11.422  0.00  0.00    +0.000 A 
ATOM     28  C   UNL     1      49.528   7.550  11.802  0.00  0.00    +0.000 A 
ENDBRANCH  21  23
ENDBRANCH  15  16
ENDBRANCH   1  15
TORSDOF 5
ENDMDL
MODEL 2
REMARK VINA RESULT:    -8.808      2.470      3.688
REMARK INTER + INTRA:         -12.336
REMARK INTER:                 -11.595
REMARK INTRA:                  -0.741
REMARK UNBOUND:                -0.953
REMARK  Name = 
REMARK  5 active torsions:
REMARK  status: ('A' for Active; 'I' for Inactive)
REMARK    1  A    between atoms: C_2  and  C_4
REMARK    2  A    between atoms: N_8  and  C_9
REMARK    3  A    between atoms: C_9  and  C_10
REMARK    4  A    between atoms: C_10  and  C_11
REMARK    5  A    between atoms: C_16  and  C_17
REMARK                            x       y       z     vdW  Elec       q    Type
REMARK                         _______ _______ _______ _____ _____    ______ ____
ROOT
ATOM      1  C   UNL     1      43.487   4.537  11.233  0.00  0.00    +0.000 C 
ENDROOT
BRANCH   1   6
ATOM      2  C   UNL     1      46.473   2.506   7.686  0.00  0.00    +0.000 A 
ATOM      3  C   UNL     1      45.676   1.873   8.633  0.00  0.00    +0.000 A 
ATOM      4  C   UNL     1      44.770   2.632   9.375  0.00  0.00    +0.000 A 
ATOM      5  C   UNL     1      44.693   4.008   9.179  0.00  0.00    +0.000 A 
ATOM      6  N   UNL     1      43.772   4.815   9.832  0.00  0.00    +0.000 N 
ATOM      7  N   UNL     1      45.479   4.635   8.283  0.00  0.00    +0.000 NA
ATOM      8  C   UNL     1      46.352   3.882   7.561  0.00  0.00    +0.000 A 
ATOM      9  H   UNL     1      44.031   5.777   9.614  0.00  0.00    +0.000 HD
BRANCH   2  11
ATOM     10  N   UNL     1      48.516   2.476   6.371  0.00  0.00    +0.000 N 
ATOM     11  C   UNL     1      47.431   1.779   6.829  0.00  0.00    +0.000 C 
ATOM     12  O   UNL     1      47.282   0.592   6.569  0.00  0.00    +0.000 OA
ATOM     13  H   UNL     1      49.216   1.942   5.872  0.00  0.00    +0.000 HD
ATOM     14  H   UNL     1      48.800   3.364   6.762  0.00  0.00    +0.000 HD
ENDBRANCH   2  11
ENDBRANCH   1   6
BRANCH   1  15
ATOM     15  C   UNL     1      43.692   5.792  12.091  0.00  0.00    +0.000 C 
BRANCH  15  16
ATOM     16  C   UNL     1      45.153   5.977  12.433  0.00  0.00    +0.000 A 
ATOM     17  C   UNL     1      46.011   6.643  11.555  0.00  0.00    +0.000 A 
ATOM     18  C   UNL     1      47.362   6.739  11.860  0.00  0.00    +0.000 A 
ATOM     19  F   UNL     1      48.181   7.373  11.012  0.00  0.00    +0.000 F 
ATOM     20  C   UNL     1      47.885   6.174  13.020  0.00  0.00    +0.000 A 
ATOM     21  C   UNL     1      47.056   5.499  13.932  0.00  0.00    +0.000 A 
ATOM     22  C   UNL     1      45.683   5.422  13.614  0.00  0.00    +0.000 A 
BRANCH  21  23
ATOM     23  C   UNL     1      47.604   4.881  15.164  0.00  0.00    +0.000 A 
ATOM     24  C   UNL     1      47.367   3.535  15.482  0.00  0.00    +0.000 A 
ATOM     25  C   UNL     1      47.890   3.005  16.654  0.00  0.00    +0.000 A 
ATOM     26  N   UNL     1      48.639   3.707  17.527  0.00  0.00    +0.000 NA
ATOM     27  C   UNL     1      48.870   4.996  17.215  0.00  0.00    +0.000 A 
ATOM     28  C   UNL     1      48.381   5.615  16.073  0.00  0.00    +0.000 A 
ENDBRANCH  21  23
ENDBRANCH  15  16
ENDBRANCH   1  15
TORSDOF 5
ENDMDL
MODEL 3
REMARK VINA RESULT:    -7.806      3.702      7.264
REMARK INTER + INTRA:         -11.041
REMARK INTER:                 -10.205
REMARK INTRA:                  -0.835
REMARK UNBOUND:                -0.953
REMARK  Name = 
REMARK  5 active torsions:
REMARK  status: ('A' for Active; 'I' for Inactive)
REMARK    1  A    between atoms: C_2  and  C_4
REMARK    2  A    between atoms: N_8  and  C_9
REMARK    3  A    between atoms: C_9  and  C_10
REMARK    4  A    between atoms: C_10  and  C_11
REMARK    5  A    between atoms: C_16  and  C_17
REMARK                            x       y       z     vdW  Elec       q    Type
REMARK                         _______ _______ _______ _____ _____    ______ ____
ROOT
ATOM      1  C   UNL     1      45.259   6.808  12.618  0.00  0.00    +0.000 C 
ENDROOT
BRANCH   1   6
ATOM      2  C   UNL     1      48.088   4.467  16.102  0.00  0.00    +0.000 A 
ATOM      3  C   UNL     1      47.049   3.963  15.329  0.00  0.00    +0.000 A 
ATOM      4  C   UNL     1      46.549   4.732  14.278  0.00  0.00    +0.000 A 
ATOM      5  C   UNL     1      47.074   5.998  14.031  0.00  0.00    +0.000 A 
ATOM      6  N   UNL     1      46.673   6.790  12.965  0.00  0.00    +0.000 N 
ATOM      7  N   UNL     1      48.065   6.506  14.791  0.00  0.00    +0.000 NA
ATOM      8  C   UNL     1      48.548   5.742  15.807  0.00  0.00    +0.000 A 
ATOM      9  H   UNL     1      47.107   7.701  13.108  0.00  0.00    +0.000 HD
BRANCH   2  11
ATOM     10  N   UNL     1      48.051   3.711  18.410  0.00  0.00    +0.000 N 
ATOM     11  C   UNL     1      48.706   3.709  17.208  0.00  0.00    +0.000 C 
ATOM     12  O   UNL     1      49.739   3.073  17.049  0.00  0.00    +0.000 OA
ATOM     13  H   UNL     1      48.428   3.106  19.130  0.00  0.00    +0.000 HD
ATOM     14  H   UNL     1      47.089   4.006  18.509  0.00  0.00    +0.000 HD
ENDBRANCH   2  11
ENDBRANCH   1   6
BRANCH   1  15
ATOM     15  C   UNL     1      45.069   6.721  11.098  0.00  0.00    +0.000 C 
BRANCH  15  16
ATOM     16  C   UNL     1      44.766   5.301  10.674  0.00  0.00    +0.000 A 
ATOM     17  C   UNL     1      43.872   4.516  11.404  0.00  0.00    +0.000 A 
ATOM     18  C   UNL     1      43.665   3.194  11.035  0.00  0.00    +0.000 A 
ATOM     19  F   UNL     1      42.811   2.442  11.742  0.00  0.00    +0.000 F 
ATOM     20  C   UNL     1      44.339   2.628   9.957  0.00  0.00    +0.000 A 
ATOM     21  C   UNL     1      45.244   3.385   9.192  0.00  0.00    +0.000 A 
ATOM     22  C   UNL     1      45.433   4.731   9.573  0.00  0.00    +0.000 A 
BRANCH  21  23
ATOM     23  C   UNL     1      45.978   2.789   8.050  0.00  0.00    +0.000 A 
ATOM     24  C   UNL     1      46.416   1.456   8.070  0.00  0.00    +0.000 A 
ATOM     25  C   UNL     1      47.112   0.947   6.982  0.00  0.00    +0.000 A 
ATOM     26  N   UNL     1      47.397   1.658   5.873  0.00  0.00    +0.000 NA
ATOM     27  C   UNL     1      46.970   2.934   5.855  0.00  0.00    +0.000 A 
ATOM     28  C   UNL     1      46.277   3.533   6.898  0.00  0.00    +0.000 A 
ENDBRANCH  21  23
ENDBRANCH  15  16
ENDBRANCH   1  15
TORSDOF 5
ENDMDL
MODEL 4
REMARK VINA RESULT:    -7.140      3.272      7.144
REMARK INTER + INTRA:         -10.180
REMARK INTER:                  -9.524
REMARK INTRA:                  -0.655
REMARK UNBOUND:                -0.953
REMARK  Name = 
REMARK  5 active torsions:
REMARK  status: ('A' for Active; 'I' for Inactive)
REMARK    1  A    between atoms: C_2  and  C_4
REMARK    2  A    between atoms: N_8  and  C_9
REMARK    3  A    between atoms: C_9  and  C_10
REMARK    4  A    between atoms: C_10  and  C_11
REMARK    5  A    between atoms: C_16  and  C_17
REMARK                            x       y       z     vdW  Elec       q    Type
REMARK                         _______ _______ _______ _____ _____    ______ ____
ROOT
ATOM      1  C   UNL     1      45.304   6.724  12.392  0.00  0.00    +0.000 C 
ENDROOT
BRANCH   1   6
ATOM      2  C   UNL     1      49.994   8.621  12.532  0.00  0.00    +0.000 A 
ATOM      3  C   UNL     1      49.470   7.629  11.712  0.00  0.00    +0.000 A 
ATOM      4  C   UNL     1      48.092   7.412  11.702  0.00  0.00    +0.000 A 
ATOM      5  C   UNL     1      47.264   8.168  12.527  0.00  0.00    +0.000 A 
ATOM      6  N   UNL     1      45.881   8.054  12.522  0.00  0.00    +0.000 N 
ATOM      7  N   UNL     1      47.764   9.115  13.345  0.00  0.00    +0.000 NA
ATOM      8  C   UNL     1      49.109   9.321  13.338  0.00  0.00    +0.000 A 
ATOM      9  H   UNL     1      45.547   8.609  13.308  0.00  0.00    +0.000 HD
BRANCH   2  11
ATOM     10  N   UNL     1      52.307   7.980  12.160  0.00  0.00    +0.000 N 
ATOM     11  C   UNL     1      51.433   8.947  12.578  0.00  0.00    +0.000 C 
ATOM     12  O   UNL     1      51.828  10.047  12.939  0.00  0.00    +0.000 OA
ATOM     13  H   UNL     1      53.282   8.250  12.099  0.00  0.00    +0.000 HD
ATOM     14  H   UNL     1      52.016   7.171  11.629  0.00  0.00    +0.000 HD
ENDBRANCH   2  11
ENDBRANCH   1   6
BRANCH   1  15
ATOM     15  C   UNL     1      44.554   6.582  11.061  0.00  0.00    +0.000 C 
BRANCH  15  16
ATOM     16  C   UNL     1      44.430   5.128  10.665  0.00  0.00    +0.000 A 
ATOM     17  C   UNL     1      43.647   4.250  11.416  0.00  0.00    +0.000 A 
ATOM     18  C   UNL     1      43.605   2.905  11.074  0.00  0.00    +0.000 A 
ATOM     19  F   UNL     1      42.857   2.066  11.800  0.00  0.00    +0.000 F 
ATOM     20  C   UNL     1      44.340   2.409  10.000  0.00  0.00    +0.000 A 
ATOM     21  C   UNL     1      45.137   3.259   9.215  0.00  0.00    +0.000 A 
ATOM     22  C   UNL     1      45.157   4.625   9.569  0.00  0.00    +0.000 A 
BRANCH  21  23
ATOM     23  C   UNL     1      45.935   2.739   8.078  0.00  0.00    +0.000 A 
ATOM     24  C   UNL     1      46.425   1.425   8.062  0.00  0.00    +0.000 A 
ATOM     25  C   UNL     1      47.179   0.988   6.980  0.00  0.00    +0.000 A 
ATOM     26  N   UNL     1      47.473   1.753   5.911  0.00  0.00    +0.000 NA
ATOM     27  C   UNL     1      46.995   3.011   5.927  0.00  0.00    +0.000 A 
ATOM     28  C   UNL     1      46.242   3.540   6.967  0.00  0.00    +0.000 A 
ENDBRANCH  21  23
ENDBRANCH  15  16
ENDBRANCH   1  15
TORSDOF 5
ENDMDL
MODEL 5
REMARK VINA RESULT:    -6.959      4.144      7.649
REMARK INTER + INTRA:          -9.946
REMARK INTER:                  -8.984
REMARK INTRA:                  -0.962
REMARK UNBOUND:                -0.953
REMARK  Name = 
REMARK  5 active torsions:
REMARK  status: ('A' for Active; 'I' for Inactive)
REMARK    1  A    between atoms: C_2  and  C_4
REMARK    2  A    between atoms: N_8  and  C_9
REMARK    3  A    between atoms: C_9  and  C_10
REMARK    4  A    between atoms: C_10  and  C_11
REMARK    5  A    between atoms: C_16  and  C_17
REMARK                            x       y       z     vdW  Elec       q    Type
REMARK                         _______ _______ _______ _____ _____    ______ ____
ROOT
ATOM      1  C   UNL     1      49.177   8.334  13.841  0.00  0.00    +0.000 C 
ENDROOT
BRANCH   1   6
ATOM      2  C   UNL     1      48.172   4.425  16.895  0.00  0.00    +0.000 A 
ATOM      3  C   UNL     1      47.471   4.875  15.784  0.00  0.00    +0.000 A 
ATOM      4  C   UNL     1      48.047   5.846  14.964  0.00  0.00    +0.000 A 
ATOM      5  C   UNL     1      49.299   6.367  15.279  0.00  0.00    +0.000 A 
ATOM      6  N   UNL     1      49.962   7.284  14.475  0.00  0.00    +0.000 N 
ATOM      7  N   UNL     1      49.976   5.956  16.369  0.00  0.00    +0.000 NA
ATOM      8  C   UNL     1      49.405   5.004  17.155  0.00  0.00    +0.000 A 
ATOM      9  H   UNL     1      50.773   7.596  15.009  0.00  0.00    +0.000 HD
BRANCH   2  11
ATOM     10  N   UNL     1      48.357   3.141  18.949  0.00  0.00    +0.000 N 
ATOM     11  C   UNL     1      47.657   3.374  17.797  0.00  0.00    +0.000 C 
ATOM     12  O   UNL     1      46.627   2.764  17.544  0.00  0.00    +0.000 OA
ATOM     13  H   UNL     1      47.939   2.493  19.606  0.00  0.00    +0.000 HD
ATOM     14  H   UNL     1      49.051   3.782  19.308  0.00  0.00    +0.000 HD
ENDBRANCH   2  11
ENDBRANCH   1   6
BRANCH   1  15
ATOM     15  C   UNL     1      48.960   8.029  12.353  0.00  0.00    +0.000 C 
BRANCH  15  16
ATOM     16  C   UNL     1      47.486   7.897  12.041  0.00  0.00    +0.000 A 
ATOM     17  C   UNL     1      46.624   8.982  12.206  0.00  0.00    +0.000 A 
ATOM     18  C   UNL     1      45.265   8.816  11.979  0.00  0.00    +0.000 A 
ATOM     19  F   UNL     1      44.440   9.858  12.145  0.00  0.00    +0.000 F 
ATOM     20  C   UNL     1      44.738   7.584  11.601  0.00  0.00    +0.000 A 
ATOM     21  C   UNL     1      45.572   6.467  11.419  0.00  0.00    +0.000 A 
ATOM     22  C   UNL     1      46.953   6.657  11.640  0.00  0.00    +0.000 A 
BRANCH  21  23
ATOM     23  C   UNL     1      45.021   5.146  11.029  0.00  0.00    +0.000 A 
ATOM     24  C   UNL     1      45.120   4.665   9.716  0.00  0.00    +0.000 A 
ATOM     25  C   UNL     1      44.577   3.427   9.396  0.00  0.00    +0.000 A 
ATOM     26  N   UNL     1      43.951   2.630  10.284  0.00  0.00    +0.000 NA
ATOM     27  C   UNL     1      43.863   3.093  11.545  0.00  0.00    +0.000 A 
ATOM     28  C   UNL     1      44.367   4.319  11.956  0.00  0.00    +0.000 A 
ENDBRANCH  21  23
ENDBRANCH  15  16
ENDBRANCH   1  15
TORSDOF 5
ENDMDL
MODEL 6
REMARK VINA RESULT:    -6.939      5.238      8.080
REMARK INTER + INTRA:          -9.920
REMARK INTER:                  -9.241
REMARK INTRA:                  -0.679
REMARK UNBOUND:                -0.953
REMARK  Name = 
REMARK  5 active torsions:
REMARK  status: ('A' for Active; 'I' for Inactive)
REMARK    1  A    between atoms: C_2  and  C_4
REMARK    2  A    between atoms: N_8  and  C_9
REMARK    3  A    between atoms: C_9  and  C_10
REMARK    4  A    between atoms: C_10  and  C_11
REMARK    5  A    between atoms: C_16  and  C_17
REMARK                            x       y       z     vdW  Elec       q    Type
REMARK                         _______ _______ _______ _____ _____    ______ ____
ROOT
ATOM      1  C   UNL     1      48.561   6.840  16.067  0.00  0.00    +0.000 C 
ENDROOT
BRANCH   1   6
ATOM      2  C   UNL     1      51.092   2.674  17.429  0.00  0.00    +0.000 A 
ATOM      3  C   UNL     1      51.431   4.009  17.613  0.00  0.00    +0.000 A 
ATOM      4  C   UNL     1      50.481   4.995  17.345  0.00  0.00    +0.000 A 
ATOM      5  C   UNL     1      49.221   4.636  16.876  0.00  0.00    +0.000 A 
ATOM      6  N   UNL     1      48.206   5.555  16.652  0.00  0.00    +0.000 N 
ATOM      7  N   UNL     1      48.890   3.346  16.670  0.00  0.00    +0.000 NA
ATOM      8  C   UNL     1      49.824   2.395  16.942  0.00  0.00    +0.000 A 
ATOM      9  H   UNL     1      47.458   5.045  16.184  0.00  0.00    +0.000 HD
BRANCH   2  11
ATOM     10  N   UNL     1      51.465   0.366  18.091  0.00  0.00    +0.000 N 
ATOM     11  C   UNL     1      52.019   1.563  17.723  0.00  0.00    +0.000 C 
ATOM     12  O   UNL     1      53.230   1.693  17.606  0.00  0.00    +0.000 OA
ATOM     13  H   UNL     1      52.104  -0.414  18.189  0.00  0.00    +0.000 HD
ATOM     14  H   UNL     1      50.487   0.152  17.956  0.00  0.00    +0.000 HD
ENDBRANCH   2  11
ENDBRANCH   1   6
BRANCH   1  15
ATOM     15  C   UNL     1      48.861   6.694  14.570  0.00  0.00    +0.000 C 
BRANCH  15  16
ATOM     16  C   UNL     1      47.618   6.943  13.745  0.00  0.00    +0.000 A 
ATOM     17  C   UNL     1      47.103   8.233  13.606  0.00  0.00    +0.000 A 
ATOM     18  C   UNL     1      45.922   8.426  12.903  0.00  0.00    +0.000 A 
ATOM     19  F   UNL     1      45.429   9.664  12.776  0.00  0.00    +0.000 F 
ATOM     20  C   UNL     1      45.230   7.356  12.341  0.00  0.00    +0.000 A 
ATOM     21  C   UNL     1      45.716   6.042  12.454  0.00  0.00    +0.000 A 
ATOM     22  C   UNL     1      46.925   5.865  13.161  0.00  0.00    +0.000 A 
BRANCH  21  23
ATOM     23  C   UNL     1      44.981   4.893  11.872  0.00  0.00    +0.000 A 
ATOM     24  C   UNL     1      44.989   4.635  10.493  0.00  0.00    +0.000 A 
ATOM     25  C   UNL     1      44.274   3.555   9.993  0.00  0.00    +0.000 A 
ATOM     26  N   UNL     1      43.560   2.708  10.760  0.00  0.00    +0.000 NA
ATOM     27  C   UNL     1      43.559   2.955  12.083  0.00  0.00    +0.000 A 
ATOM     28  C   UNL     1      44.235   4.014  12.673  0.00  0.00    +0.000 A 
ENDBRANCH  21  23
ENDBRANCH  15  16
ENDBRANCH   1  15
TORSDOF 5
ENDMDL
MODEL 7
REMARK VINA RESULT:    -6.814      5.121      8.313
REMARK INTER + INTRA:          -9.759
REMARK INTER:                  -9.517
REMARK INTRA:                  -0.242
REMARK UNBOUND:                -0.953
REMARK  Name = 
REMARK  5 active torsions:
REMARK  status: ('A' for Active; 'I' for Inactive)
REMARK    1  A    between atoms: C_2  and  C_4
REMARK    2  A    between atoms: N_8  and  C_9
REMARK    3  A    between atoms: C_9  and  C_10
REMARK    4  A    between atoms: C_10  and  C_11
REMARK    5  A    between atoms: C_16  and  C_17
REMARK                            x       y       z     vdW  Elec       q    Type
REMARK                         _______ _______ _______ _____ _____    ______ ____
ROOT
ATOM      1  C   UNL     1      47.157   4.118  13.854  0.00  0.00    +0.000 C 
ENDROOT
BRANCH   1   6
ATOM      2  C   UNL     1      48.863   4.219  18.618  0.00  0.00    +0.000 A 
ATOM      3  C   UNL     1      47.988   5.089  17.979  0.00  0.00    +0.000 A 
ATOM      4  C   UNL     1      47.489   4.748  16.721  0.00  0.00    +0.000 A 
ATOM      5  C   UNL     1      47.890   3.561  16.113  0.00  0.00    +0.000 A 
ATOM      6  N   UNL     1      47.386   3.126  14.896  0.00  0.00    +0.000 N 
ATOM      7  N   UNL     1      48.758   2.724  16.713  0.00  0.00    +0.000 NA
ATOM      8  C   UNL     1      49.230   3.066  17.942  0.00  0.00    +0.000 A 
ATOM      9  H   UNL     1      47.949   2.321  14.626  0.00  0.00    +0.000 HD
BRANCH   2  11
ATOM     10  N   UNL     1      48.606   4.189  21.034  0.00  0.00    +0.000 N 
ATOM     11  C   UNL     1      49.410   4.479  19.965  0.00  0.00    +0.000 C 
ATOM     12  O   UNL     1      50.549   4.900  20.122  0.00  0.00    +0.000 OA
ATOM     13  H   UNL     1      49.028   4.273  21.951  0.00  0.00    +0.000 HD
ATOM     14  H   UNL     1      47.777   3.616  20.955  0.00  0.00    +0.000 HD
ENDBRANCH   2  11
ENDBRANCH   1   6
BRANCH   1  15
ATOM     15  C   UNL     1      45.805   4.815  14.053  0.00  0.00    +0.000 C 
BRANCH  15  16
ATOM     16  C   UNL     1      44.990   4.782  12.779  0.00  0.00    +0.000 A 
ATOM     17  C   UNL     1      43.671   5.238  12.766  0.00  0.00    +0.000 A 
ATOM     18  C   UNL     1      42.922   5.132  11.603  0.00  0.00    +0.000 A 
ATOM     19  F   UNL     1      41.655   5.565  11.596  0.00  0.00    +0.000 F 
ATOM     20  C   UNL     1      43.455   4.568  10.446  0.00  0.00    +0.000 A 
ATOM     21  C   UNL     1      44.780   4.101  10.415  0.00  0.00    +0.000 A 
ATOM     22  C   UNL     1      45.532   4.229  11.603  0.00  0.00    +0.000 A 
BRANCH  21  23
ATOM     23  C   UNL     1      45.354   3.486   9.194  0.00  0.00    +0.000 A 
ATOM     24  C   UNL     1      45.773   4.264   8.104  0.00  0.00    +0.000 A 
ATOM     25  C   UNL     1      46.292   3.641   6.976  0.00  0.00    +0.000 A 
ATOM     26  N   UNL     1      46.434   2.307   6.854  0.00  0.00    +0.000 NA
ATOM     27  C   UNL     1      46.037   1.565   7.904  0.00  0.00    +0.000 A 
ATOM     28  C   UNL     1      45.499   2.096   9.068  0.00  0.00    +0.000 A 
ENDBRANCH  21  23
ENDBRANCH  15  16
ENDBRANCH   1  15
TORSDOF 5
ENDMDL
MODEL 8
REMARK VINA RESULT:    -6.628      5.060      6.808
REMARK INTER + INTRA:          -9.519
REMARK INTER:                  -8.734
REMARK INTRA:                  -0.785
REMARK UNBOUND:                -0.953
REMARK  Name = 
REMARK  5 active torsions:
REMARK  status: ('A' for Active; 'I' for Inactive)
REMARK    1  A    between atoms: C_2  and  C_4
REMARK    2  A    between atoms: N_8  and  C_9
REMARK    3  A    between atoms: C_9  and  C_10
REMARK    4  A    between atoms: C_10  and  C_11
REMARK    5  A    between atoms: C_16  and  C_17
REMARK                            x       y       z     vdW  Elec       q    Type
REMARK                         _______ _______ _______ _____ _____    ______ ____
ROOT
ATOM      1  C   UNL     1      48.517   6.784  14.377  0.00  0.00    +0.000 C 
ENDROOT
BRANCH   1   6
ATOM      2  C   UNL     1      44.778   4.944  11.504  0.00  0.00    +0.000 A 
ATOM      3  C   UNL     1      45.504   4.318  12.509  0.00  0.00    +0.000 A 
ATOM      4  C   UNL     1      46.347   5.083  13.316  0.00  0.00    +0.000 A 
ATOM      5  C   UNL     1      46.471   6.451  13.091  0.00  0.00    +0.000 A 
ATOM      6  N   UNL     1      47.238   7.284  13.893  0.00  0.00    +0.000 N 
ATOM      7  N   UNL     1      45.791   7.064  12.102  0.00  0.00    +0.000 NA
ATOM      8  C   UNL     1      44.967   6.307  11.328  0.00  0.00    +0.000 A 
ATOM      9  H   UNL     1      47.263   8.188  13.423  0.00  0.00    +0.000 HD
BRANCH   2  11
ATOM     10  N   UNL     1      43.855   4.532   9.294  0.00  0.00    +0.000 N 
ATOM     11  C   UNL     1      43.834   4.223  10.627  0.00  0.00    +0.000 C 
ATOM     12  O   UNL     1      43.089   3.356  11.067  0.00  0.00    +0.000 OA
ATOM     13  H   UNL     1      43.278   3.960   8.690  0.00  0.00    +0.000 HD
ATOM     14  H   UNL     1      44.611   5.046   8.864  0.00  0.00    +0.000 HD
ENDBRANCH   2  11
ENDBRANCH   1   6
BRANCH   1  15
ATOM     15  C   UNL     1      48.593   6.871  15.907  0.00  0.00    +0.000 C 
BRANCH  15  16
ATOM     16  C   UNL     1      48.749   5.496  16.517  0.00  0.00    +0.000 A 
ATOM     17  C   UNL     1      47.640   4.665  16.692  0.00  0.00    +0.000 A 
ATOM     18  C   UNL     1      47.798   3.437  17.318  0.00  0.00    +0.000 A 
ATOM     19  F   UNL     1      46.732   2.646  17.490  0.00  0.00    +0.000 F 
ATOM     20  C   UNL     1      49.040   3.017  17.787  0.00  0.00    +0.000 A 
ATOM     21  C   UNL     1      50.183   3.820  17.627  0.00  0.00    +0.000 A 
ATOM     22  C   UNL     1      50.007   5.060  16.976  0.00  0.00    +0.000 A 
BRANCH  21  23
ATOM     23  C   UNL     1      51.508   3.389  18.135  0.00  0.00    +0.000 A 
ATOM     24  C   UNL     1      52.121   2.210  17.687  0.00  0.00    +0.000 A 
ATOM     25  C   UNL     1      53.357   1.841  18.203  0.00  0.00    +0.000 A 
ATOM     26  N   UNL     1      54.032   2.560  19.121  0.00  0.00    +0.000 NA
ATOM     27  C   UNL     1      53.443   3.694  19.543  0.00  0.00    +0.000 A 
ATOM     28  C   UNL     1      52.208   4.139  19.093  0.00  0.00    +0.000 A 
ENDBRANCH  21  23
ENDBRANCH  15  16
ENDBRANCH   1  15
TORSDOF 5
ENDMDL
MODEL 9
REMARK VINA RESULT:    -6.341      5.418      8.758
REMARK INTER + INTRA:          -9.147
REMARK INTER:                  -8.563
REMARK INTRA:                  -0.585
REMARK UNBOUND:                -0.953
REMARK  Name = 
REMARK  5 active torsions:
REMARK  status: ('A' for Active; 'I' for Inactive)
REMARK    1  A    between atoms: C_2  and  C_4
REMARK    2  A    between atoms: N_8  and  C_9
REMARK    3  A    between atoms: C_9  and  C_10
REMARK    4  A    between atoms: C_10  and  C_11
REMARK    5  A    between atoms: C_16  and  C_17
REMARK                            x       y       z     vdW  Elec       q    Type
REMARK                         _______ _______ _______ _____ _____    ______ ____
ROOT
ATOM      1  C   UNL     1      48.798   7.474  14.970  0.00  0.00    +0.000 C 
ENDROOT
BRANCH   1   6
ATOM      2  C   UNL     1      48.990   5.223  19.500  0.00  0.00    +0.000 A 
ATOM      3  C   UNL     1      48.842   6.570  19.193  0.00  0.00    +0.000 A 
ATOM      4  C   UNL     1      48.602   6.943  17.870  0.00  0.00    +0.000 A 
ATOM      5  C   UNL     1      48.539   5.972  16.874  0.00  0.00    +0.000 A 
ATOM      6  N   UNL     1      48.239   6.262  15.551  0.00  0.00    +0.000 N 
ATOM      7  N   UNL     1      48.707   4.665  17.158  0.00  0.00    +0.000 NA
ATOM      8  C   UNL     1      48.933   4.316  18.453  0.00  0.00    +0.000 A 
ATOM      9  H   UNL     1      48.401   5.402  15.028  0.00  0.00    +0.000 HD
BRANCH   2  11
ATOM     10  N   UNL     1      50.504   4.584  21.289  0.00  0.00    +0.000 N 
ATOM     11  C   UNL     1      49.208   4.734  20.876  0.00  0.00    +0.000 C 
ATOM     12  O   UNL     1      48.271   4.508  21.630  0.00  0.00    +0.000 OA
ATOM     13  H   UNL     1      50.642   4.347  22.264  0.00  0.00    +0.000 HD
ATOM     14  H   UNL     1      51.286   4.991  20.795  0.00  0.00    +0.000 HD
ENDBRANCH   2  11
ENDBRANCH   1   6
BRANCH   1  15
ATOM     15  C   UNL     1      48.915   7.345  13.446  0.00  0.00    +0.000 C 
BRANCH  15  16
ATOM     16  C   UNL     1      47.551   7.406  12.795  0.00  0.00    +0.000 A 
ATOM     17  C   UNL     1      46.715   8.505  12.997  0.00  0.00    +0.000 A 
ATOM     18  C   UNL     1      45.441   8.505  12.446  0.00  0.00    +0.000 A 
ATOM     19  F   UNL     1      44.639   9.559  12.647  0.00  0.00    +0.000 F 
ATOM     20  C   UNL     1      44.972   7.424  11.703  0.00  0.00    +0.000 A 
ATOM     21  C   UNL     1      45.784   6.300  11.472  0.00  0.00    +0.000 A 
ATOM     22  C   UNL     1      47.081   6.322  12.028  0.00  0.00    +0.000 A 
BRANCH  21  23
ATOM     23  C   UNL     1      45.290   5.138  10.695  0.00  0.00    +0.000 A 
ATOM     24  C   UNL     1      45.497   5.035   9.311  0.00  0.00    +0.000 A 
ATOM     25  C   UNL     1      45.004   3.934   8.624  0.00  0.00    +0.000 A 
ATOM     26  N   UNL     1      44.331   2.924   9.208  0.00  0.00    +0.000 NA
ATOM     27  C   UNL     1      44.140   3.022  10.537  0.00  0.00    +0.000 A 
ATOM     28  C   UNL     1      44.587   4.088  11.306  0.00  0.00    +0.000 A 
ENDBRANCH  21  23
ENDBRANCH  15  16
ENDBRANCH   1  15
TORSDOF 5
ENDMDL
