MODEL 1
REMARK VINA RESULT:    -7.579      0.000      0.000
REMARK INTER + INTRA:         -11.132
REMARK INTER:                 -10.681
REMARK INTRA:                  -0.451
REMARK UNBOUND:                -0.451
REMARK  Name = 
REMARK  8 active torsions:
REMARK  status: ('A' for Active; 'I' for Inactive)
REMARK    1  A    between atoms: C_1  and  O_2
REMARK    2  A    between atoms: O_2  and  C_3
REMARK    3  A    between atoms: C_8  and  N_9
REMARK    4  A    between atoms: N_9  and  C_10
REMARK    5  A    between atoms: C_10  and  C_11
REMARK    6  A    between atoms: C_14  and  C_15
REMARK    7  A    between atoms: C_15  and  N_16
REMARK    8  A    between atoms: C_17  and  C_19
REMARK                            x       y       z     vdW  Elec       q    Type
REMARK                         _______ _______ _______ _____ _____    ______ ____
ROOT
ATOM      1  C   UNL     1      44.889   4.006  12.336  0.00  0.00    +0.000 A 
ATOM      2  C   UNL     1      45.953   3.325  12.924  0.00  0.00    +0.000 A 
ATOM      3  C   UNL     1      46.969   4.059  13.538  0.00  0.00    +0.000 A 
ATOM      4  C   UNL     1      46.905   5.455  13.559  0.00  0.00    +0.000 A 
ATOM      5  C   UNL     1      45.785   6.047  12.994  0.00  0.00    +0.000 A 
ATOM      6  N   UNL     1      44.789   5.360  12.387  0.00  0.00    +0.000 NA
ENDROOT
BRANCH   1   7
ATOM      7  C   UNL     1      43.830   3.255  11.540  0.00  0.00    +0.000 C 
BRANCH   7   8
ATOM      8  N   UNL     1      44.402   2.382  10.516  0.00  0.00    +0.000 N 
ATOM      9  H   UNL     1      44.823   1.540  10.891  0.00  0.00    +0.000 HD
BRANCH   8  15
ATOM     10  C   UNL     1      45.811   2.175   8.445  0.00  0.00    +0.000 A 
ATOM     11  C   UNL     1      46.461   2.877   7.426  0.00  0.00    +0.000 A 
ATOM     12  N   UNL     1      46.529   4.223   7.336  0.00  0.00    +0.000 NA
ATOM     13  C   UNL     1      45.904   4.906   8.311  0.00  0.00    +0.000 A 
ATOM     14  C   UNL     1      45.181   4.306   9.334  0.00  0.00    +0.000 A 
ATOM     15  C   UNL     1      45.085   2.907   9.406  0.00  0.00    +0.000 A 
BRANCH  10  17
ATOM     16  C   UNL     1      46.790   0.168   7.665  0.00  0.00    +0.000 C 
ATOM     17  O   UNL     1      45.816   0.806   8.491  0.00  0.00    +0.000 OA
ENDBRANCH  10  17
ENDBRANCH   8  15
ENDBRANCH   7   8
ENDBRANCH   1   7
BRANCH   4  18
ATOM     18  C   UNL     1      47.959   6.283  14.234  0.00  0.00    +0.000 C 
BRANCH  18  19
ATOM     19  N   UNL     1      47.880   6.122  15.661  0.00  0.00    +0.000 N 
ATOM     20  C   UNL     1      48.996   6.000  16.446  0.00  0.00    +0.000 C 
ATOM     21  O   UNL     1      50.127   6.073  15.977  0.00  0.00    +0.000 OA
ATOM     22  H   UNL     1      46.973   5.870  16.044  0.00  0.00    +0.000 HD
BRANCH  20  23
ATOM     23  C   UNL     1      48.763   5.838  17.887  0.00  0.00    +0.000 A 
ATOM     24  C   UNL     1      49.029   4.615  18.488  0.00  0.00    +0.000 A 
ATOM     25  S   UNL     1      48.755   4.608  20.172  0.00  0.00    +0.000 S 
ATOM     26  C   UNL     1      48.225   6.222  20.151  0.00  0.00    +0.000 A 
ATOM     27  N   UNL     1      47.812   6.839  21.293  0.00  0.00    +0.000 NA
ATOM     28  C   UNL     1      47.415   8.055  21.130  0.00  0.00    +0.000 A 
ATOM     29  N   UNL     1      47.398   8.719  19.929  0.00  0.00    +0.000 N 
ATOM     30  C   UNL     1      47.826   8.146  18.758  0.00  0.00    +0.000 A 
ATOM     31  O   UNL     1      47.826   8.776  17.706  0.00  0.00    +0.000 OA
ATOM     32  C   UNL     1      48.273   6.768  18.879  0.00  0.00    +0.000 A 
ATOM     33  H   UNL     1      47.084   9.676  19.873  0.00  0.00    +0.000 HD
ENDBRANCH  20  23
ENDBRANCH  18  19
ENDBRANCH   4  18
TORSDOF 7
ENDMDL
MODEL 2
REMARK VINA RESULT:    -7.520      3.699      8.509
REMARK INTER + INTRA:         -11.049
REMARK INTER:                  -9.790
REMARK INTRA:                  -1.258
REMARK UNBOUND:                -0.451
REMARK  Name = 
REMARK  8 active torsions:
REMARK  status: ('A' for Active; 'I' for Inactive)
REMARK    1  A    between atoms: C_1  and  O_2
REMARK    2  A    between atoms: O_2  and  C_3
REMARK    3  A    between atoms: C_8  and  N_9
REMARK    4  A    between atoms: N_9  and  C_10
REMARK    5  A    between atoms: C_10  and  C_11
REMARK    6  A    between atoms: C_14  and  C_15
REMARK    7  A    between atoms: C_15  and  N_16
REMARK    8  A    between atoms: C_17  and  C_19
REMARK                            x       y       z     vdW  Elec       q    Type
REMARK                         _______ _______ _______ _____ _____    ______ ____
ROOT
ATOM      1  C   UNL     1      49.352   7.317  16.076  0.00  0.00    +0.000 A 
ATOM      2  C   UNL     1      48.533   8.442  15.989  0.00  0.00    +0.000 A 
ATOM      3  C   UNL     1      48.045   8.826  14.739  0.00  0.00    +0.000 A 
ATOM      4  C   UNL     1      48.375   8.084  13.602  0.00  0.00    +0.000 A 
ATOM      5  C   UNL     1      49.154   6.951  13.790  0.00  0.00    +0.000 A 
ATOM      6  N   UNL     1      49.647   6.560  14.987  0.00  0.00    +0.000 NA
ENDROOT
BRANCH   1   7
ATOM      7  C   UNL     1      50.016   6.940  17.393  0.00  0.00    +0.000 C 
BRANCH   7   8
ATOM      8  N   UNL     1      49.394   5.780  18.031  0.00  0.00    +0.000 N 
ATOM      9  H   UNL     1      49.366   5.840  19.042  0.00  0.00    +0.000 HD
BRANCH   8  15
ATOM     10  C   UNL     1      48.643   3.617  16.994  0.00  0.00    +0.000 A 
ATOM     11  C   UNL     1      49.039   2.334  16.603  0.00  0.00    +0.000 A 
ATOM     12  N   UNL     1      50.268   1.811  16.803  0.00  0.00    +0.000 NA
ATOM     13  C   UNL     1      51.154   2.615  17.416  0.00  0.00    +0.000 A 
ATOM     14  C   UNL     1      50.879   3.924  17.789  0.00  0.00    +0.000 A 
ATOM     15  C   UNL     1      49.611   4.477  17.550  0.00  0.00    +0.000 A 
BRANCH  10  17
ATOM     16  C   UNL     1      47.025   4.356  15.435  0.00  0.00    +0.000 C 
ATOM     17  O   UNL     1      47.365   4.068  16.790  0.00  0.00    +0.000 OA
ENDBRANCH  10  17
ENDBRANCH   8  15
ENDBRANCH   7   8
ENDBRANCH   1   7
BRANCH   4  18
ATOM     18  C   UNL     1      47.848   8.443  12.244  0.00  0.00    +0.000 C 
BRANCH  18  19
ATOM     19  N   UNL     1      47.266   7.287  11.615  0.00  0.00    +0.000 N 
ATOM     20  C   UNL     1      45.912   7.103  11.533  0.00  0.00    +0.000 C 
ATOM     21  O   UNL     1      45.119   7.942  11.949  0.00  0.00    +0.000 OA
ATOM     22  H   UNL     1      47.886   6.501  11.438  0.00  0.00    +0.000 HD
BRANCH  20  23
ATOM     23  C   UNL     1      45.461   5.875  10.866  0.00  0.00    +0.000 A 
ATOM     24  C   UNL     1      45.769   5.672   9.528  0.00  0.00    +0.000 A 
ATOM     25  S   UNL     1      45.219   4.176   8.919  0.00  0.00    +0.000 S 
ATOM     26  C   UNL     1      44.508   3.767  10.406  0.00  0.00    +0.000 A 
ATOM     27  N   UNL     1      43.837   2.592  10.563  0.00  0.00    +0.000 NA
ATOM     28  C   UNL     1      43.328   2.419  11.736  0.00  0.00    +0.000 A 
ATOM     29  N   UNL     1      43.432   3.310  12.774  0.00  0.00    +0.000 N 
ATOM     30  C   UNL     1      44.119   4.494  12.670  0.00  0.00    +0.000 A 
ATOM     31  O   UNL     1      44.218   5.255  13.626  0.00  0.00    +0.000 OA
ATOM     32  C   UNL     1      44.702   4.750  11.363  0.00  0.00    +0.000 A 
ATOM     33  H   UNL     1      43.019   3.107  13.671  0.00  0.00    +0.000 HD
ENDBRANCH  20  23
ENDBRANCH  18  19
ENDBRANCH   4  18
TORSDOF 7
ENDMDL
MODEL 3
REMARK VINA RESULT:    -7.483      3.487      9.206
REMARK INTER + INTRA:         -10.996
REMARK INTER:                  -9.865
REMARK INTRA:                  -1.131
REMARK UNBOUND:                -0.451
REMARK  Name = 
REMARK  8 active torsions:
REMARK  status: ('A' for Active; 'I' for Inactive)
REMARK    1  A    between atoms: C_1  and  O_2
REMARK    2  A    between atoms: O_2  and  C_3
REMARK    3  A    between atoms: C_8  and  N_9
REMARK    4  A    between atoms: N_9  and  C_10
REMARK    5  A    between atoms: C_10  and  C_11
REMARK    6  A    between atoms: C_14  and  C_15
REMARK    7  A    between atoms: C_15  and  N_16
REMARK    8  A    between atoms: C_17  and  C_19
REMARK                            x       y       z     vdW  Elec       q    Type
REMARK                         _______ _______ _______ _____ _____    ______ ____
ROOT
ATOM      1  C   UNL     1      50.451   6.804  15.809  0.00  0.00    +0.000 A 
ATOM      2  C   UNL     1      50.922   7.655  14.811  0.00  0.00    +0.000 A 
ATOM      3  C   UNL     1      50.104   7.929  13.714  0.00  0.00    +0.000 A 
ATOM      4  C   UNL     1      48.832   7.355  13.632  0.00  0.00    +0.000 A 
ATOM      5  C   UNL     1      48.427   6.560  14.695  0.00  0.00    +0.000 A 
ATOM      6  N   UNL     1      49.201   6.273  15.766  0.00  0.00    +0.000 NA
ENDROOT
BRANCH   1   7
ATOM      7  C   UNL     1      51.358   6.371  16.953  0.00  0.00    +0.000 C 
BRANCH   7   8
ATOM      8  N   UNL     1      50.763   5.325  17.785  0.00  0.00    +0.000 N 
ATOM      9  H   UNL     1      50.495   5.645  18.708  0.00  0.00    +0.000 HD
BRANCH   8  15
ATOM     10  C   UNL     1      50.578   2.869  17.284  0.00  0.00    +0.000 A 
ATOM     11  C   UNL     1      51.214   1.628  17.383  0.00  0.00    +0.000 A 
ATOM     12  N   UNL     1      52.400   1.413  17.994  0.00  0.00    +0.000 NA
ATOM     13  C   UNL     1      52.989   2.499  18.524  0.00  0.00    +0.000 A 
ATOM     14  C   UNL     1      52.470   3.784  18.429  0.00  0.00    +0.000 A 
ATOM     15  C   UNL     1      51.253   4.008  17.765  0.00  0.00    +0.000 A 
BRANCH  10  17
ATOM     16  C   UNL     1      48.228   2.899  17.550  0.00  0.00    +0.000 C 
ATOM     17  O   UNL     1      49.356   3.004  16.681  0.00  0.00    +0.000 OA
ENDBRANCH  10  17
ENDBRANCH   8  15
ENDBRANCH   7   8
ENDBRANCH   1   7
BRANCH   4  18
ATOM     18  C   UNL     1      47.907   7.645  12.487  0.00  0.00    +0.000 C 
BRANCH  18  19
ATOM     19  N   UNL     1      47.133   6.477  12.165  0.00  0.00    +0.000 N 
ATOM     20  C   UNL     1      45.763   6.474  12.203  0.00  0.00    +0.000 C 
ATOM     21  O   UNL     1      45.122   7.486  12.465  0.00  0.00    +0.000 OA
ATOM     22  H   UNL     1      47.631   5.591  12.133  0.00  0.00    +0.000 HD
BRANCH  20  23
ATOM     23  C   UNL     1      45.105   5.208  11.852  0.00  0.00    +0.000 A 
ATOM     24  C   UNL     1      44.410   4.508  12.828  0.00  0.00    +0.000 A 
ATOM     25  S   UNL     1      43.662   3.088  12.249  0.00  0.00    +0.000 S 
ATOM     26  C   UNL     1      44.281   3.333  10.685  0.00  0.00    +0.000 A 
ATOM     27  N   UNL     1      44.026   2.445   9.684  0.00  0.00    +0.000 NA
ATOM     28  C   UNL     1      44.575   2.740   8.554  0.00  0.00    +0.000 A 
ATOM     29  N   UNL     1      45.352   3.848   8.328  0.00  0.00    +0.000 N 
ATOM     30  C   UNL     1      45.616   4.782   9.299  0.00  0.00    +0.000 A 
ATOM     31  O   UNL     1      46.290   5.777   9.056  0.00  0.00    +0.000 OA
ATOM     32  C   UNL     1      45.034   4.492  10.599  0.00  0.00    +0.000 A 
ATOM     33  H   UNL     1      45.743   4.026   7.416  0.00  0.00    +0.000 HD
ENDBRANCH  20  23
ENDBRANCH  18  19
ENDBRANCH   4  18
TORSDOF 7
ENDMDL
MODEL 4
REMARK VINA RESULT:    -7.446      1.941      2.862
REMARK INTER + INTRA:         -10.945
REMARK INTER:                 -10.312
REMARK INTRA:                  -0.633
REMARK UNBOUND:                -0.451
REMARK  Name = 
REMARK  8 active torsions:
REMARK  status: ('A' for Active; 'I' for Inactive)
REMARK    1  A    between atoms: C_1  and  O_2
REMARK    2  A    between atoms: O_2  and  C_3
REMARK    3  A    between atoms: C_8  and  N_9
REMARK    4  A    between atoms: N_9  and  C_10
REMARK    5  A    between atoms: C_10  and  C_11
REMARK    6  A    between atoms: C_14  and  C_15
REMARK    7  A    between atoms: C_15  and  N_16
REMARK    8  A    between atoms: C_17  and  C_19
REMARK                            x       y       z     vdW  Elec       q    Type
REMARK                         _______ _______ _______ _____ _____    ______ ____
ROOT
ATOM      1  C   UNL     1      45.030   6.068  12.285  0.00  0.00    +0.000 A 
ATOM      2  C   UNL     1      45.553   7.355  12.182  0.00  0.00    +0.000 A 
ATOM      3  C   UNL     1      46.757   7.648  12.823  0.00  0.00    +0.000 A 
ATOM      4  C   UNL     1      47.420   6.656  13.550  0.00  0.00    +0.000 A 
ATOM      5  C   UNL     1      46.852   5.390  13.557  0.00  0.00    +0.000 A 
ATOM      6  N   UNL     1      45.684   5.080  12.951  0.00  0.00    +0.000 NA
ENDROOT
BRANCH   1   7
ATOM      7  C   UNL     1      43.656   5.739  11.717  0.00  0.00    +0.000 C 
BRANCH   7   8
ATOM      8  N   UNL     1      43.676   5.526  10.270  0.00  0.00    +0.000 N 
ATOM      9  H   UNL     1      42.823   5.817   9.805  0.00  0.00    +0.000 HD
BRANCH   8  15
ATOM     10  C   UNL     1      44.029   3.043  10.101  0.00  0.00    +0.000 A 
ATOM     11  C   UNL     1      44.733   2.027   9.447  0.00  0.00    +0.000 A 
ATOM     12  N   UNL     1      45.694   2.226   8.519  0.00  0.00    +0.000 NA
ATOM     13  C   UNL     1      45.960   3.509   8.219  0.00  0.00    +0.000 A 
ATOM     14  C   UNL     1      45.279   4.589   8.767  0.00  0.00    +0.000 A 
ATOM     15  C   UNL     1      44.258   4.377   9.707  0.00  0.00    +0.000 A 
BRANCH  10  17
ATOM     16  C   UNL     1      43.609   2.321  12.313  0.00  0.00    +0.000 C 
ATOM     17  O   UNL     1      43.091   2.765  11.060  0.00  0.00    +0.000 OA
ENDBRANCH  10  17
ENDBRANCH   8  15
ENDBRANCH   7   8
ENDBRANCH   1   7
BRANCH   4  18
ATOM     18  C   UNL     1      48.732   6.918  14.230  0.00  0.00    +0.000 C 
BRANCH  18  19
ATOM     19  N   UNL     1      48.529   7.128  15.638  0.00  0.00    +0.000 N 
ATOM     20  C   UNL     1      49.306   6.517  16.587  0.00  0.00    +0.000 C 
ATOM     21  O   UNL     1      50.251   5.796  16.283  0.00  0.00    +0.000 OA
ATOM     22  H   UNL     1      47.652   7.558  15.916  0.00  0.00    +0.000 HD
BRANCH  20  23
ATOM     23  C   UNL     1      48.982   6.821  17.987  0.00  0.00    +0.000 A 
ATOM     24  C   UNL     1      48.832   8.144  18.381  0.00  0.00    +0.000 A 
ATOM     25  S   UNL     1      48.406   8.324  20.023  0.00  0.00    +0.000 S 
ATOM     26  C   UNL     1      48.456   6.645  20.279  0.00  0.00    +0.000 A 
ATOM     27  N   UNL     1      48.204   6.116  21.509  0.00  0.00    +0.000 NA
ATOM     28  C   UNL     1      48.298   4.830  21.567  0.00  0.00    +0.000 A 
ATOM     29  N   UNL     1      48.614   4.020  20.506  0.00  0.00    +0.000 N 
ATOM     30  C   UNL     1      48.852   4.506  19.245  0.00  0.00    +0.000 A 
ATOM     31  O   UNL     1      49.104   3.752  18.311  0.00  0.00    +0.000 OA
ATOM     32  C   UNL     1      48.775   5.952  19.123  0.00  0.00    +0.000 A 
ATOM     33  H   UNL     1      48.660   3.018  20.618  0.00  0.00    +0.000 HD
ENDBRANCH  20  23
ENDBRANCH  18  19
ENDBRANCH   4  18
TORSDOF 7
ENDMDL
MODEL 5
REMARK VINA RESULT:    -7.438      3.082      4.471
REMARK INTER + INTRA:         -10.933
REMARK INTER:                 -10.206
REMARK INTRA:                  -0.727
REMARK UNBOUND:                -0.451
REMARK  Name = 
REMARK  8 active torsions:
REMARK  status: ('A' for Active; 'I' for Inactive)
REMARK    1  A    between atoms: C_1  and  O_2
REMARK    2  A    between atoms: O_2  and  C_3
REMARK    3  A    between atoms: C_8  and  N_9
REMARK    4  A    between atoms: N_9  and  C_10
REMARK    5  A    between atoms: C_10  and  C_11
REMARK    6  A    between atoms: C_14  and  C_15
REMARK    7  A    between atoms: C_15  and  N_16
REMARK    8  A    between atoms: C_17  and  C_19
REMARK                            x       y       z     vdW  Elec       q    Type
REMARK                         _______ _______ _______ _____ _____    ______ ____
ROOT
ATOM      1  C   UNL     1      44.721   3.692  12.247  0.00  0.00    +0.000 A 
ATOM      2  C   UNL     1      44.664   5.040  12.598  0.00  0.00    +0.000 A 
ATOM      3  C   UNL     1      45.605   5.544  13.498  0.00  0.00    +0.000 A 
ATOM      4  C   UNL     1      46.586   4.701  14.027  0.00  0.00    +0.000 A 
ATOM      5  C   UNL     1      46.598   3.386  13.583  0.00  0.00    +0.000 A 
ATOM      6  N   UNL     1      45.695   2.869  12.718  0.00  0.00    +0.000 NA
ENDROOT
BRANCH   1   7
ATOM      7  C   UNL     1      43.638   3.069  11.377  0.00  0.00    +0.000 C 
BRANCH   7   8
ATOM      8  N   UNL     1      44.181   2.248  10.295  0.00  0.00    +0.000 N 
ATOM      9  H   UNL     1      44.498   1.335  10.599  0.00  0.00    +0.000 HD
BRANCH   8  15
ATOM     10  C   UNL     1      45.808   2.110   8.385  0.00  0.00    +0.000 A 
ATOM     11  C   UNL     1      46.556   2.845   7.460  0.00  0.00    +0.000 A 
ATOM     12  N   UNL     1      46.615   4.194   7.411  0.00  0.00    +0.000 NA
ATOM     13  C   UNL     1      45.879   4.845   8.329  0.00  0.00    +0.000 A 
ATOM     14  C   UNL     1      45.058   4.211   9.252  0.00  0.00    +0.000 A 
ATOM     15  C   UNL     1      44.973   2.809   9.279  0.00  0.00    +0.000 A 
BRANCH  10  17
ATOM     16  C   UNL     1      46.843   0.134   7.600  0.00  0.00    +0.000 C 
ATOM     17  O   UNL     1      45.826   0.740   8.396  0.00  0.00    +0.000 OA
ENDBRANCH  10  17
ENDBRANCH   8  15
ENDBRANCH   7   8
ENDBRANCH   1   7
BRANCH   4  18
ATOM     18  C   UNL     1      47.635   5.206  14.973  0.00  0.00    +0.000 C 
BRANCH  18  19
ATOM     19  N   UNL     1      47.851   6.614  14.770  0.00  0.00    +0.000 N 
ATOM     20  C   UNL     1      49.036   7.224  15.085  0.00  0.00    +0.000 C 
ATOM     21  O   UNL     1      49.995   6.591  15.513  0.00  0.00    +0.000 OA
ATOM     22  H   UNL     1      47.027   7.184  14.601  0.00  0.00    +0.000 HD
BRANCH  20  23
ATOM     23  C   UNL     1      49.112   8.668  14.827  0.00  0.00    +0.000 A 
ATOM     24  C   UNL     1      49.371   9.537  15.878  0.00  0.00    +0.000 A 
ATOM     25  S   UNL     1      49.479  11.172  15.403  0.00  0.00    +0.000 S 
ATOM     26  C   UNL     1      49.136  10.784  13.785  0.00  0.00    +0.000 A 
ATOM     27  N   UNL     1      49.056  11.755  12.833  0.00  0.00    +0.000 NA
ATOM     28  C   UNL     1      48.767  11.323  11.652  0.00  0.00    +0.000 A 
ATOM     29  N   UNL     1      48.556  10.006  11.330  0.00  0.00    +0.000 N 
ATOM     30  C   UNL     1      48.649   8.992  12.250  0.00  0.00    +0.000 A 
ATOM     31  O   UNL     1      48.484   7.822  11.923  0.00  0.00    +0.000 OA
ATOM     32  C   UNL     1      48.959   9.422  13.603  0.00  0.00    +0.000 A 
ATOM     33  H   UNL     1      48.344   9.735  10.382  0.00  0.00    +0.000 HD
ENDBRANCH  20  23
ENDBRANCH  18  19
ENDBRANCH   4  18
TORSDOF 7
ENDMDL
MODEL 6
REMARK VINA RESULT:    -7.430      2.847      4.035
REMARK INTER + INTRA:         -10.922
REMARK INTER:                  -9.661
REMARK INTRA:                  -1.261
REMARK UNBOUND:                -0.451
REMARK  Name = 
REMARK  8 active torsions:
REMARK  status: ('A' for Active; 'I' for Inactive)
REMARK    1  A    between atoms: C_1  and  O_2
REMARK    2  A    between atoms: O_2  and  C_3
REMARK    3  A    between atoms: C_8  and  N_9
REMARK    4  A    between atoms: N_9  and  C_10
REMARK    5  A    between atoms: C_10  and  C_11
REMARK    6  A    between atoms: C_14  and  C_15
REMARK    7  A    between atoms: C_15  and  N_16
REMARK    8  A    between atoms: C_17  and  C_19
REMARK                            x       y       z     vdW  Elec       q    Type
REMARK                         _______ _______ _______ _____ _____    ______ ____
ROOT
ATOM      1  C   UNL     1      45.121   7.735  11.501  0.00  0.00    +0.000 A 
ATOM      2  C   UNL     1      46.110   6.795  11.217  0.00  0.00    +0.000 A 
ATOM      3  C   UNL     1      47.360   6.924  11.825  0.00  0.00    +0.000 A 
ATOM      4  C   UNL     1      47.601   7.981  12.707  0.00  0.00    +0.000 A 
ATOM      5  C   UNL     1      46.543   8.840  12.969  0.00  0.00    +0.000 A 
ATOM      6  N   UNL     1      45.325   8.743  12.389  0.00  0.00    +0.000 NA
ENDROOT
BRANCH   1   7
ATOM      7  C   UNL     1      43.791   7.712  10.760  0.00  0.00    +0.000 C 
BRANCH   7   8
ATOM      8  N   UNL     1      42.830   6.779  11.347  0.00  0.00    +0.000 N 
ATOM      9  H   UNL     1      42.213   7.207  12.027  0.00  0.00    +0.000 HD
BRANCH   8  15
ATOM     10  C   UNL     1      43.512   4.433  10.758  0.00  0.00    +0.000 A 
ATOM     11  C   UNL     1      43.815   3.165  11.266  0.00  0.00    +0.000 A 
ATOM     12  N   UNL     1      43.736   2.815  12.568  0.00  0.00    +0.000 NA
ATOM     13  C   UNL     1      43.346   3.786  13.412  0.00  0.00    +0.000 A 
ATOM     14  C   UNL     1      43.080   5.091  13.019  0.00  0.00    +0.000 A 
ATOM     15  C   UNL     1      43.194   5.460  11.669  0.00  0.00    +0.000 A 
BRANCH  10  17
ATOM     16  C   UNL     1      44.596   4.006   8.700  0.00  0.00    +0.000 C 
ATOM     17  O   UNL     1      43.579   4.705   9.418  0.00  0.00    +0.000 OA
ENDBRANCH  10  17
ENDBRANCH   8  15
ENDBRANCH   7   8
ENDBRANCH   1   7
BRANCH   4  18
ATOM     18  C   UNL     1      48.918   8.141  13.407  0.00  0.00    +0.000 C 
BRANCH  18  19
ATOM     19  N   UNL     1      49.002   7.237  14.522  0.00  0.00    +0.000 N 
ATOM     20  C   UNL     1      48.776   7.642  15.810  0.00  0.00    +0.000 C 
ATOM     21  O   UNL     1      48.441   8.791  16.077  0.00  0.00    +0.000 OA
ATOM     22  H   UNL     1      49.457   6.343  14.354  0.00  0.00    +0.000 HD
BRANCH  20  23
ATOM     23  C   UNL     1      48.900   6.610  16.848  0.00  0.00    +0.000 A 
ATOM     24  C   UNL     1      49.655   6.871  17.984  0.00  0.00    +0.000 A 
ATOM     25  S   UNL     1      49.655   5.592  19.113  0.00  0.00    +0.000 S 
ATOM     26  C   UNL     1      48.688   4.625  18.104  0.00  0.00    +0.000 A 
ATOM     27  N   UNL     1      48.329   3.365  18.476  0.00  0.00    +0.000 NA
ATOM     28  C   UNL     1      47.613   2.735  17.607  0.00  0.00    +0.000 A 
ATOM     29  N   UNL     1      47.215   3.250  16.399  0.00  0.00    +0.000 N 
ATOM     30  C   UNL     1      47.533   4.522  15.992  0.00  0.00    +0.000 A 
ATOM     31  O   UNL     1      47.137   4.963  14.919  0.00  0.00    +0.000 OA
ATOM     32  C   UNL     1      48.352   5.275  16.927  0.00  0.00    +0.000 A 
ATOM     33  H   UNL     1      46.646   2.706  15.768  0.00  0.00    +0.000 HD
ENDBRANCH  20  23
ENDBRANCH  18  19
ENDBRANCH   4  18
TORSDOF 7
ENDMDL
MODEL 7
REMARK VINA RESULT:    -7.232      4.695      6.363
REMARK INTER + INTRA:         -10.643
REMARK INTER:                  -9.875
REMARK INTRA:                  -0.767
REMARK UNBOUND:                -0.451
REMARK  Name = 
REMARK  8 active torsions:
REMARK  status: ('A' for Active; 'I' for Inactive)
REMARK    1  A    between atoms: C_1  and  O_2
REMARK    2  A    between atoms: O_2  and  C_3
REMARK    3  A    between atoms: C_8  and  N_9
REMARK    4  A    between atoms: N_9  and  C_10
REMARK    5  A    between atoms: C_10  and  C_11
REMARK    6  A    between atoms: C_14  and  C_15
REMARK    7  A    between atoms: C_15  and  N_16
REMARK    8  A    between atoms: C_17  and  C_19
REMARK                            x       y       z     vdW  Elec       q    Type
REMARK                         _______ _______ _______ _____ _____    ______ ____
ROOT
ATOM      1  C   UNL     1      45.303   7.799  12.056  0.00  0.00    +0.000 A 
ATOM      2  C   UNL     1      46.646   7.600  12.371  0.00  0.00    +0.000 A 
ATOM      3  C   UNL     1      47.015   6.440  13.052  0.00  0.00    +0.000 A 
ATOM      4  C   UNL     1      46.045   5.498  13.404  0.00  0.00    +0.000 A 
ATOM      5  C   UNL     1      44.741   5.754  13.006  0.00  0.00    +0.000 A 
ATOM      6  N   UNL     1      44.353   6.872  12.352  0.00  0.00    +0.000 NA
ENDROOT
BRANCH   1   7
ATOM      7  C   UNL     1      44.835   9.108  11.435  0.00  0.00    +0.000 C 
BRANCH   7   8
ATOM      8  N   UNL     1      43.471   9.032  10.910  0.00  0.00    +0.000 N 
ATOM      9  H   UNL     1      43.246   8.135  10.496  0.00  0.00    +0.000 HD
BRANCH   8  15
ATOM     10  C   UNL     1      41.544  10.548  10.361  0.00  0.00    +0.000 A 
ATOM     11  C   UNL     1      41.124  11.636   9.589  0.00  0.00    +0.000 A 
ATOM     12  N   UNL     1      41.880  12.263   8.662  0.00  0.00    +0.000 NA
ATOM     13  C   UNL     1      43.127  11.786   8.504  0.00  0.00    +0.000 A 
ATOM     14  C   UNL     1      43.660  10.750   9.261  0.00  0.00    +0.000 A 
ATOM     15  C   UNL     1      42.882  10.122  10.247  0.00  0.00    +0.000 A 
BRANCH  10  17
ATOM     16  C   UNL     1      39.673  10.765  11.791  0.00  0.00    +0.000 C 
ATOM     17  O   UNL     1      40.707   9.939  11.258  0.00  0.00    +0.000 OA
ENDBRANCH  10  17
ENDBRANCH   8  15
ENDBRANCH   7   8
ENDBRANCH   1   7
BRANCH   4  18
ATOM     18  C   UNL     1      46.402   4.222  14.110  0.00  0.00    +0.000 C 
BRANCH  18  19
ATOM     19  N   UNL     1      47.503   4.442  15.008  0.00  0.00    +0.000 N 
ATOM     20  C   UNL     1      47.472   4.034  16.315  0.00  0.00    +0.000 C 
ATOM     21  O   UNL     1      46.520   3.414  16.777  0.00  0.00    +0.000 OA
ATOM     22  H   UNL     1      48.210   5.110  14.712  0.00  0.00    +0.000 HD
BRANCH  20  23
ATOM     23  C   UNL     1      48.667   4.329  17.117  0.00  0.00    +0.000 A 
ATOM     24  C   UNL     1      48.756   5.539  17.792  0.00  0.00    +0.000 A 
ATOM     25  S   UNL     1      50.180   5.704  18.716  0.00  0.00    +0.000 S 
ATOM     26  C   UNL     1      50.752   4.187  18.209  0.00  0.00    +0.000 A 
ATOM     27  N   UNL     1      51.961   3.718  18.629  0.00  0.00    +0.000 NA
ATOM     28  C   UNL     1      52.282   2.564  18.150  0.00  0.00    +0.000 A 
ATOM     29  N   UNL     1      51.503   1.828  17.294  0.00  0.00    +0.000 N 
ATOM     30  C   UNL     1      50.270   2.248  16.863  0.00  0.00    +0.000 A 
ATOM     31  O   UNL     1      49.585   1.553  16.120  0.00  0.00    +0.000 OA
ATOM     32  C   UNL     1      49.861   3.552  17.360  0.00  0.00    +0.000 A 
ATOM     33  H   UNL     1      51.810   0.925  16.964  0.00  0.00    +0.000 HD
ENDBRANCH  20  23
ENDBRANCH  18  19
ENDBRANCH   4  18
TORSDOF 7
ENDMDL
MODEL 8
REMARK VINA RESULT:    -7.216      3.788      8.340
REMARK INTER + INTRA:         -10.620
REMARK INTER:                  -8.891
REMARK INTRA:                  -1.729
REMARK UNBOUND:                -0.451
REMARK  Name = 
REMARK  8 active torsions:
REMARK  status: ('A' for Active; 'I' for Inactive)
REMARK    1  A    between atoms: C_1  and  O_2
REMARK    2  A    between atoms: O_2  and  C_3
REMARK    3  A    between atoms: C_8  and  N_9
REMARK    4  A    between atoms: N_9  and  C_10
REMARK    5  A    between atoms: C_10  and  C_11
REMARK    6  A    between atoms: C_14  and  C_15
REMARK    7  A    between atoms: C_15  and  N_16
REMARK    8  A    between atoms: C_17  and  C_19
REMARK                            x       y       z     vdW  Elec       q    Type
REMARK                         _______ _______ _______ _____ _____    ______ ____
ROOT
ATOM      1  C   UNL     1      50.876   6.825  17.612  0.00  0.00    +0.000 A 
ATOM      2  C   UNL     1      51.076   6.759  16.235  0.00  0.00    +0.000 A 
ATOM      3  C   UNL     1      50.223   7.473  15.393  0.00  0.00    +0.000 A 
ATOM      4  C   UNL     1      49.190   8.242  15.936  0.00  0.00    +0.000 A 
ATOM      5  C   UNL     1      49.096   8.290  17.319  0.00  0.00    +0.000 A 
ATOM      6  N   UNL     1      49.904   7.603  18.159  0.00  0.00    +0.000 NA
ENDROOT
BRANCH   1   7
ATOM      7  C   UNL     1      51.695   5.959  18.560  0.00  0.00    +0.000 C 
BRANCH   7   8
ATOM      8  N   UNL     1      50.967   4.778  19.024  0.00  0.00    +0.000 N 
ATOM      9  H   UNL     1      51.325   4.396  19.891  0.00  0.00    +0.000 HD
BRANCH   8  15
ATOM     10  C   UNL     1      49.188   3.631  17.669  0.00  0.00    +0.000 A 
ATOM     11  C   UNL     1      48.914   2.571  16.799  0.00  0.00    +0.000 A 
ATOM     12  N   UNL     1      49.806   1.628  16.426  0.00  0.00    +0.000 NA
ATOM     13  C   UNL     1      51.042   1.755  16.939  0.00  0.00    +0.000 A 
ATOM     14  C   UNL     1      51.432   2.803  17.763  0.00  0.00    +0.000 A 
ATOM     15  C   UNL     1      50.511   3.800  18.124  0.00  0.00    +0.000 A 
BRANCH  10  17
ATOM     16  C   UNL     1      46.984   4.418  17.329  0.00  0.00    +0.000 C 
ATOM     17  O   UNL     1      48.221   4.530  18.032  0.00  0.00    +0.000 OA
ENDBRANCH  10  17
ENDBRANCH   8  15
ENDBRANCH   7   8
ENDBRANCH   1   7
BRANCH   4  18
ATOM     18  C   UNL     1      48.268   9.050  15.071  0.00  0.00    +0.000 C 
BRANCH  18  19
ATOM     19  N   UNL     1      47.295   8.195  14.446  0.00  0.00    +0.000 N 
ATOM     20  C   UNL     1      47.170   8.103  13.085  0.00  0.00    +0.000 C 
ATOM     21  O   UNL     1      47.916   8.711  12.324  0.00  0.00    +0.000 OA
ATOM     22  H   UNL     1      46.553   7.835  15.039  0.00  0.00    +0.000 HD
BRANCH  20  23
ATOM     23  C   UNL     1      46.131   7.191  12.588  0.00  0.00    +0.000 A 
ATOM     24  C   UNL     1      45.066   7.702  11.857  0.00  0.00    +0.000 A 
ATOM     25  S   UNL     1      43.977   6.509  11.310  0.00  0.00    +0.000 S 
ATOM     26  C   UNL     1      44.861   5.273  12.070  0.00  0.00    +0.000 A 
ATOM     27  N   UNL     1      44.448   3.976  12.008  0.00  0.00    +0.000 NA
ATOM     28  C   UNL     1      45.199   3.144  12.648  0.00  0.00    +0.000 A 
ATOM     29  N   UNL     1      46.333   3.487  13.340  0.00  0.00    +0.000 N 
ATOM     30  C   UNL     1      46.800   4.776  13.410  0.00  0.00    +0.000 A 
ATOM     31  O   UNL     1      47.834   5.044  14.013  0.00  0.00    +0.000 OA
ATOM     32  C   UNL     1      45.984   5.760  12.719  0.00  0.00    +0.000 A 
ATOM     33  H   UNL     1      46.882   2.784  13.811  0.00  0.00    +0.000 HD
ENDBRANCH  20  23
ENDBRANCH  18  19
ENDBRANCH   4  18
TORSDOF 7
ENDMDL
MODEL 9
REMARK VINA RESULT:    -7.158      3.780      8.390
REMARK INTER + INTRA:         -10.539
REMARK INTER:                  -9.136
REMARK INTRA:                  -1.403
REMARK UNBOUND:                -0.451
REMARK  Name = 
REMARK  8 active torsions:
REMARK  status: ('A' for Active; 'I' for Inactive)
REMARK    1  A    between atoms: C_1  and  O_2
REMARK    2  A    between atoms: O_2  and  C_3
REMARK    3  A    between atoms: C_8  and  N_9
REMARK    4  A    between atoms: N_9  and  C_10
REMARK    5  A    between atoms: C_10  and  C_11
REMARK    6  A    between atoms: C_14  and  C_15
REMARK    7  A    between atoms: C_15  and  N_16
REMARK    8  A    between atoms: C_17  and  C_19
REMARK                            x       y       z     vdW  Elec       q    Type
REMARK                         _______ _______ _______ _____ _____    ______ ____
ROOT
ATOM      1  C   UNL     1      50.718   6.924  17.646  0.00  0.00    +0.000 A 
ATOM      2  C   UNL     1      51.323   7.019  16.394  0.00  0.00    +0.000 A 
ATOM      3  C   UNL     1      50.580   7.513  15.321  0.00  0.00    +0.000 A 
ATOM      4  C   UNL     1      49.253   7.906  15.513  0.00  0.00    +0.000 A 
ATOM      5  C   UNL     1      48.749   7.824  16.803  0.00  0.00    +0.000 A 
ATOM      6  N   UNL     1      49.443   7.343  17.860  0.00  0.00    +0.000 NA
ENDROOT
BRANCH   1   7
ATOM      7  C   UNL     1      51.444   6.267  18.813  0.00  0.00    +0.000 C 
BRANCH   7   8
ATOM      8  N   UNL     1      50.799   5.033  19.261  0.00  0.00    +0.000 N 
ATOM      9  H   UNL     1      51.095   4.733  20.183  0.00  0.00    +0.000 HD
BRANCH   8  15
ATOM     10  C   UNL     1      49.308   3.580  17.855  0.00  0.00    +0.000 A 
ATOM     11  C   UNL     1      49.257   2.466  17.010  0.00  0.00    +0.000 A 
ATOM     12  N   UNL     1      50.307   1.667  16.722  0.00  0.00    +0.000 NA
ATOM     13  C   UNL     1      51.474   2.004  17.297  0.00  0.00    +0.000 A 
ATOM     14  C   UNL     1      51.644   3.123  18.102  0.00  0.00    +0.000 A 
ATOM     15  C   UNL     1      50.558   3.970  18.374  0.00  0.00    +0.000 A 
BRANCH  10  17
ATOM     16  C   UNL     1      47.095   4.138  17.236  0.00  0.00    +0.000 C 
ATOM     17  O   UNL     1      48.191   4.323  18.131  0.00  0.00    +0.000 OA
ENDBRANCH  10  17
ENDBRANCH   8  15
ENDBRANCH   7   8
ENDBRANCH   1   7
BRANCH   4  18
ATOM     18  C   UNL     1      48.427   8.472  14.395  0.00  0.00    +0.000 C 
BRANCH  18  19
ATOM     19  N   UNL     1      47.409   7.534  14.006  0.00  0.00    +0.000 N 
ATOM     20  C   UNL     1      47.677   6.452  13.210  0.00  0.00    +0.000 C 
ATOM     21  O   UNL     1      48.814   6.197  12.827  0.00  0.00    +0.000 OA
ATOM     22  H   UNL     1      46.444   7.820  14.147  0.00  0.00    +0.000 HD
BRANCH  20  23
ATOM     23  C   UNL     1      46.538   5.581  12.891  0.00  0.00    +0.000 A 
ATOM     24  C   UNL     1      46.623   4.221  13.158  0.00  0.00    +0.000 A 
ATOM     25  S   UNL     1      45.200   3.360  12.778  0.00  0.00    +0.000 S 
ATOM     26  C   UNL     1      44.438   4.763  12.198  0.00  0.00    +0.000 A 
ATOM     27  N   UNL     1      43.173   4.716  11.693  0.00  0.00    +0.000 NA
ATOM     28  C   UNL     1      42.725   5.849  11.267  0.00  0.00    +0.000 A 
ATOM     29  N   UNL     1      43.421   7.030  11.306  0.00  0.00    +0.000 N 
ATOM     30  C   UNL     1      44.687   7.130  11.827  0.00  0.00    +0.000 A 
ATOM     31  O   UNL     1      45.271   8.208  11.873  0.00  0.00    +0.000 OA
ATOM     32  C   UNL     1      45.250   5.880  12.309  0.00  0.00    +0.000 A 
ATOM     33  H   UNL     1      43.007   7.885  10.965  0.00  0.00    +0.000 HD
ENDBRANCH  20  23
ENDBRANCH  18  19
ENDBRANCH   4  18
TORSDOF 7
ENDMDL
