MODEL 1
REMARK VINA RESULT:    -8.756      0.000      0.000
REMARK INTER + INTRA:         -11.442
REMARK INTER:                 -10.803
REMARK INTRA:                  -0.639
REMARK UNBOUND:                -0.639
REMARK  Name = 
REMARK  4 active torsions:
REMARK  status: ('A' for Active; 'I' for Inactive)
REMARK    1  A    between atoms: C_2  and  C_4
REMARK    2  A    between atoms: N_8  and  C_9
REMARK    3  A    between atoms: C_9  and  C_10
REMARK    4  A    between atoms: C_14  and  N_15
REMARK                            x       y       z     vdW  Elec       q    Type
REMARK                         _______ _______ _______ _____ _____    ______ ____
ROOT
ATOM      1  C   UNL     1      46.475   2.363   7.658  0.00  0.00    +0.000 A 
ATOM      2  C   UNL     1      45.708   1.889   8.714  0.00  0.00    +0.000 A 
ATOM      3  C   UNL     1      44.892   2.776   9.415  0.00  0.00    +0.000 A 
ATOM      4  C   UNL     1      44.872   4.123   9.063  0.00  0.00    +0.000 A 
ATOM      5  N   UNL     1      44.038   5.048   9.649  0.00  0.00    +0.000 N 
ATOM      6  N   UNL     1      45.634   4.599   8.060  0.00  0.00    +0.000 NA
ATOM      7  C   UNL     1      46.421   3.721   7.383  0.00  0.00    +0.000 A 
ATOM      8  H   UNL     1      44.240   5.969   9.272  0.00  0.00    +0.000 HD
ENDROOT
BRANCH   1  10
ATOM      9  N   UNL     1      48.487   2.032   6.346  0.00  0.00    +0.000 N 
ATOM     10  C   UNL     1      47.329   1.489   6.832  0.00  0.00    +0.000 C 
ATOM     11  O   UNL     1      47.036   0.321   6.618  0.00  0.00    +0.000 OA
ATOM     12  H   UNL     1      49.116   1.397   5.871  0.00  0.00    +0.000 HD
ATOM     13  H   UNL     1      48.880   2.891   6.703  0.00  0.00    +0.000 HD
ENDBRANCH   1  10
BRANCH   5  14
ATOM     14  C   UNL     1      43.689   5.007  11.053  0.00  0.00    +0.000 C 
BRANCH  14  15
ATOM     15  C   UNL     1      44.852   5.040  12.010  0.00  0.00    +0.000 A 
ATOM     16  C   UNL     1      44.890   4.061  13.003  0.00  0.00    +0.000 A 
ATOM     17  N   UNL     1      45.838   3.969  13.951  0.00  0.00    +0.000 NA
ATOM     18  C   UNL     1      46.809   4.907  13.900  0.00  0.00    +0.000 A 
ATOM     19  C   UNL     1      46.913   5.934  12.952  0.00  0.00    +0.000 A 
ATOM     20  C   UNL     1      45.887   5.990  12.005  0.00  0.00    +0.000 A 
BRANCH  19  21
ATOM     21  N   UNL     1      47.982   6.816  13.002  0.00  0.00    +0.000 N 
ATOM     22  C   UNL     1      48.398   7.473  14.250  0.00  0.00    +0.000 C 
ATOM     23  C   UNL     1      49.929   7.627  14.266  0.00  0.00    +0.000 C 
ATOM     24  S   UNL     1      50.587   8.590  12.851  0.00  0.00    +0.000 S 
ATOM     25  C   UNL     1      49.710   7.716  11.506  0.00  0.00    +0.000 C 
ATOM     26  C   UNL     1      48.210   7.616  11.785  0.00  0.00    +0.000 C 
ENDBRANCH  19  21
ENDBRANCH  14  15
ENDBRANCH   5  14
TORSDOF 4
ENDMDL
MODEL 2
REMARK VINA RESULT:    -7.849      2.156      3.030
REMARK INTER + INTRA:         -10.324
REMARK INTER:                  -9.764
REMARK INTRA:                  -0.560
REMARK UNBOUND:                -0.639
REMARK  Name = 
REMARK  4 active torsions:
REMARK  status: ('A' for Active; 'I' for Inactive)
REMARK    1  A    between atoms: C_2  and  C_4
REMARK    2  A    between atoms: N_8  and  C_9
REMARK    3  A    between atoms: C_9  and  C_10
REMARK    4  A    between atoms: C_14  and  N_15
REMARK                            x       y       z     vdW  Elec       q    Type
REMARK                         _______ _______ _______ _____ _____    ______ ____
ROOT
ATOM      1  C   UNL     1      46.502   2.598   7.569  0.00  0.00    +0.000 A 
ATOM      2  C   UNL     1      45.895   2.072   8.701  0.00  0.00    +0.000 A 
ATOM      3  C   UNL     1      45.258   2.933   9.593  0.00  0.00    +0.000 A 
ATOM      4  C   UNL     1      45.256   4.305   9.351  0.00  0.00    +0.000 A 
ATOM      5  N   UNL     1      44.584   5.213  10.136  0.00  0.00    +0.000 N 
ATOM      6  N   UNL     1      45.867   4.828   8.271  0.00  0.00    +0.000 NA
ATOM      7  C   UNL     1      46.481   3.975   7.407  0.00  0.00    +0.000 A 
ATOM      8  H   UNL     1      44.773   6.152   9.799  0.00  0.00    +0.000 HD
ENDROOT
BRANCH   1  10
ATOM      9  N   UNL     1      47.863   2.406   5.571  0.00  0.00    +0.000 N 
ATOM     10  C   UNL     1      47.157   1.758   6.547  0.00  0.00    +0.000 C 
ATOM     11  O   UNL     1      47.103   0.537   6.590  0.00  0.00    +0.000 OA
ATOM     12  H   UNL     1      48.395   1.820   4.938  0.00  0.00    +0.000 HD
ATOM     13  H   UNL     1      48.137   3.374   5.646  0.00  0.00    +0.000 HD
ENDBRANCH   1  10
BRANCH   5  14
ATOM     14  C   UNL     1      44.470   5.073  11.572  0.00  0.00    +0.000 C 
BRANCH  14  15
ATOM     15  C   UNL     1      45.687   5.480  12.360  0.00  0.00    +0.000 A 
ATOM     16  C   UNL     1      46.509   6.461  11.806  0.00  0.00    +0.000 A 
ATOM     17  N   UNL     1      47.645   6.913  12.365  0.00  0.00    +0.000 NA
ATOM     18  C   UNL     1      47.977   6.355  13.550  0.00  0.00    +0.000 A 
ATOM     19  C   UNL     1      47.240   5.379  14.235  0.00  0.00    +0.000 A 
ATOM     20  C   UNL     1      46.080   4.935  13.595  0.00  0.00    +0.000 A 
BRANCH  19  21
ATOM     21  N   UNL     1      47.686   4.911  15.463  0.00  0.00    +0.000 N 
ATOM     22  C   UNL     1      46.974   3.863  16.207  0.00  0.00    +0.000 C 
ATOM     23  C   UNL     1      47.991   2.973  16.944  0.00  0.00    +0.000 C 
ATOM     24  S   UNL     1      49.063   3.894  18.112  0.00  0.00    +0.000 S 
ATOM     25  C   UNL     1      49.581   5.240  16.990  0.00  0.00    +0.000 C 
ATOM     26  C   UNL     1      48.381   5.898  16.310  0.00  0.00    +0.000 C 
ENDBRANCH  19  21
ENDBRANCH  14  15
ENDBRANCH   5  14
TORSDOF 4
ENDMDL
MODEL 3
REMARK VINA RESULT:    -7.375      3.270      3.900
REMARK INTER + INTRA:          -9.739
REMARK INTER:                  -9.248
REMARK INTRA:                  -0.491
REMARK UNBOUND:                -0.639
REMARK  Name = 
REMARK  4 active torsions:
REMARK  status: ('A' for Active; 'I' for Inactive)
REMARK    1  A    between atoms: C_2  and  C_4
REMARK    2  A    between atoms: N_8  and  C_9
REMARK    3  A    between atoms: C_9  and  C_10
REMARK    4  A    between atoms: C_14  and  N_15
REMARK                            x       y       z     vdW  Elec       q    Type
REMARK                         _______ _______ _______ _____ _____    ______ ____
ROOT
ATOM      1  C   UNL     1      46.452   2.691   7.468  0.00  0.00    +0.000 A 
ATOM      2  C   UNL     1      46.238   4.017   7.821  0.00  0.00    +0.000 A 
ATOM      3  C   UNL     1      45.474   4.306   8.951  0.00  0.00    +0.000 A 
ATOM      4  C   UNL     1      44.920   3.268   9.696  0.00  0.00    +0.000 A 
ATOM      5  N   UNL     1      44.222   3.463  10.866  0.00  0.00    +0.000 N 
ATOM      6  N   UNL     1      45.096   1.980   9.346  0.00  0.00    +0.000 NA
ATOM      7  C   UNL     1      45.847   1.713   8.244  0.00  0.00    +0.000 A 
ATOM      8  H   UNL     1      43.868   2.571  11.198  0.00  0.00    +0.000 HD
ENDROOT
BRANCH   1  10
ATOM      9  N   UNL     1      47.218   3.077   5.200  0.00  0.00    +0.000 N 
ATOM     10  C   UNL     1      47.285   2.291   6.318  0.00  0.00    +0.000 C 
ATOM     11  O   UNL     1      48.030   1.323   6.372  0.00  0.00    +0.000 OA
ATOM     12  H   UNL     1      47.871   2.857   4.458  0.00  0.00    +0.000 HD
ATOM     13  H   UNL     1      46.821   4.004   5.207  0.00  0.00    +0.000 HD
ENDBRANCH   1  10
BRANCH   5  14
ATOM     14  C   UNL     1      43.354   4.601  11.079  0.00  0.00    +0.000 C 
BRANCH  14  15
ATOM     15  C   UNL     1      44.043   5.868  11.515  0.00  0.00    +0.000 A 
ATOM     16  C   UNL     1      45.008   5.759  12.516  0.00  0.00    +0.000 A 
ATOM     17  N   UNL     1      45.689   6.794  13.038  0.00  0.00    +0.000 NA
ATOM     18  C   UNL     1      45.393   8.008  12.525  0.00  0.00    +0.000 A 
ATOM     19  C   UNL     1      44.467   8.267  11.505  0.00  0.00    +0.000 A 
ATOM     20  C   UNL     1      43.775   7.155  11.017  0.00  0.00    +0.000 A 
BRANCH  19  21
ATOM     21  N   UNL     1      44.281   9.565  11.054  0.00  0.00    +0.000 N 
ATOM     22  C   UNL     1      44.921  10.719  11.701  0.00  0.00    +0.000 C 
ATOM     23  C   UNL     1      45.290  11.768  10.637  0.00  0.00    +0.000 C 
ATOM     24  S   UNL     1      43.855  12.366   9.664  0.00  0.00    +0.000 S 
ATOM     25  C   UNL     1      43.141  10.742   9.224  0.00  0.00    +0.000 C 
ATOM     26  C   UNL     1      42.964   9.853  10.455  0.00  0.00    +0.000 C 
ENDBRANCH  19  21
ENDBRANCH  14  15
ENDBRANCH   5  14
TORSDOF 4
ENDMDL
MODEL 4
REMARK VINA RESULT:    -6.887      3.357      6.694
REMARK INTER + INTRA:          -9.137
REMARK INTER:                  -8.467
REMARK INTRA:                  -0.669
REMARK UNBOUND:                -0.639
REMARK  Name = 
REMARK  4 active torsions:
REMARK  status: ('A' for Active; 'I' for Inactive)
REMARK    1  A    between atoms: C_2  and  C_4
REMARK    2  A    between atoms: N_8  and  C_9
REMARK    3  A    between atoms: C_9  and  C_10
REMARK    4  A    between atoms: C_14  and  N_15
REMARK                            x       y       z     vdW  Elec       q    Type
REMARK                         _______ _______ _______ _____ _____    ______ ____
ROOT
ATOM      1  C   UNL     1      49.149   8.101  12.035  0.00  0.00    +0.000 A 
ATOM      2  C   UNL     1      47.876   8.598  11.791  0.00  0.00    +0.000 A 
ATOM      3  C   UNL     1      46.770   7.907  12.282  0.00  0.00    +0.000 A 
ATOM      4  C   UNL     1      46.952   6.722  12.990  0.00  0.00    +0.000 A 
ATOM      5  N   UNL     1      45.922   6.022  13.576  0.00  0.00    +0.000 N 
ATOM      6  N   UNL     1      48.180   6.215  13.207  0.00  0.00    +0.000 NA
ATOM      7  C   UNL     1      49.251   6.902  12.725  0.00  0.00    +0.000 A 
ATOM      8  H   UNL     1      46.288   5.167  13.985  0.00  0.00    +0.000 HD
ENDROOT
BRANCH   1  10
ATOM      9  N   UNL     1      50.334  10.155  11.530  0.00  0.00    +0.000 N 
ATOM     10  C   UNL     1      50.378   8.790  11.595  0.00  0.00    +0.000 C 
ATOM     11  O   UNL     1      51.401   8.172  11.334  0.00  0.00    +0.000 OA
ATOM     12  H   UNL     1      51.210  10.623  11.331  0.00  0.00    +0.000 HD
ATOM     13  H   UNL     1      49.608  10.700  11.972  0.00  0.00    +0.000 HD
ENDBRANCH   1  10
BRANCH   5  14
ATOM     14  C   UNL     1      44.607   5.921  12.981  0.00  0.00    +0.000 C 
BRANCH  14  15
ATOM     15  C   UNL     1      44.392   4.728  12.086  0.00  0.00    +0.000 A 
ATOM     16  C   UNL     1      43.436   3.794  12.485  0.00  0.00    +0.000 A 
ATOM     17  N   UNL     1      43.147   2.663  11.819  0.00  0.00    +0.000 NA
ATOM     18  C   UNL     1      43.849   2.456  10.683  0.00  0.00    +0.000 A 
ATOM     19  C   UNL     1      44.820   3.314  10.149  0.00  0.00    +0.000 A 
ATOM     20  C   UNL     1      45.092   4.462  10.897  0.00  0.00    +0.000 A 
BRANCH  19  21
ATOM     21  N   UNL     1      45.448   2.989   8.955  0.00  0.00    +0.000 N 
ATOM     22  C   UNL     1      45.615   3.963   7.868  0.00  0.00    +0.000 C 
ATOM     23  C   UNL     1      46.956   3.714   7.154  0.00  0.00    +0.000 C 
ATOM     24  S   UNL     1      47.116   2.026   6.457  0.00  0.00    +0.000 S 
ATOM     25  C   UNL     1      46.610   1.080   7.937  0.00  0.00    +0.000 C 
ATOM     26  C   UNL     1      45.288   1.593   8.507  0.00  0.00    +0.000 C 
ENDBRANCH  19  21
ENDBRANCH  14  15
ENDBRANCH   5  14
TORSDOF 4
ENDMDL
MODEL 5
REMARK VINA RESULT:    -6.698      4.111      7.625
REMARK INTER + INTRA:          -8.904
REMARK INTER:                  -8.341
REMARK INTRA:                  -0.563
REMARK UNBOUND:                -0.639
REMARK  Name = 
REMARK  4 active torsions:
REMARK  status: ('A' for Active; 'I' for Inactive)
REMARK    1  A    between atoms: C_2  and  C_4
REMARK    2  A    between atoms: N_8  and  C_9
REMARK    3  A    between atoms: C_9  and  C_10
REMARK    4  A    between atoms: C_14  and  N_15
REMARK                            x       y       z     vdW  Elec       q    Type
REMARK                         _______ _______ _______ _____ _____    ______ ____
ROOT
ATOM      1  C   UNL     1      48.604   4.467  16.977  0.00  0.00    +0.000 A 
ATOM      2  C   UNL     1      47.451   3.831  16.537  0.00  0.00    +0.000 A 
ATOM      3  C   UNL     1      46.806   4.304  15.396  0.00  0.00    +0.000 A 
ATOM      4  C   UNL     1      47.311   5.416  14.725  0.00  0.00    +0.000 A 
ATOM      5  N   UNL     1      46.782   5.897  13.549  0.00  0.00    +0.000 N 
ATOM      6  N   UNL     1      48.411   6.058  15.160  0.00  0.00    +0.000 NA
ATOM      7  C   UNL     1      49.032   5.583  16.273  0.00  0.00    +0.000 A 
ATOM      8  H   UNL     1      47.278   6.742  13.281  0.00  0.00    +0.000 HD
ENDROOT
BRANCH   1  10
ATOM      9  N   UNL     1      48.693   3.323  19.113  0.00  0.00    +0.000 N 
ATOM     10  C   UNL     1      49.377   4.007  18.146  0.00  0.00    +0.000 C 
ATOM     11  O   UNL     1      50.583   4.197  18.233  0.00  0.00    +0.000 OA
ATOM     12  H   UNL     1      49.250   2.921  19.857  0.00  0.00    +0.000 HD
ATOM     13  H   UNL     1      47.774   2.934  18.961  0.00  0.00    +0.000 HD
ENDBRANCH   1  10
BRANCH   5  14
ATOM     14  C   UNL     1      45.363   5.884  13.266  0.00  0.00    +0.000 C 
BRANCH  14  15
ATOM     15  C   UNL     1      44.899   4.794  12.336  0.00  0.00    +0.000 A 
ATOM     16  C   UNL     1      43.825   4.009  12.757  0.00  0.00    +0.000 A 
ATOM     17  N   UNL     1      43.312   2.979  12.062  0.00  0.00    +0.000 NA
ATOM     18  C   UNL     1      43.902   2.722  10.874  0.00  0.00    +0.000 A 
ATOM     19  C   UNL     1      44.971   3.436  10.314  0.00  0.00    +0.000 A 
ATOM     20  C   UNL     1      45.475   4.482  11.092  0.00  0.00    +0.000 A 
BRANCH  19  21
ATOM     21  N   UNL     1      45.464   3.078   9.068  0.00  0.00    +0.000 N 
ATOM     22  C   UNL     1      45.467   4.008   7.930  0.00  0.00    +0.000 C 
ATOM     23  C   UNL     1      46.722   3.769   7.072  0.00  0.00    +0.000 C 
ATOM     24  S   UNL     1      46.858   2.057   6.429  0.00  0.00    +0.000 S 
ATOM     25  C   UNL     1      46.564   1.162   7.995  0.00  0.00    +0.000 C 
ATOM     26  C   UNL     1      45.301   1.660   8.698  0.00  0.00    +0.000 C 
ENDBRANCH  19  21
ENDBRANCH  14  15
ENDBRANCH   5  14
TORSDOF 4
ENDMDL
MODEL 6
REMARK VINA RESULT:    -6.356      5.296      8.326
REMARK INTER + INTRA:          -8.482
REMARK INTER:                  -7.897
REMARK INTRA:                  -0.585
REMARK UNBOUND:                -0.639
REMARK  Name = 
REMARK  4 active torsions:
REMARK  status: ('A' for Active; 'I' for Inactive)
REMARK    1  A    between atoms: C_2  and  C_4
REMARK    2  A    between atoms: N_8  and  C_9
REMARK    3  A    between atoms: C_9  and  C_10
REMARK    4  A    between atoms: C_14  and  N_15
REMARK                            x       y       z     vdW  Elec       q    Type
REMARK                         _______ _______ _______ _____ _____    ______ ____
ROOT
ATOM      1  C   UNL     1      52.012   2.469  17.831  0.00  0.00    +0.000 A 
ATOM      2  C   UNL     1      51.404   3.608  18.344  0.00  0.00    +0.000 A 
ATOM      3  C   UNL     1      50.055   3.837  18.077  0.00  0.00    +0.000 A 
ATOM      4  C   UNL     1      49.342   2.937  17.287  0.00  0.00    +0.000 A 
ATOM      5  N   UNL     1      47.992   3.046  17.043  0.00  0.00    +0.000 N 
ATOM      6  N   UNL     1      49.929   1.846  16.762  0.00  0.00    +0.000 NA
ATOM      7  C   UNL     1      51.245   1.633  17.034  0.00  0.00    +0.000 A 
ATOM      8  H   UNL     1      47.708   2.313  16.400  0.00  0.00    +0.000 HD
ENDROOT
BRANCH   1  10
ATOM      9  N   UNL     1      54.375   2.829  17.423  0.00  0.00    +0.000 N 
ATOM     10  C   UNL     1      53.420   2.122  18.102  0.00  0.00    +0.000 C 
ATOM     11  O   UNL     1      53.724   1.266  18.921  0.00  0.00    +0.000 OA
ATOM     12  H   UNL     1      55.336   2.658  17.693  0.00  0.00    +0.000 HD
ATOM     13  H   UNL     1      54.176   3.694  16.944  0.00  0.00    +0.000 HD
ENDBRANCH   1  10
BRANCH   5  14
ATOM     14  C   UNL     1      47.328   4.321  16.875  0.00  0.00    +0.000 C 
BRANCH  14  15
ATOM     15  C   UNL     1      47.435   4.931  15.502  0.00  0.00    +0.000 A 
ATOM     16  C   UNL     1      48.440   5.876  15.298  0.00  0.00    +0.000 A 
ATOM     17  N   UNL     1      48.649   6.534  14.145  0.00  0.00    +0.000 NA
ATOM     18  C   UNL     1      47.808   6.225  13.134  0.00  0.00    +0.000 A 
ATOM     19  C   UNL     1      46.770   5.285  13.185  0.00  0.00    +0.000 A 
ATOM     20  C   UNL     1      46.589   4.648  14.415  0.00  0.00    +0.000 A 
BRANCH  19  21
ATOM     21  N   UNL     1      45.997   5.047  12.058  0.00  0.00    +0.000 N 
ATOM     22  C   UNL     1      45.791   6.067  11.020  0.00  0.00    +0.000 C 
ATOM     23  C   UNL     1      45.715   5.390   9.640  0.00  0.00    +0.000 C 
ATOM     24  S   UNL     1      44.380   4.140   9.505  0.00  0.00    +0.000 S 
ATOM     25  C   UNL     1      44.742   3.202  11.031  0.00  0.00    +0.000 C 
ATOM     26  C   UNL     1      44.861   4.125  12.244  0.00  0.00    +0.000 C 
ENDBRANCH  19  21
ENDBRANCH  14  15
ENDBRANCH   5  14
TORSDOF 4
ENDMDL
MODEL 7
REMARK VINA RESULT:    -6.270      4.887      8.126
REMARK INTER + INTRA:          -8.376
REMARK INTER:                  -7.781
REMARK INTRA:                  -0.595
REMARK UNBOUND:                -0.639
REMARK  Name = 
REMARK  4 active torsions:
REMARK  status: ('A' for Active; 'I' for Inactive)
REMARK    1  A    between atoms: C_2  and  C_4
REMARK    2  A    between atoms: N_8  and  C_9
REMARK    3  A    between atoms: C_9  and  C_10
REMARK    4  A    between atoms: C_14  and  N_15
REMARK                            x       y       z     vdW  Elec       q    Type
REMARK                         _______ _______ _______ _____ _____    ______ ____
ROOT
ATOM      1  C   UNL     1      51.355   2.420  17.479  0.00  0.00    +0.000 A 
ATOM      2  C   UNL     1      51.755   3.748  17.547  0.00  0.00    +0.000 A 
ATOM      3  C   UNL     1      50.817   4.754  17.319  0.00  0.00    +0.000 A 
ATOM      4  C   UNL     1      49.501   4.417  17.008  0.00  0.00    +0.000 A 
ATOM      5  N   UNL     1      48.498   5.345  16.848  0.00  0.00    +0.000 N 
ATOM      6  N   UNL     1      49.110   3.132  16.910  0.00  0.00    +0.000 NA
ATOM      7  C   UNL     1      50.035   2.162  17.139  0.00  0.00    +0.000 A 
ATOM      8  H   UNL     1      47.644   4.870  16.571  0.00  0.00    +0.000 HD
ENDROOT
BRANCH   1  10
ATOM      9  N   UNL     1      51.698   0.122  18.170  0.00  0.00    +0.000 N 
ATOM     10  C   UNL     1      52.267   1.293  17.751  0.00  0.00    +0.000 C 
ATOM     11  O   UNL     1      53.474   1.389  17.578  0.00  0.00    +0.000 OA
ATOM     12  H   UNL     1      52.319  -0.674  18.252  0.00  0.00    +0.000 HD
ATOM     13  H   UNL     1      50.711  -0.069  18.081  0.00  0.00    +0.000 HD
ENDBRANCH   1  10
BRANCH   5  14
ATOM     14  C   UNL     1      48.720   6.641  16.244  0.00  0.00    +0.000 C 
BRANCH  14  15
ATOM     15  C   UNL     1      48.415   6.730  14.772  0.00  0.00    +0.000 A 
ATOM     16  C   UNL     1      49.203   7.589  14.006  0.00  0.00    +0.000 A 
ATOM     17  N   UNL     1      49.041   7.807  12.690  0.00  0.00    +0.000 NA
ATOM     18  C   UNL     1      48.037   7.121  12.102  0.00  0.00    +0.000 A 
ATOM     19  C   UNL     1      47.181   6.210  12.736  0.00  0.00    +0.000 A 
ATOM     20  C   UNL     1      47.384   6.042  14.108  0.00  0.00    +0.000 A 
BRANCH  19  21
ATOM     21  N   UNL     1      46.204   5.553  12.002  0.00  0.00    +0.000 N 
ATOM     22  C   UNL     1      45.718   6.063  10.713  0.00  0.00    +0.000 C 
ATOM     23  C   UNL     1      45.398   4.882   9.779  0.00  0.00    +0.000 C 
ATOM     24  S   UNL     1      44.149   3.723  10.459  0.00  0.00    +0.000 S 
ATOM     25  C   UNL     1      44.885   3.484  12.115  0.00  0.00    +0.000 C 
ATOM     26  C   UNL     1      45.196   4.820  12.790  0.00  0.00    +0.000 C 
ENDBRANCH  19  21
ENDBRANCH  14  15
ENDBRANCH   5  14
TORSDOF 4
ENDMDL
MODEL 8
REMARK VINA RESULT:    -5.861      3.948      5.777
REMARK INTER + INTRA:          -7.871
REMARK INTER:                  -7.318
REMARK INTRA:                  -0.553
REMARK UNBOUND:                -0.639
REMARK  Name = 
REMARK  4 active torsions:
REMARK  status: ('A' for Active; 'I' for Inactive)
REMARK    1  A    between atoms: C_2  and  C_4
REMARK    2  A    between atoms: N_8  and  C_9
REMARK    3  A    between atoms: C_9  and  C_10
REMARK    4  A    between atoms: C_14  and  N_15
REMARK                            x       y       z     vdW  Elec       q    Type
REMARK                         _______ _______ _______ _____ _____    ______ ____
ROOT
ATOM      1  C   UNL     1      45.000   4.065  11.414  0.00  0.00    +0.000 A 
ATOM      2  C   UNL     1      45.691   3.937  12.612  0.00  0.00    +0.000 A 
ATOM      3  C   UNL     1      46.562   4.951  13.007  0.00  0.00    +0.000 A 
ATOM      4  C   UNL     1      46.744   6.065  12.191  0.00  0.00    +0.000 A 
ATOM      5  N   UNL     1      47.522   7.145  12.543  0.00  0.00    +0.000 N 
ATOM      6  N   UNL     1      46.101   6.186  11.014  0.00  0.00    +0.000 NA
ATOM      7  C   UNL     1      45.251   5.190  10.644  0.00  0.00    +0.000 A 
ATOM      8  H   UNL     1      47.548   7.804  11.771  0.00  0.00    +0.000 HD
ENDROOT
BRANCH   1  10
ATOM      9  N   UNL     1      44.447   2.192   9.977  0.00  0.00    +0.000 N 
ATOM     10  C   UNL     1      44.024   3.066  10.941  0.00  0.00    +0.000 C 
ATOM     11  O   UNL     1      42.897   2.997  11.412  0.00  0.00    +0.000 OA
ATOM     12  H   UNL     1      43.807   1.445   9.736  0.00  0.00    +0.000 HD
ATOM     13  H   UNL     1      45.422   2.056   9.753  0.00  0.00    +0.000 HD
ENDBRANCH   1  10
BRANCH   5  14
ATOM     14  C   UNL     1      48.749   7.011  13.297  0.00  0.00    +0.000 C 
BRANCH  14  15
ATOM     15  C   UNL     1      48.666   7.417  14.746  0.00  0.00    +0.000 A 
ATOM     16  C   UNL     1      48.504   8.775  15.021  0.00  0.00    +0.000 A 
ATOM     17  N   UNL     1      48.443   9.303  16.256  0.00  0.00    +0.000 NA
ATOM     18  C   UNL     1      48.544   8.422  17.275  0.00  0.00    +0.000 A 
ATOM     19  C   UNL     1      48.687   7.033  17.152  0.00  0.00    +0.000 A 
ATOM     20  C   UNL     1      48.765   6.546  15.845  0.00  0.00    +0.000 A 
BRANCH  19  21
ATOM     21  N   UNL     1      48.753   6.241  18.289  0.00  0.00    +0.000 N 
ATOM     22  C   UNL     1      49.773   5.198  18.459  0.00  0.00    +0.000 C 
ATOM     23  C   UNL     1      50.186   5.117  19.940  0.00  0.00    +0.000 C 
ATOM     24  S   UNL     1      48.791   4.761  21.074  0.00  0.00    +0.000 S 
ATOM     25  C   UNL     1      47.620   6.022  20.457  0.00  0.00    +0.000 C 
ATOM     26  C   UNL     1      47.462   5.946  18.939  0.00  0.00    +0.000 C 
ENDBRANCH  19  21
ENDBRANCH  14  15
ENDBRANCH   5  14
TORSDOF 4
ENDMDL
MODEL 9
REMARK VINA RESULT:    -5.836      4.628      6.653
REMARK INTER + INTRA:          -7.840
REMARK INTER:                  -7.358
REMARK INTRA:                  -0.483
REMARK UNBOUND:                -0.639
REMARK  Name = 
REMARK  4 active torsions:
REMARK  status: ('A' for Active; 'I' for Inactive)
REMARK    1  A    between atoms: C_2  and  C_4
REMARK    2  A    between atoms: N_8  and  C_9
REMARK    3  A    between atoms: C_9  and  C_10
REMARK    4  A    between atoms: C_14  and  N_15
REMARK                            x       y       z     vdW  Elec       q    Type
REMARK                         _______ _______ _______ _____ _____    ______ ____
ROOT
ATOM      1  C   UNL     1      45.556   4.840  11.557  0.00  0.00    +0.000 A 
ATOM      2  C   UNL     1      46.198   5.786  12.345  0.00  0.00    +0.000 A 
ATOM      3  C   UNL     1      46.735   5.399  13.571  0.00  0.00    +0.000 A 
ATOM      4  C   UNL     1      46.606   4.079  13.998  0.00  0.00    +0.000 A 
ATOM      5  N   UNL     1      47.175   3.596  15.155  0.00  0.00    +0.000 N 
ATOM      6  N   UNL     1      45.961   3.160  13.255  0.00  0.00    +0.000 NA
ATOM      7  C   UNL     1      45.445   3.552  12.059  0.00  0.00    +0.000 A 
ATOM      8  H   UNL     1      46.899   2.628  15.285  0.00  0.00    +0.000 HD
ENDROOT
BRANCH   1  10
ATOM      9  N   UNL     1      43.638   5.217  10.122  0.00  0.00    +0.000 N 
ATOM     10  C   UNL     1      45.000   5.149  10.225  0.00  0.00    +0.000 C 
ATOM     11  O   UNL     1      45.724   5.371   9.264  0.00  0.00    +0.000 OA
ATOM     12  H   UNL     1      43.271   5.533   9.233  0.00  0.00    +0.000 HD
ATOM     13  H   UNL     1      43.032   5.292  10.926  0.00  0.00    +0.000 HD
ENDBRANCH   1  10
BRANCH   5  14
ATOM     14  C   UNL     1      47.283   4.387  16.362  0.00  0.00    +0.000 C 
BRANCH  14  15
ATOM     15  C   UNL     1      48.671   4.868  16.698  0.00  0.00    +0.000 A 
ATOM     16  C   UNL     1      49.021   6.151  16.279  0.00  0.00    +0.000 A 
ATOM     17  N   UNL     1      50.226   6.716  16.470  0.00  0.00    +0.000 NA
ATOM     18  C   UNL     1      51.131   5.957  17.125  0.00  0.00    +0.000 A 
ATOM     19  C   UNL     1      50.915   4.664  17.623  0.00  0.00    +0.000 A 
ATOM     20  C   UNL     1      49.652   4.123  17.376  0.00  0.00    +0.000 A 
BRANCH  19  21
ATOM     21  N   UNL     1      51.930   4.007  18.303  0.00  0.00    +0.000 N 
ATOM     22  C   UNL     1      52.359   2.648  17.946  0.00  0.00    +0.000 C 
ATOM     23  C   UNL     1      53.878   2.514  18.160  0.00  0.00    +0.000 C 
ATOM     24  S   UNL     1      54.413   2.864  19.878  0.00  0.00    +0.000 S 
ATOM     25  C   UNL     1      53.533   4.449  20.111  0.00  0.00    +0.000 C 
ATOM     26  C   UNL     1      52.056   4.332  19.736  0.00  0.00    +0.000 C 
ENDBRANCH  19  21
ENDBRANCH  14  15
ENDBRANCH   5  14
TORSDOF 4
ENDMDL
