MODEL 1
REMARK VINA RESULT:    -7.104      0.000      0.000
REMARK INTER + INTRA:         -11.869
REMARK INTER:                 -10.011
REMARK INTRA:                  -1.859
REMARK UNBOUND:                -1.859
REMARK  Name = 
REMARK  9 active torsions:
REMARK  status: ('A' for Active; 'I' for Inactive)
REMARK    1  A    between atoms: C_1  and  C_2
REMARK    2  A    between atoms: C_7  and  C_8
REMARK    3  A    between atoms: C_8  and  N_9
REMARK    4  A    between atoms: N_9  and  C_10
REMARK    5  A    between atoms: N_9  and  C_11
REMARK    6  A    between atoms: C_11  and  C_12
REMARK    7  A    between atoms: C_15  and  C_16
REMARK    8  A    between atoms: C_16  and  N_17
REMARK    9  A    between atoms: C_18  and  C_20
REMARK                            x       y       z     vdW  Elec       q    Type
REMARK                         _______ _______ _______ _____ _____    ______ ____
ROOT
ATOM      1  C   UNL     1      48.999   8.063  16.051  0.00  0.00    +0.000 A 
ATOM      2  C   UNL     1      49.480   7.047  15.214  0.00  0.00    +0.000 A 
ATOM      3  C   UNL     1      49.074   6.970  13.879  0.00  0.00    +0.000 A 
ATOM      4  C   UNL     1      48.187   7.916  13.348  0.00  0.00    +0.000 A 
ATOM      5  C   UNL     1      47.703   8.930  14.184  0.00  0.00    +0.000 A 
ATOM      6  C   UNL     1      48.106   9.004  15.521  0.00  0.00    +0.000 A 
ENDROOT
BRANCH   1   7
ATOM      7  C   UNL     1      49.402   8.120  17.511  0.00  0.00    +0.000 C 
BRANCH   7   8
ATOM      8  N   UNL     1      48.443   7.474  18.428  0.00  0.00    +0.000 NA
ATOM      9  C   UNL     1      48.029   8.440  19.454  0.00  0.00    +0.000 C 
BRANCH   8  10
ATOM     10  C   UNL     1      49.020   6.262  19.045  0.00  0.00    +0.000 C 
BRANCH  10  17
ATOM     11  C   UNL     1      51.255   4.656  17.735  0.00  0.00    +0.000 C 
ATOM     12  C   UNL     1      49.807   4.285  17.600  0.00  0.00    +0.000 A 
ATOM     13  N   UNL     1      49.565   3.192  16.830  0.00  0.00    +0.000 NA
ATOM     14  C   UNL     1      48.283   2.791  16.688  0.00  0.00    +0.000 A 
ATOM     15  C   UNL     1      47.211   3.422  17.285  0.00  0.00    +0.000 A 
ATOM     16  C   UNL     1      47.468   4.547  18.057  0.00  0.00    +0.000 A 
ATOM     17  C   UNL     1      48.783   5.010  18.226  0.00  0.00    +0.000 A 
ENDBRANCH  10  17
ENDBRANCH   8  10
ENDBRANCH   7   8
ENDBRANCH   1   7
BRANCH   4  18
ATOM     18  C   UNL     1      47.710   7.813  11.922  0.00  0.00    +0.000 C 
BRANCH  18  19
ATOM     19  N   UNL     1      46.996   6.579  11.705  0.00  0.00    +0.000 N 
ATOM     20  C   UNL     1      45.635   6.505  11.856  0.00  0.00    +0.000 C 
ATOM     21  O   UNL     1      44.961   7.493  12.143  0.00  0.00    +0.000 OA
ATOM     22  H   UNL     1      47.545   5.726  11.680  0.00  0.00    +0.000 HD
BRANCH  20  23
ATOM     23  C   UNL     1      45.010   5.201  11.600  0.00  0.00    +0.000 A 
ATOM     24  C   UNL     1      44.319   4.563  12.621  0.00  0.00    +0.000 A 
ATOM     25  S   UNL     1      43.617   3.082  12.152  0.00  0.00    +0.000 S 
ATOM     26  C   UNL     1      44.251   3.215  10.581  0.00  0.00    +0.000 A 
ATOM     27  N   UNL     1      44.036   2.243   9.655  0.00  0.00    +0.000 NA
ATOM     28  C   UNL     1      44.597   2.458   8.512  0.00  0.00    +0.000 A 
ATOM     29  N   UNL     1      45.352   3.565   8.211  0.00  0.00    +0.000 N 
ATOM     30  C   UNL     1      45.572   4.585   9.104  0.00  0.00    +0.000 A 
ATOM     31  O   UNL     1      46.218   5.580   8.787  0.00  0.00    +0.000 OA
ATOM     32  C   UNL     1      44.972   4.386  10.409  0.00  0.00    +0.000 A 
ATOM     33  H   UNL     1      45.758   3.677   7.294  0.00  0.00    +0.000 HD
ENDBRANCH  20  23
ENDBRANCH  18  19
ENDBRANCH   4  18
TORSDOF 7
ENDMDL
MODEL 2
REMARK VINA RESULT:    -6.856      1.698      2.299
REMARK INTER + INTRA:         -11.521
REMARK INTER:                 -10.005
REMARK INTRA:                  -1.516
REMARK UNBOUND:                -1.859
REMARK  Name = 
REMARK  9 active torsions:
REMARK  status: ('A' for Active; 'I' for Inactive)
REMARK    1  A    between atoms: C_1  and  C_2
REMARK    2  A    between atoms: C_7  and  C_8
REMARK    3  A    between atoms: C_8  and  N_9
REMARK    4  A    between atoms: N_9  and  C_10
REMARK    5  A    between atoms: N_9  and  C_11
REMARK    6  A    between atoms: C_11  and  C_12
REMARK    7  A    between atoms: C_15  and  C_16
REMARK    8  A    between atoms: C_16  and  N_17
REMARK    9  A    between atoms: C_18  and  C_20
REMARK                            x       y       z     vdW  Elec       q    Type
REMARK                         _______ _______ _______ _____ _____    ______ ____
ROOT
ATOM      1  C   UNL     1      50.308   6.992  15.785  0.00  0.00    +0.000 A 
ATOM      2  C   UNL     1      49.017   6.541  15.477  0.00  0.00    +0.000 A 
ATOM      3  C   UNL     1      48.411   6.884  14.266  0.00  0.00    +0.000 A 
ATOM      4  C   UNL     1      49.087   7.677  13.330  0.00  0.00    +0.000 A 
ATOM      5  C   UNL     1      50.376   8.132  13.637  0.00  0.00    +0.000 A 
ATOM      6  C   UNL     1      50.981   7.792  14.850  0.00  0.00    +0.000 A 
ENDROOT
BRANCH   1   7
ATOM      7  C   UNL     1      50.949   6.660  17.118  0.00  0.00    +0.000 C 
BRANCH   7   8
ATOM      8  N   UNL     1      49.990   6.522  18.232  0.00  0.00    +0.000 NA
ATOM      9  C   UNL     1      50.192   7.623  19.182  0.00  0.00    +0.000 C 
BRANCH   8  10
ATOM     10  C   UNL     1      50.127   5.213  18.901  0.00  0.00    +0.000 C 
BRANCH  10  17
ATOM     11  C   UNL     1      51.976   3.051  17.808  0.00  0.00    +0.000 C 
ATOM     12  C   UNL     1      50.503   3.076  17.520  0.00  0.00    +0.000 A 
ATOM     13  N   UNL     1      50.060   2.076  16.714  0.00  0.00    +0.000 NA
ATOM     14  C   UNL     1      48.739   2.029  16.435  0.00  0.00    +0.000 A 
ATOM     15  C   UNL     1      47.818   2.931  16.926  0.00  0.00    +0.000 A 
ATOM     16  C   UNL     1      48.285   3.959  17.736  0.00  0.00    +0.000 A 
ATOM     17  C   UNL     1      49.651   4.057  18.045  0.00  0.00    +0.000 A 
ENDBRANCH  10  17
ENDBRANCH   8  10
ENDBRANCH   7   8
ENDBRANCH   1   7
BRANCH   4  18
ATOM     18  C   UNL     1      48.422   8.088  12.041  0.00  0.00    +0.000 C 
BRANCH  18  19
ATOM     19  N   UNL     1      47.697   6.985  11.461  0.00  0.00    +0.000 N 
ATOM     20  C   UNL     1      46.327   6.936  11.492  0.00  0.00    +0.000 C 
ATOM     21  O   UNL     1      45.658   7.844  11.979  0.00  0.00    +0.000 OA
ATOM     22  H   UNL     1      48.226   6.144  11.251  0.00  0.00    +0.000 HD
BRANCH  20  23
ATOM     23  C   UNL     1      45.693   5.771  10.862  0.00  0.00    +0.000 A 
ATOM     24  C   UNL     1      45.831   5.572   9.495  0.00  0.00    +0.000 A 
ATOM     25  S   UNL     1      45.074   4.155   8.928  0.00  0.00    +0.000 S 
ATOM     26  C   UNL     1      44.491   3.778  10.479  0.00  0.00    +0.000 A 
ATOM     27  N   UNL     1      43.728   2.673  10.690  0.00  0.00    +0.000 NA
ATOM     28  C   UNL     1      43.330   2.522  11.909  0.00  0.00    +0.000 A 
ATOM     29  N   UNL     1      43.634   3.377  12.940  0.00  0.00    +0.000 N 
ATOM     30  C   UNL     1      44.424   4.489  12.779  0.00  0.00    +0.000 A 
ATOM     31  O   UNL     1      44.710   5.209  13.732  0.00  0.00    +0.000 OA
ATOM     32  C   UNL     1      44.888   4.712  11.423  0.00  0.00    +0.000 A 
ATOM     33  H   UNL     1      43.297   3.199  13.874  0.00  0.00    +0.000 HD
ENDBRANCH  20  23
ENDBRANCH  18  19
ENDBRANCH   4  18
TORSDOF 7
ENDMDL
MODEL 3
REMARK VINA RESULT:    -6.219      2.870      8.812
REMARK INTER + INTRA:         -10.623
REMARK INTER:                  -9.826
REMARK INTRA:                  -0.798
REMARK UNBOUND:                -1.859
REMARK  Name = 
REMARK  9 active torsions:
REMARK  status: ('A' for Active; 'I' for Inactive)
REMARK    1  A    between atoms: C_1  and  C_2
REMARK    2  A    between atoms: C_7  and  C_8
REMARK    3  A    between atoms: C_8  and  N_9
REMARK    4  A    between atoms: N_9  and  C_10
REMARK    5  A    between atoms: N_9  and  C_11
REMARK    6  A    between atoms: C_11  and  C_12
REMARK    7  A    between atoms: C_15  and  C_16
REMARK    8  A    between atoms: C_16  and  N_17
REMARK    9  A    between atoms: C_18  and  C_20
REMARK                            x       y       z     vdW  Elec       q    Type
REMARK                         _______ _______ _______ _____ _____    ______ ____
ROOT
ATOM      1  C   UNL     1      44.566   4.034  11.138  0.00  0.00    +0.000 A 
ATOM      2  C   UNL     1      44.778   4.150  12.519  0.00  0.00    +0.000 A 
ATOM      3  C   UNL     1      45.445   5.258  13.048  0.00  0.00    +0.000 A 
ATOM      4  C   UNL     1      45.906   6.281  12.209  0.00  0.00    +0.000 A 
ATOM      5  C   UNL     1      45.698   6.165  10.829  0.00  0.00    +0.000 A 
ATOM      6  C   UNL     1      45.033   5.055  10.299  0.00  0.00    +0.000 A 
ENDROOT
BRANCH   1   7
ATOM      7  C   UNL     1      43.884   2.811  10.559  0.00  0.00    +0.000 C 
BRANCH   7   8
ATOM      8  N   UNL     1      44.398   2.400   9.238  0.00  0.00    +0.000 NA
ATOM      9  C   UNL     1      43.809   1.107   8.871  0.00  0.00    +0.000 C 
BRANCH   8  10
ATOM     10  C   UNL     1      45.874   2.330   9.232  0.00  0.00    +0.000 C 
BRANCH  10  17
ATOM     11  C   UNL     1      46.915  -0.119   7.747  0.00  0.00    +0.000 C 
ATOM     12  C   UNL     1      46.967   1.262   7.163  0.00  0.00    +0.000 A 
ATOM     13  N   UNL     1      47.536   1.343   5.932  0.00  0.00    +0.000 NA
ATOM     14  C   UNL     1      47.592   2.556   5.340  0.00  0.00    +0.000 A 
ATOM     15  C   UNL     1      47.100   3.712   5.912  0.00  0.00    +0.000 A 
ATOM     16  C   UNL     1      46.535   3.620   7.177  0.00  0.00    +0.000 A 
ATOM     17  C   UNL     1      46.464   2.383   7.837  0.00  0.00    +0.000 A 
ENDBRANCH  10  17
ENDBRANCH   8  10
ENDBRANCH   7   8
ENDBRANCH   1   7
BRANCH   4  18
ATOM     18  C   UNL     1      46.666   7.456  12.768  0.00  0.00    +0.000 C 
BRANCH  18  19
ATOM     19  N   UNL     1      47.115   7.187  14.112  0.00  0.00    +0.000 N 
ATOM     20  C   UNL     1      48.364   6.680  14.359  0.00  0.00    +0.000 C 
ATOM     21  O   UNL     1      49.168   6.468  13.454  0.00  0.00    +0.000 OA
ATOM     22  H   UNL     1      46.406   7.153  14.837  0.00  0.00    +0.000 HD
BRANCH  20  23
ATOM     23  C   UNL     1      48.720   6.454  15.766  0.00  0.00    +0.000 A 
ATOM     24  C   UNL     1      49.370   7.455  16.476  0.00  0.00    +0.000 A 
ATOM     25  S   UNL     1      49.672   7.054  18.104  0.00  0.00    +0.000 S 
ATOM     26  C   UNL     1      48.991   5.510  17.909  0.00  0.00    +0.000 A 
ATOM     27  N   UNL     1      48.953   4.627  18.942  0.00  0.00    +0.000 NA
ATOM     28  C   UNL     1      48.432   3.481  18.649  0.00  0.00    +0.000 A 
ATOM     29  N   UNL     1      47.941   3.143  17.412  0.00  0.00    +0.000 N 
ATOM     30  C   UNL     1      47.933   4.011  16.348  0.00  0.00    +0.000 A 
ATOM     31  O   UNL     1      47.447   3.689  15.267  0.00  0.00    +0.000 OA
ATOM     32  C   UNL     1      48.518   5.310  16.622  0.00  0.00    +0.000 A 
ATOM     33  H   UNL     1      47.540   2.232  17.249  0.00  0.00    +0.000 HD
ENDBRANCH  20  23
ENDBRANCH  18  19
ENDBRANCH   4  18
TORSDOF 7
ENDMDL
MODEL 4
REMARK VINA RESULT:    -6.105      2.182      3.274
REMARK INTER + INTRA:         -10.462
REMARK INTER:                  -9.494
REMARK INTRA:                  -0.968
REMARK UNBOUND:                -1.859
REMARK  Name = 
REMARK  9 active torsions:
REMARK  status: ('A' for Active; 'I' for Inactive)
REMARK    1  A    between atoms: C_1  and  C_2
REMARK    2  A    between atoms: C_7  and  C_8
REMARK    3  A    between atoms: C_8  and  N_9
REMARK    4  A    between atoms: N_9  and  C_10
REMARK    5  A    between atoms: N_9  and  C_11
REMARK    6  A    between atoms: C_11  and  C_12
REMARK    7  A    between atoms: C_15  and  C_16
REMARK    8  A    between atoms: C_16  and  N_17
REMARK    9  A    between atoms: C_18  and  C_20
REMARK                            x       y       z     vdW  Elec       q    Type
REMARK                         _______ _______ _______ _____ _____    ______ ____
ROOT
ATOM      1  C   UNL     1      48.557   5.642  17.649  0.00  0.00    +0.000 A 
ATOM      2  C   UNL     1      49.081   6.889  17.282  0.00  0.00    +0.000 A 
ATOM      3  C   UNL     1      49.043   7.316  15.952  0.00  0.00    +0.000 A 
ATOM      4  C   UNL     1      48.469   6.508  14.961  0.00  0.00    +0.000 A 
ATOM      5  C   UNL     1      47.948   5.260  15.325  0.00  0.00    +0.000 A 
ATOM      6  C   UNL     1      47.989   4.832  16.656  0.00  0.00    +0.000 A 
ENDROOT
BRANCH   1   7
ATOM      7  C   UNL     1      48.639   5.158  19.084  0.00  0.00    +0.000 C 
BRANCH   7   8
ATOM      8  N   UNL     1      50.013   4.889  19.553  0.00  0.00    +0.000 NA
ATOM      9  C   UNL     1      50.403   5.921  20.523  0.00  0.00    +0.000 C 
BRANCH   8  10
ATOM     10  C   UNL     1      50.967   4.835  18.427  0.00  0.00    +0.000 C 
BRANCH  10  17
ATOM     11  C   UNL     1      53.561   3.966  19.769  0.00  0.00    +0.000 C 
ATOM     12  C   UNL     1      52.795   3.073  18.838  0.00  0.00    +0.000 A 
ATOM     13  N   UNL     1      53.358   1.856  18.619  0.00  0.00    +0.000 NA
ATOM     14  C   UNL     1      52.705   0.995  17.809  0.00  0.00    +0.000 A 
ATOM     15  C   UNL     1      51.500   1.279  17.199  0.00  0.00    +0.000 A 
ATOM     16  C   UNL     1      50.942   2.532  17.417  0.00  0.00    +0.000 A 
ATOM     17  C   UNL     1      51.588   3.465  18.242  0.00  0.00    +0.000 A 
ENDBRANCH  10  17
ENDBRANCH   8  10
ENDBRANCH   7   8
ENDBRANCH   1   7
BRANCH   4  18
ATOM     18  C   UNL     1      48.465   6.942  13.517  0.00  0.00    +0.000 C 
BRANCH  18  19
ATOM     19  N   UNL     1      47.637   6.070  12.720  0.00  0.00    +0.000 N 
ATOM     20  C   UNL     1      46.662   6.569  11.896  0.00  0.00    +0.000 C 
ATOM     21  O   UNL     1      46.475   7.777  11.771  0.00  0.00    +0.000 OA
ATOM     22  H   UNL     1      47.632   5.086  12.967  0.00  0.00    +0.000 HD
BRANCH  20  23
ATOM     23  C   UNL     1      45.885   5.591  11.123  0.00  0.00    +0.000 A 
ATOM     24  C   UNL     1      45.911   5.641   9.735  0.00  0.00    +0.000 A 
ATOM     25  S   UNL     1      44.995   4.413   8.988  0.00  0.00    +0.000 S 
ATOM     26  C   UNL     1      44.491   3.797  10.490  0.00  0.00    +0.000 A 
ATOM     27  N   UNL     1      43.650   2.731  10.562  0.00  0.00    +0.000 NA
ATOM     28  C   UNL     1      43.327   2.385  11.764  0.00  0.00    +0.000 A 
ATOM     29  N   UNL     1      43.775   3.009  12.902  0.00  0.00    +0.000 N 
ATOM     30  C   UNL     1      44.646   4.071  12.878  0.00  0.00    +0.000 A 
ATOM     31  O   UNL     1      45.060   4.578  13.917  0.00  0.00    +0.000 OA
ATOM     32  C   UNL     1      45.032   4.507  11.550  0.00  0.00    +0.000 A 
ATOM     33  H   UNL     1      43.490   2.685  13.814  0.00  0.00    +0.000 HD
ENDBRANCH  20  23
ENDBRANCH  18  19
ENDBRANCH   4  18
TORSDOF 7
ENDMDL
MODEL 5
REMARK VINA RESULT:    -6.099      4.120      6.063
REMARK INTER + INTRA:         -10.454
REMARK INTER:                  -9.292
REMARK INTRA:                  -1.162
REMARK UNBOUND:                -1.859
REMARK  Name = 
REMARK  9 active torsions:
REMARK  status: ('A' for Active; 'I' for Inactive)
REMARK    1  A    between atoms: C_1  and  C_2
REMARK    2  A    between atoms: C_7  and  C_8
REMARK    3  A    between atoms: C_8  and  N_9
REMARK    4  A    between atoms: N_9  and  C_10
REMARK    5  A    between atoms: N_9  and  C_11
REMARK    6  A    between atoms: C_11  and  C_12
REMARK    7  A    between atoms: C_15  and  C_16
REMARK    8  A    between atoms: C_16  and  N_17
REMARK    9  A    between atoms: C_18  and  C_20
REMARK                            x       y       z     vdW  Elec       q    Type
REMARK                         _______ _______ _______ _____ _____    ______ ____
ROOT
ATOM      1  C   UNL     1      50.097   9.108  11.487  0.00  0.00    +0.000 A 
ATOM      2  C   UNL     1      49.256  10.135  11.937  0.00  0.00    +0.000 A 
ATOM      3  C   UNL     1      47.970   9.850  12.405  0.00  0.00    +0.000 A 
ATOM      4  C   UNL     1      47.501   8.531  12.442  0.00  0.00    +0.000 A 
ATOM      5  C   UNL     1      48.339   7.504  11.989  0.00  0.00    +0.000 A 
ATOM      6  C   UNL     1      49.624   7.789  11.518  0.00  0.00    +0.000 A 
ENDROOT
BRANCH   1   7
ATOM      7  C   UNL     1      51.474   9.420  10.936  0.00  0.00    +0.000 C 
BRANCH   7   8
ATOM      8  N   UNL     1      52.489   8.387  11.222  0.00  0.00    +0.000 NA
ATOM      9  C   UNL     1      52.993   8.570  12.589  0.00  0.00    +0.000 C 
BRANCH   8  10
ATOM     10  C   UNL     1      53.593   8.429  10.241  0.00  0.00    +0.000 C 
BRANCH  10  17
ATOM     11  C   UNL     1      55.041   5.800  10.769  0.00  0.00    +0.000 C 
ATOM     12  C   UNL     1      54.264   6.056   9.511  0.00  0.00    +0.000 A 
ATOM     13  N   UNL     1      54.276   5.036   8.613  0.00  0.00    +0.000 NA
ATOM     14  C   UNL     1      53.575   5.194   7.469  0.00  0.00    +0.000 A 
ATOM     15  C   UNL     1      52.847   6.326   7.166  0.00  0.00    +0.000 A 
ATOM     16  C   UNL     1      52.855   7.368   8.083  0.00  0.00    +0.000 A 
ATOM     17  C   UNL     1      53.577   7.256   9.282  0.00  0.00    +0.000 A 
ENDBRANCH  10  17
ENDBRANCH   8  10
ENDBRANCH   7   8
ENDBRANCH   1   7
BRANCH   4  18
ATOM     18  C   UNL     1      46.099   8.221  12.903  0.00  0.00    +0.000 C 
BRANCH  18  19
ATOM     19  N   UNL     1      45.735   6.866  12.568  0.00  0.00    +0.000 N 
ATOM     20  C   UNL     1      44.695   6.597  11.717  0.00  0.00    +0.000 C 
ATOM     21  O   UNL     1      44.053   7.494  11.174  0.00  0.00    +0.000 OA
ATOM     22  H   UNL     1      46.105   6.129  13.159  0.00  0.00    +0.000 HD
BRANCH  20  23
ATOM     23  C   UNL     1      44.418   5.182  11.437  0.00  0.00    +0.000 A 
ATOM     24  C   UNL     1      43.670   4.440  12.342  0.00  0.00    +0.000 A 
ATOM     25  S   UNL     1      43.401   2.830  11.850  0.00  0.00    +0.000 S 
ATOM     26  C   UNL     1      44.315   3.050  10.435  0.00  0.00    +0.000 A 
ATOM     27  N   UNL     1      44.504   2.028   9.559  0.00  0.00    +0.000 NA
ATOM     28  C   UNL     1      45.241   2.325   8.540  0.00  0.00    +0.000 A 
ATOM     29  N   UNL     1      45.800   3.559   8.316  0.00  0.00    +0.000 N 
ATOM     30  C   UNL     1      45.613   4.628   9.158  0.00  0.00    +0.000 A 
ATOM     31  O   UNL     1      46.094   5.729   8.905  0.00  0.00    +0.000 OA
ATOM     32  C   UNL     1      44.802   4.343  10.326  0.00  0.00    +0.000 A 
ATOM     33  H   UNL     1      46.361   3.729   7.495  0.00  0.00    +0.000 HD
ENDBRANCH  20  23
ENDBRANCH  18  19
ENDBRANCH   4  18
TORSDOF 7
ENDMDL
MODEL 6
REMARK VINA RESULT:    -5.390      4.657      7.225
REMARK INTER + INTRA:          -9.455
REMARK INTER:                  -8.055
REMARK INTRA:                  -1.400
REMARK UNBOUND:                -1.859
REMARK  Name = 
REMARK  9 active torsions:
REMARK  status: ('A' for Active; 'I' for Inactive)
REMARK    1  A    between atoms: C_1  and  C_2
REMARK    2  A    between atoms: C_7  and  C_8
REMARK    3  A    between atoms: C_8  and  N_9
REMARK    4  A    between atoms: N_9  and  C_10
REMARK    5  A    between atoms: N_9  and  C_11
REMARK    6  A    between atoms: C_11  and  C_12
REMARK    7  A    between atoms: C_15  and  C_16
REMARK    8  A    between atoms: C_16  and  N_17
REMARK    9  A    between atoms: C_18  and  C_20
REMARK                            x       y       z     vdW  Elec       q    Type
REMARK                         _______ _______ _______ _____ _____    ______ ____
ROOT
ATOM      1  C   UNL     1      51.281   9.814  11.443  0.00  0.00    +0.000 A 
ATOM      2  C   UNL     1      51.928   9.240  12.546  0.00  0.00    +0.000 A 
ATOM      3  C   UNL     1      51.243   8.374  13.403  0.00  0.00    +0.000 A 
ATOM      4  C   UNL     1      49.899   8.056  13.169  0.00  0.00    +0.000 A 
ATOM      5  C   UNL     1      49.250   8.632  12.070  0.00  0.00    +0.000 A 
ATOM      6  C   UNL     1      49.935   9.501  11.214  0.00  0.00    +0.000 A 
ENDROOT
BRANCH   1   7
ATOM      7  C   UNL     1      52.010  10.790  10.539  0.00  0.00    +0.000 C 
BRANCH   7   8
ATOM      8  N   UNL     1      53.195  10.223   9.867  0.00  0.00    +0.000 NA
ATOM      9  C   UNL     1      54.323  11.151  10.013  0.00  0.00    +0.000 C 
BRANCH   8  10
ATOM     10  C   UNL     1      52.924   9.938   8.444  0.00  0.00    +0.000 C 
BRANCH  10  17
ATOM     11  C   UNL     1      52.743   8.847   5.604  0.00  0.00    +0.000 C 
ATOM     12  C   UNL     1      52.913   7.959   6.802  0.00  0.00    +0.000 A 
ATOM     13  N   UNL     1      52.956   6.629   6.527  0.00  0.00    +0.000 NA
ATOM     14  C   UNL     1      53.133   5.777   7.560  0.00  0.00    +0.000 A 
ATOM     15  C   UNL     1      53.277   6.180   8.872  0.00  0.00    +0.000 A 
ATOM     16  C   UNL     1      53.215   7.540   9.143  0.00  0.00    +0.000 A 
ATOM     17  C   UNL     1      53.023   8.465   8.104  0.00  0.00    +0.000 A 
ENDBRANCH  10  17
ENDBRANCH   8  10
ENDBRANCH   7   8
ENDBRANCH   1   7
BRANCH   4  18
ATOM     18  C   UNL     1      49.141   7.159  14.115  0.00  0.00    +0.000 C 
BRANCH  18  19
ATOM     19  N   UNL     1      48.023   6.536  13.449  0.00  0.00    +0.000 N 
ATOM     20  C   UNL     1      47.414   5.422  13.967  0.00  0.00    +0.000 C 
ATOM     21  O   UNL     1      47.767   4.929  15.036  0.00  0.00    +0.000 OA
ATOM     22  H   UNL     1      47.861   6.793  12.481  0.00  0.00    +0.000 HD
BRANCH  20  23
ATOM     23  C   UNL     1      46.279   4.877  13.212  0.00  0.00    +0.000 A 
ATOM     24  C   UNL     1      46.186   3.506  13.012  0.00  0.00    +0.000 A 
ATOM     25  S   UNL     1      44.790   3.031  12.156  0.00  0.00    +0.000 S 
ATOM     26  C   UNL     1      44.283   4.643  11.978  0.00  0.00    +0.000 A 
ATOM     27  N   UNL     1      43.142   4.947  11.304  0.00  0.00    +0.000 NA
ATOM     28  C   UNL     1      42.890   6.211  11.220  0.00  0.00    +0.000 A 
ATOM     29  N   UNL     1      43.677   7.200  11.757  0.00  0.00    +0.000 N 
ATOM     30  C   UNL     1      44.821   6.939  12.470  0.00  0.00    +0.000 A 
ATOM     31  O   UNL     1      45.479   7.847  12.972  0.00  0.00    +0.000 OA
ATOM     32  C   UNL     1      45.157   5.533  12.583  0.00  0.00    +0.000 A 
ATOM     33  H   UNL     1      43.420   8.171  11.663  0.00  0.00    +0.000 HD
ENDBRANCH  20  23
ENDBRANCH  18  19
ENDBRANCH   4  18
TORSDOF 7
ENDMDL
MODEL 7
REMARK VINA RESULT:    -5.325      2.302      2.750
REMARK INTER + INTRA:          -9.363
REMARK INTER:                  -7.173
REMARK INTRA:                  -2.190
REMARK UNBOUND:                -1.859
REMARK  Name = 
REMARK  9 active torsions:
REMARK  status: ('A' for Active; 'I' for Inactive)
REMARK    1  A    between atoms: C_1  and  C_2
REMARK    2  A    between atoms: C_7  and  C_8
REMARK    3  A    between atoms: C_8  and  N_9
REMARK    4  A    between atoms: N_9  and  C_10
REMARK    5  A    between atoms: N_9  and  C_11
REMARK    6  A    between atoms: C_11  and  C_12
REMARK    7  A    between atoms: C_15  and  C_16
REMARK    8  A    between atoms: C_16  and  N_17
REMARK    9  A    between atoms: C_18  and  C_20
REMARK                            x       y       z     vdW  Elec       q    Type
REMARK                         _______ _______ _______ _____ _____    ______ ____
ROOT
ATOM      1  C   UNL     1      50.631   9.305  16.332  0.00  0.00    +0.000 A 
ATOM      2  C   UNL     1      51.289   8.615  15.305  0.00  0.00    +0.000 A 
ATOM      3  C   UNL     1      50.775   8.610  14.005  0.00  0.00    +0.000 A 
ATOM      4  C   UNL     1      49.597   9.304  13.702  0.00  0.00    +0.000 A 
ATOM      5  C   UNL     1      48.936   9.991  14.728  0.00  0.00    +0.000 A 
ATOM      6  C   UNL     1      49.449   9.993  16.029  0.00  0.00    +0.000 A 
ENDROOT
BRANCH   1   7
ATOM      7  C   UNL     1      51.163   9.273  17.751  0.00  0.00    +0.000 C 
BRANCH   7   8
ATOM      8  N   UNL     1      50.209   8.736  18.742  0.00  0.00    +0.000 NA
ATOM      9  C   UNL     1      50.150   9.643  19.896  0.00  0.00    +0.000 C 
BRANCH   8  10
ATOM     10  C   UNL     1      50.579   7.370  19.162  0.00  0.00    +0.000 C 
BRANCH  10  17
ATOM     11  C   UNL     1      51.788   5.415  17.161  0.00  0.00    +0.000 C 
ATOM     12  C   UNL     1      50.329   5.412  17.512  0.00  0.00    +0.000 A 
ATOM     13  N   UNL     1      49.582   4.489  16.852  0.00  0.00    +0.000 NA
ATOM     14  C   UNL     1      48.265   4.419  17.142  0.00  0.00    +0.000 A 
ATOM     15  C   UNL     1      47.639   5.225  18.070  0.00  0.00    +0.000 A 
ATOM     16  C   UNL     1      48.408   6.176  18.727  0.00  0.00    +0.000 A 
ATOM     17  C   UNL     1      49.780   6.295  18.453  0.00  0.00    +0.000 A 
ENDBRANCH  10  17
ENDBRANCH   8  10
ENDBRANCH   7   8
ENDBRANCH   1   7
BRANCH   4  18
ATOM     18  C   UNL     1      49.012   9.265  12.313  0.00  0.00    +0.000 C 
BRANCH  18  19
ATOM     19  N   UNL     1      48.136   8.130  12.155  0.00  0.00    +0.000 N 
ATOM     20  C   UNL     1      46.777   8.252  12.296  0.00  0.00    +0.000 C 
ATOM     21  O   UNL     1      46.244   9.335  12.525  0.00  0.00    +0.000 OA
ATOM     22  H   UNL     1      48.563   7.210  12.179  0.00  0.00    +0.000 HD
BRANCH  20  23
ATOM     23  C   UNL     1      45.981   7.033  12.103  0.00  0.00    +0.000 A 
ATOM     24  C   UNL     1      44.821   7.088  11.341  0.00  0.00    +0.000 A 
ATOM     25  S   UNL     1      44.037   5.583  11.178  0.00  0.00    +0.000 S 
ATOM     26  C   UNL     1      45.191   4.812  12.158  0.00  0.00    +0.000 A 
ATOM     27  N   UNL     1      45.091   3.487  12.445  0.00  0.00    +0.000 NA
ATOM     28  C   UNL     1      46.019   3.036  13.222  0.00  0.00    +0.000 A 
ATOM     29  N   UNL     1      47.044   3.794  13.734  0.00  0.00    +0.000 N 
ATOM     30  C   UNL     1      47.200   5.128  13.449  0.00  0.00    +0.000 A 
ATOM     31  O   UNL     1      48.153   5.765  13.890  0.00  0.00    +0.000 OA
ATOM     32  C   UNL     1      46.176   5.687  12.588  0.00  0.00    +0.000 A 
ATOM     33  H   UNL     1      47.743   3.379  14.331  0.00  0.00    +0.000 HD
ENDBRANCH  20  23
ENDBRANCH  18  19
ENDBRANCH   4  18
TORSDOF 7
ENDMDL
MODEL 8
REMARK VINA RESULT:    -5.263      3.297      8.339
REMARK INTER + INTRA:          -9.276
REMARK INTER:                  -9.164
REMARK INTRA:                  -0.112
REMARK UNBOUND:                -1.859
REMARK  Name = 
REMARK  9 active torsions:
REMARK  status: ('A' for Active; 'I' for Inactive)
REMARK    1  A    between atoms: C_1  and  C_2
REMARK    2  A    between atoms: C_7  and  C_8
REMARK    3  A    between atoms: C_8  and  N_9
REMARK    4  A    between atoms: N_9  and  C_10
REMARK    5  A    between atoms: N_9  and  C_11
REMARK    6  A    between atoms: C_11  and  C_12
REMARK    7  A    between atoms: C_15  and  C_16
REMARK    8  A    between atoms: C_16  and  N_17
REMARK    9  A    between atoms: C_18  and  C_20
REMARK                            x       y       z     vdW  Elec       q    Type
REMARK                         _______ _______ _______ _____ _____    ______ ____
ROOT
ATOM      1  C   UNL     1      44.957   5.559  12.918  0.00  0.00    +0.000 A 
ATOM      2  C   UNL     1      46.135   5.041  13.474  0.00  0.00    +0.000 A 
ATOM      3  C   UNL     1      47.321   5.780  13.448  0.00  0.00    +0.000 A 
ATOM      4  C   UNL     1      47.352   7.058  12.876  0.00  0.00    +0.000 A 
ATOM      5  C   UNL     1      46.176   7.576  12.317  0.00  0.00    +0.000 A 
ATOM      6  C   UNL     1      44.990   6.835  12.340  0.00  0.00    +0.000 A 
ENDROOT
BRANCH   1   7
ATOM      7  C   UNL     1      43.681   4.739  12.904  0.00  0.00    +0.000 C 
BRANCH   7   8
ATOM      8  N   UNL     1      43.697   3.612  11.951  0.00  0.00    +0.000 NA
ATOM      9  C   UNL     1      44.927   2.833  12.145  0.00  0.00    +0.000 C 
BRANCH   8  10
ATOM     10  C   UNL     1      43.584   4.084  10.556  0.00  0.00    +0.000 C 
BRANCH  10  17
ATOM     11  C   UNL     1      45.868   5.507   9.126  0.00  0.00    +0.000 C 
ATOM     12  C   UNL     1      45.582   4.046   8.936  0.00  0.00    +0.000 A 
ATOM     13  N   UNL     1      46.403   3.410   8.060  0.00  0.00    +0.000 NA
ATOM     14  C   UNL     1      46.214   2.088   7.863  0.00  0.00    +0.000 A 
ATOM     15  C   UNL     1      45.241   1.348   8.505  0.00  0.00    +0.000 A 
ATOM     16  C   UNL     1      44.397   2.012   9.385  0.00  0.00    +0.000 A 
ATOM     17  C   UNL     1      44.548   3.388   9.616  0.00  0.00    +0.000 A 
ENDBRANCH  10  17
ENDBRANCH   8  10
ENDBRANCH   7   8
ENDBRANCH   1   7
BRANCH   4  18
ATOM     18  C   UNL     1      48.637   7.842  12.804  0.00  0.00    +0.000 C 
BRANCH  18  19
ATOM     19  N   UNL     1      49.644   7.259  13.656  0.00  0.00    +0.000 N 
ATOM     20  C   UNL     1      49.895   7.759  14.909  0.00  0.00    +0.000 C 
ATOM     21  O   UNL     1      49.251   8.697  15.373  0.00  0.00    +0.000 OA
ATOM     22  H   UNL     1      50.316   6.638  13.219  0.00  0.00    +0.000 HD
BRANCH  20  23
ATOM     23  C   UNL     1      50.934   7.081  15.695  0.00  0.00    +0.000 A 
ATOM     24  C   UNL     1      52.260   7.469  15.553  0.00  0.00    +0.000 A 
ATOM     25  S   UNL     1      53.335   6.617  16.565  0.00  0.00    +0.000 S 
ATOM     26  C   UNL     1      52.076   5.666  17.196  0.00  0.00    +0.000 A 
ATOM     27  N   UNL     1      52.325   4.698  18.118  0.00  0.00    +0.000 NA
ATOM     28  C   UNL     1      51.282   4.033  18.491  0.00  0.00    +0.000 A 
ATOM     29  N   UNL     1      50.009   4.255  18.027  0.00  0.00    +0.000 N 
ATOM     30  C   UNL     1      49.706   5.238  17.118  0.00  0.00    +0.000 A 
ATOM     31  O   UNL     1      48.550   5.437  16.756  0.00  0.00    +0.000 OA
ATOM     32  C   UNL     1      50.846   6.008  16.657  0.00  0.00    +0.000 A 
ATOM     33  H   UNL     1      49.235   3.704  18.364  0.00  0.00    +0.000 HD
ENDBRANCH  20  23
ENDBRANCH  18  19
ENDBRANCH   4  18
TORSDOF 7
ENDMDL
MODEL 9
REMARK VINA RESULT:    -5.198      1.733      2.649
REMARK INTER + INTRA:          -9.184
REMARK INTER:                  -8.533
REMARK INTRA:                  -0.651
REMARK UNBOUND:                -1.859
REMARK  Name = 
REMARK  9 active torsions:
REMARK  status: ('A' for Active; 'I' for Inactive)
REMARK    1  A    between atoms: C_1  and  C_2
REMARK    2  A    between atoms: C_7  and  C_8
REMARK    3  A    between atoms: C_8  and  N_9
REMARK    4  A    between atoms: N_9  and  C_10
REMARK    5  A    between atoms: N_9  and  C_11
REMARK    6  A    between atoms: C_11  and  C_12
REMARK    7  A    between atoms: C_15  and  C_16
REMARK    8  A    between atoms: C_16  and  N_17
REMARK    9  A    between atoms: C_18  and  C_20
REMARK                            x       y       z     vdW  Elec       q    Type
REMARK                         _______ _______ _______ _____ _____    ______ ____
ROOT
ATOM      1  C   UNL     1      49.003   7.448  16.263  0.00  0.00    +0.000 A 
ATOM      2  C   UNL     1      48.549   6.384  15.471  0.00  0.00    +0.000 A 
ATOM      3  C   UNL     1      48.284   6.570  14.112  0.00  0.00    +0.000 A 
ATOM      4  C   UNL     1      48.476   7.821  13.512  0.00  0.00    +0.000 A 
ATOM      5  C   UNL     1      48.926   8.886  14.303  0.00  0.00    +0.000 A 
ATOM      6  C   UNL     1      49.188   8.701  15.664  0.00  0.00    +0.000 A 
ENDROOT
BRANCH   1   7
ATOM      7  C   UNL     1      49.246   7.260  17.748  0.00  0.00    +0.000 C 
BRANCH   7   8
ATOM      8  N   UNL     1      48.081   6.744  18.492  0.00  0.00    +0.000 NA
ATOM      9  C   UNL     1      47.849   7.586  19.672  0.00  0.00    +0.000 C 
BRANCH   8  10
ATOM     10  C   UNL     1      48.271   5.331  18.879  0.00  0.00    +0.000 C 
BRANCH  10  17
ATOM     11  C   UNL     1      49.905   5.495  21.446  0.00  0.00    +0.000 C 
ATOM     12  C   UNL     1      50.490   5.032  20.143  0.00  0.00    +0.000 A 
ATOM     13  N   UNL     1      51.811   4.715  20.189  0.00  0.00    +0.000 NA
ATOM     14  C   UNL     1      52.392   4.268  19.055  0.00  0.00    +0.000 A 
ATOM     15  C   UNL     1      51.721   4.111  17.859  0.00  0.00    +0.000 A 
ATOM     16  C   UNL     1      50.376   4.454  17.820  0.00  0.00    +0.000 A 
ATOM     17  C   UNL     1      49.730   4.933  18.970  0.00  0.00    +0.000 A 
ENDBRANCH  10  17
ENDBRANCH   8  10
ENDBRANCH   7   8
ENDBRANCH   1   7
BRANCH   4  18
ATOM     18  C   UNL     1      48.149   8.040  12.057  0.00  0.00    +0.000 C 
BRANCH  18  19
ATOM     19  N   UNL     1      47.495   6.883  11.497  0.00  0.00    +0.000 N 
ATOM     20  C   UNL     1      46.146   6.875  11.250  0.00  0.00    +0.000 C 
ATOM     21  O   UNL     1      45.444   7.862  11.458  0.00  0.00    +0.000 OA
ATOM     22  H   UNL     1      48.006   6.007  11.520  0.00  0.00    +0.000 HD
BRANCH  20  23
ATOM     23  C   UNL     1      45.587   5.648  10.669  0.00  0.00    +0.000 A 
ATOM     24  C   UNL     1      45.791   5.374   9.323  0.00  0.00    +0.000 A 
ATOM     25  S   UNL     1      45.117   3.893   8.816  0.00  0.00    +0.000 S 
ATOM     26  C   UNL     1      44.486   3.585  10.363  0.00  0.00    +0.000 A 
ATOM     27  N   UNL     1      43.760   2.462  10.612  0.00  0.00    +0.000 NA
ATOM     28  C   UNL     1      43.318   2.368  11.822  0.00  0.00    +0.000 A 
ATOM     29  N   UNL     1      43.543   3.296  12.809  0.00  0.00    +0.000 N 
ATOM     30  C   UNL     1      44.293   4.430  12.611  0.00  0.00    +0.000 A 
ATOM     31  O   UNL     1      44.509   5.218  13.528  0.00  0.00    +0.000 OA
ATOM     32  C   UNL     1      44.803   4.590  11.263  0.00  0.00    +0.000 A 
ATOM     33  H   UNL     1      43.175   3.160  13.738  0.00  0.00    +0.000 HD
ENDBRANCH  20  23
ENDBRANCH  18  19
ENDBRANCH   4  18
TORSDOF 7
ENDMDL
