MODEL 1
REMARK VINA RESULT:    -7.941      0.000      0.000
REMARK INTER + INTRA:         -12.043
REMARK INTER:                 -11.190
REMARK INTRA:                  -0.852
REMARK UNBOUND:                -0.852
REMARK  Name = 
REMARK  7 active torsions:
REMARK  status: ('A' for Active; 'I' for Inactive)
REMARK    1  A    between atoms: C_2  and  C_4
REMARK    2  A    between atoms: C_7  and  N_8
REMARK    3  A    between atoms: N_8  and  C_9
REMARK    4  A    between atoms: C_9  and  C_10
REMARK    5  A    between atoms: C_10  and  C_11
REMARK    6  A    between atoms: C_15  and  C_16
REMARK    7  A    between atoms: C_16  and  C_17
REMARK                            x       y       z     vdW  Elec       q    Type
REMARK                         _______ _______ _______ _____ _____    ______ ____
ROOT
ATOM      1  C   UNL     1      43.193   4.169  11.159  0.00  0.00    +0.000 C 
ENDROOT
BRANCH   1   2
ATOM      2  N   UNL     1      43.626   4.664   9.855  0.00  0.00    +0.000 N 
ATOM      3  H   UNL     1      42.875   4.927   9.223  0.00  0.00    +0.000 HD
BRANCH   2   7
ATOM      4  C   UNL     1      46.640   2.604   7.731  0.00  0.00    +0.000 A 
ATOM      5  C   UNL     1      46.592   3.999   7.677  0.00  0.00    +0.000 A 
ATOM      6  C   UNL     1      45.613   4.693   8.395  0.00  0.00    +0.000 A 
ATOM      7  C   UNL     1      44.680   4.024   9.195  0.00  0.00    +0.000 A 
ATOM      8  C   UNL     1      44.735   2.626   9.234  0.00  0.00    +0.000 A 
ATOM      9  C   UNL     1      45.701   1.915   8.504  0.00  0.00    +0.000 A 
BRANCH   4  11
ATOM     10  N   UNL     1      48.515   2.538   6.180  0.00  0.00    +0.000 N 
ATOM     11  C   UNL     1      47.631   1.830   6.943  0.00  0.00    +0.000 C 
ATOM     12  O   UNL     1      47.682   0.607   6.995  0.00  0.00    +0.000 OA
ATOM     13  H   UNL     1      49.241   2.002   5.720  0.00  0.00    +0.000 HD
ATOM     14  H   UNL     1      48.668   3.528   6.303  0.00  0.00    +0.000 HD
ENDBRANCH   4  11
ENDBRANCH   2   7
ENDBRANCH   1   2
BRANCH   1  15
ATOM     15  C   UNL     1      43.185   5.285  12.204  0.00  0.00    +0.000 C 
BRANCH  15  16
ATOM     16  C   UNL     1      44.594   5.577  12.659  0.00  0.00    +0.000 A 
ATOM     17  C   UNL     1      45.177   6.822  12.395  0.00  0.00    +0.000 A 
ATOM     18  C   UNL     1      46.455   7.115  12.868  0.00  0.00    +0.000 A 
ATOM     19  C   UNL     1      47.159   6.169  13.611  0.00  0.00    +0.000 A 
ATOM     20  C   UNL     1      46.593   4.919  13.897  0.00  0.00    +0.000 A 
ATOM     21  C   UNL     1      45.306   4.634  13.417  0.00  0.00    +0.000 A 
BRANCH  20  22
ATOM     22  C   UNL     1      47.355   3.903  14.715  0.00  0.00    +0.000 C 
BRANCH  22  23
ATOM     23  C   UNL     1      47.276   4.225  16.202  0.00  0.00    +0.000 C 
ATOM     24  C   UNL     1      48.455   4.975  16.853  0.00  0.00    +0.000 C 
ATOM     25  N   UNL     1      48.578   3.919  17.865  0.00  0.00    +0.000 NA
ATOM     26  C   UNL     1      47.651   3.053  17.130  0.00  0.00    +0.000 C 
ATOM     27  H   UNL     1      48.244   4.192  18.789  0.00  0.00    +0.000 HD
ENDBRANCH  22  23
ENDBRANCH  20  22
ENDBRANCH  15  16
ENDBRANCH   1  15
TORSDOF 7
ENDMDL
MODEL 2
REMARK VINA RESULT:    -7.846      2.205      3.336
REMARK INTER + INTRA:         -11.909
REMARK INTER:                 -10.956
REMARK INTRA:                  -0.953
REMARK UNBOUND:                -0.852
REMARK  Name = 
REMARK  7 active torsions:
REMARK  status: ('A' for Active; 'I' for Inactive)
REMARK    1  A    between atoms: C_2  and  C_4
REMARK    2  A    between atoms: C_7  and  N_8
REMARK    3  A    between atoms: N_8  and  C_9
REMARK    4  A    between atoms: C_9  and  C_10
REMARK    5  A    between atoms: C_10  and  C_11
REMARK    6  A    between atoms: C_15  and  C_16
REMARK    7  A    between atoms: C_16  and  C_17
REMARK                            x       y       z     vdW  Elec       q    Type
REMARK                         _______ _______ _______ _____ _____    ______ ____
ROOT
ATOM      1  C   UNL     1      43.165   4.606  11.245  0.00  0.00    +0.000 C 
ENDROOT
BRANCH   1   2
ATOM      2  N   UNL     1      43.698   4.947   9.929  0.00  0.00    +0.000 N 
ATOM      3  H   UNL     1      43.052   5.437   9.316  0.00  0.00    +0.000 HD
BRANCH   2   7
ATOM      4  C   UNL     1      46.252   2.224   7.953  0.00  0.00    +0.000 A 
ATOM      5  C   UNL     1      45.286   1.741   8.839  0.00  0.00    +0.000 A 
ATOM      6  C   UNL     1      44.419   2.632   9.481  0.00  0.00    +0.000 A 
ATOM      7  C   UNL     1      44.477   4.009   9.242  0.00  0.00    +0.000 A 
ATOM      8  C   UNL     1      45.456   4.480   8.360  0.00  0.00    +0.000 A 
ATOM      9  C   UNL     1      46.344   3.599   7.722  0.00  0.00    +0.000 A 
BRANCH   4  11
ATOM     10  N   UNL     1      48.266   1.894   6.627  0.00  0.00    +0.000 N 
ATOM     11  C   UNL     1      47.223   1.316   7.293  0.00  0.00    +0.000 C 
ATOM     12  O   UNL     1      47.119   0.098   7.366  0.00  0.00    +0.000 OA
ATOM     13  H   UNL     1      48.969   1.263   6.260  0.00  0.00    +0.000 HD
ATOM     14  H   UNL     1      48.524   2.861   6.754  0.00  0.00    +0.000 HD
ENDBRANCH   4  11
ENDBRANCH   2   7
ENDBRANCH   1   2
BRANCH   1  15
ATOM     15  C   UNL     1      43.454   5.706  12.266  0.00  0.00    +0.000 C 
BRANCH  15  16
ATOM     16  C   UNL     1      44.915   5.688  12.646  0.00  0.00    +0.000 A 
ATOM     17  C   UNL     1      45.417   4.675  13.471  0.00  0.00    +0.000 A 
ATOM     18  C   UNL     1      46.777   4.624  13.772  0.00  0.00    +0.000 A 
ATOM     19  C   UNL     1      47.646   5.580  13.248  0.00  0.00    +0.000 A 
ATOM     20  C   UNL     1      47.169   6.598  12.412  0.00  0.00    +0.000 A 
ATOM     21  C   UNL     1      45.799   6.641  12.114  0.00  0.00    +0.000 A 
BRANCH  20  22
ATOM     22  C   UNL     1      48.117   7.622  11.836  0.00  0.00    +0.000 C 
BRANCH  22  23
ATOM     23  C   UNL     1      49.549   7.360  12.286  0.00  0.00    +0.000 C 
ATOM     24  C   UNL     1      50.182   8.318  13.313  0.00  0.00    +0.000 C 
ATOM     25  N   UNL     1      51.315   8.552  12.410  0.00  0.00    +0.000 NA
ATOM     26  C   UNL     1      50.628   7.868  11.309  0.00  0.00    +0.000 C 
ATOM     27  H   UNL     1      52.178   8.096  12.706  0.00  0.00    +0.000 HD
ENDBRANCH  22  23
ENDBRANCH  20  22
ENDBRANCH  15  16
ENDBRANCH   1  15
TORSDOF 7
ENDMDL
MODEL 3
REMARK VINA RESULT:    -7.635      2.361      4.135
REMARK INTER + INTRA:         -11.612
REMARK INTER:                 -10.743
REMARK INTRA:                  -0.869
REMARK UNBOUND:                -0.852
REMARK  Name = 
REMARK  7 active torsions:
REMARK  status: ('A' for Active; 'I' for Inactive)
REMARK    1  A    between atoms: C_2  and  C_4
REMARK    2  A    between atoms: C_7  and  N_8
REMARK    3  A    between atoms: N_8  and  C_9
REMARK    4  A    between atoms: C_9  and  C_10
REMARK    5  A    between atoms: C_10  and  C_11
REMARK    6  A    between atoms: C_15  and  C_16
REMARK    7  A    between atoms: C_16  and  C_17
REMARK                            x       y       z     vdW  Elec       q    Type
REMARK                         _______ _______ _______ _____ _____    ______ ____
ROOT
ATOM      1  C   UNL     1      43.726   3.244  11.971  0.00  0.00    +0.000 C 
ENDROOT
BRANCH   1   2
ATOM      2  N   UNL     1      43.555   3.683  10.589  0.00  0.00    +0.000 N 
ATOM      3  H   UNL     1      42.624   3.547  10.206  0.00  0.00    +0.000 HD
BRANCH   2   7
ATOM      4  C   UNL     1      46.430   2.728   7.645  0.00  0.00    +0.000 A 
ATOM      5  C   UNL     1      46.099   4.066   7.875  0.00  0.00    +0.000 A 
ATOM      6  C   UNL     1      45.166   4.395   8.863  0.00  0.00    +0.000 A 
ATOM      7  C   UNL     1      44.561   3.413   9.655  0.00  0.00    +0.000 A 
ATOM      8  C   UNL     1      44.895   2.076   9.408  0.00  0.00    +0.000 A 
ATOM      9  C   UNL     1      45.816   1.730   8.407  0.00  0.00    +0.000 A 
BRANCH   4  11
ATOM     10  N   UNL     1      47.382   3.093   5.434  0.00  0.00    +0.000 N 
ATOM     11  C   UNL     1      47.376   2.335   6.571  0.00  0.00    +0.000 C 
ATOM     12  O   UNL     1      48.146   1.391   6.704  0.00  0.00    +0.000 OA
ATOM     13  H   UNL     1      48.094   2.868   4.750  0.00  0.00    +0.000 HD
ATOM     14  H   UNL     1      46.956   4.005   5.387  0.00  0.00    +0.000 HD
ENDBRANCH   4  11
ENDBRANCH   2   7
ENDBRANCH   1   2
BRANCH   1  15
ATOM     15  C   UNL     1      43.566   4.408  12.950  0.00  0.00    +0.000 C 
BRANCH  15  16
ATOM     16  C   UNL     1      44.864   5.170  13.064  0.00  0.00    +0.000 A 
ATOM     17  C   UNL     1      45.969   4.591  13.699  0.00  0.00    +0.000 A 
ATOM     18  C   UNL     1      47.185   5.270  13.752  0.00  0.00    +0.000 A 
ATOM     19  C   UNL     1      47.308   6.529  13.167  0.00  0.00    +0.000 A 
ATOM     20  C   UNL     1      46.219   7.126  12.517  0.00  0.00    +0.000 A 
ATOM     21  C   UNL     1      45.000   6.435  12.469  0.00  0.00    +0.000 A 
BRANCH  20  22
ATOM     22  C   UNL     1      46.363   8.484  11.873  0.00  0.00    +0.000 C 
BRANCH  22  23
ATOM     23  C   UNL     1      45.131   9.345  12.125  0.00  0.00    +0.000 C 
ATOM     24  C   UNL     1      44.077   9.461  11.007  0.00  0.00    +0.000 C 
ATOM     25  N   UNL     1      44.173  10.925  11.058  0.00  0.00    +0.000 NA
ATOM     26  C   UNL     1      45.356  10.856  11.921  0.00  0.00    +0.000 C 
ATOM     27  H   UNL     1      43.368  11.376  11.494  0.00  0.00    +0.000 HD
ENDBRANCH  22  23
ENDBRANCH  20  22
ENDBRANCH  15  16
ENDBRANCH   1  15
TORSDOF 7
ENDMDL
MODEL 4
REMARK VINA RESULT:    -7.320      2.424      2.830
REMARK INTER + INTRA:         -11.168
REMARK INTER:                 -10.101
REMARK INTRA:                  -1.067
REMARK UNBOUND:                -0.852
REMARK  Name = 
REMARK  7 active torsions:
REMARK  status: ('A' for Active; 'I' for Inactive)
REMARK    1  A    between atoms: C_2  and  C_4
REMARK    2  A    between atoms: C_7  and  N_8
REMARK    3  A    between atoms: N_8  and  C_9
REMARK    4  A    between atoms: C_9  and  C_10
REMARK    5  A    between atoms: C_10  and  C_11
REMARK    6  A    between atoms: C_15  and  C_16
REMARK    7  A    between atoms: C_16  and  C_17
REMARK                            x       y       z     vdW  Elec       q    Type
REMARK                         _______ _______ _______ _____ _____    ______ ____
ROOT
ATOM      1  C   UNL     1      43.901   3.734  12.049  0.00  0.00    +0.000 C 
ENDROOT
BRANCH   1   2
ATOM      2  N   UNL     1      43.593   3.810  10.624  0.00  0.00    +0.000 N 
ATOM      3  H   UNL     1      42.689   3.429  10.358  0.00  0.00    +0.000 HD
BRANCH   2   7
ATOM      4  C   UNL     1      46.443   2.787   7.679  0.00  0.00    +0.000 A 
ATOM      5  C   UNL     1      46.165   4.133   7.929  0.00  0.00    +0.000 A 
ATOM      6  C   UNL     1      45.241   4.484   8.918  0.00  0.00    +0.000 A 
ATOM      7  C   UNL     1      44.592   3.514   9.691  0.00  0.00    +0.000 A 
ATOM      8  C   UNL     1      44.874   2.169   9.424  0.00  0.00    +0.000 A 
ATOM      9  C   UNL     1      45.786   1.802   8.422  0.00  0.00    +0.000 A 
BRANCH   4  11
ATOM     10  N   UNL     1      47.348   3.087   5.439  0.00  0.00    +0.000 N 
ATOM     11  C   UNL     1      47.378   2.373   6.603  0.00  0.00    +0.000 C 
ATOM     12  O   UNL     1      48.170   1.451   6.757  0.00  0.00    +0.000 OA
ATOM     13  H   UNL     1      48.053   2.852   4.751  0.00  0.00    +0.000 HD
ATOM     14  H   UNL     1      46.902   3.989   5.366  0.00  0.00    +0.000 HD
ENDBRANCH   4  11
ENDBRANCH   2   7
ENDBRANCH   1   2
BRANCH   1  15
ATOM     15  C   UNL     1      43.600   5.056  12.756  0.00  0.00    +0.000 C 
BRANCH  15  16
ATOM     16  C   UNL     1      44.677   6.067  12.445  0.00  0.00    +0.000 A 
ATOM     17  C   UNL     1      44.338   7.321  11.925  0.00  0.00    +0.000 A 
ATOM     18  C   UNL     1      45.326   8.276  11.694  0.00  0.00    +0.000 A 
ATOM     19  C   UNL     1      46.659   7.988  11.986  0.00  0.00    +0.000 A 
ATOM     20  C   UNL     1      47.022   6.743  12.517  0.00  0.00    +0.000 A 
ATOM     21  C   UNL     1      46.020   5.788  12.745  0.00  0.00    +0.000 A 
BRANCH  20  22
ATOM     22  C   UNL     1      48.465   6.442  12.844  0.00  0.00    +0.000 C 
BRANCH  22  23
ATOM     23  C   UNL     1      49.270   7.725  13.013  0.00  0.00    +0.000 C 
ATOM     24  C   UNL     1      50.511   7.933  12.123  0.00  0.00    +0.000 C 
ATOM     25  N   UNL     1      51.337   8.159  13.316  0.00  0.00    +0.000 NA
ATOM     26  C   UNL     1      50.255   7.709  14.198  0.00  0.00    +0.000 C 
ATOM     27  H   UNL     1      51.604   9.134  13.453  0.00  0.00    +0.000 HD
ENDBRANCH  22  23
ENDBRANCH  20  22
ENDBRANCH  15  16
ENDBRANCH   1  15
TORSDOF 7
ENDMDL
MODEL 5
REMARK VINA RESULT:    -7.196      2.931      7.851
REMARK INTER + INTRA:         -10.993
REMARK INTER:                 -10.255
REMARK INTRA:                  -0.738
REMARK UNBOUND:                -0.852
REMARK  Name = 
REMARK  7 active torsions:
REMARK  status: ('A' for Active; 'I' for Inactive)
REMARK    1  A    between atoms: C_2  and  C_4
REMARK    2  A    between atoms: C_7  and  N_8
REMARK    3  A    between atoms: N_8  and  C_9
REMARK    4  A    between atoms: C_9  and  C_10
REMARK    5  A    between atoms: C_10  and  C_11
REMARK    6  A    between atoms: C_15  and  C_16
REMARK    7  A    between atoms: C_16  and  C_17
REMARK                            x       y       z     vdW  Elec       q    Type
REMARK                         _______ _______ _______ _____ _____    ______ ____
ROOT
ATOM      1  C   UNL     1      47.133   6.611  11.621  0.00  0.00    +0.000 C 
ENDROOT
BRANCH   1   2
ATOM      2  N   UNL     1      47.435   7.095  12.964  0.00  0.00    +0.000 N 
ATOM      3  H   UNL     1      48.109   7.855  13.007  0.00  0.00    +0.000 HD
BRANCH   2   7
ATOM      4  C   UNL     1      47.851   4.480  16.255  0.00  0.00    +0.000 A 
ATOM      5  C   UNL     1      47.062   4.097  15.168  0.00  0.00    +0.000 A 
ATOM      6  C   UNL     1      46.936   4.945  14.062  0.00  0.00    +0.000 A 
ATOM      7  C   UNL     1      47.604   6.173  14.003  0.00  0.00    +0.000 A 
ATOM      8  C   UNL     1      48.384   6.548  15.102  0.00  0.00    +0.000 A 
ATOM      9  C   UNL     1      48.504   5.715  16.226  0.00  0.00    +0.000 A 
BRANCH   4  11
ATOM     10  N   UNL     1      46.954   2.749  17.713  0.00  0.00    +0.000 N 
ATOM     11  C   UNL     1      47.968   3.632  17.467  0.00  0.00    +0.000 C 
ATOM     12  O   UNL     1      48.944   3.692  18.204  0.00  0.00    +0.000 OA
ATOM     13  H   UNL     1      47.092   2.115  18.492  0.00  0.00    +0.000 HD
ATOM     14  H   UNL     1      46.274   2.495  17.014  0.00  0.00    +0.000 HD
ENDBRANCH   4  11
ENDBRANCH   2   7
ENDBRANCH   1   2
BRANCH   1  15
ATOM     15  C   UNL     1      45.628   6.600  11.356  0.00  0.00    +0.000 C 
BRANCH  15  16
ATOM     16  C   UNL     1      45.222   5.290  10.725  0.00  0.00    +0.000 A 
ATOM     17  C   UNL     1      44.424   4.383  11.432  0.00  0.00    +0.000 A 
ATOM     18  C   UNL     1      43.999   3.201  10.828  0.00  0.00    +0.000 A 
ATOM     19  C   UNL     1      44.364   2.918   9.513  0.00  0.00    +0.000 A 
ATOM     20  C   UNL     1      45.154   3.814   8.781  0.00  0.00    +0.000 A 
ATOM     21  C   UNL     1      45.577   5.002   9.398  0.00  0.00    +0.000 A 
BRANCH  20  22
ATOM     22  C   UNL     1      45.534   3.509   7.352  0.00  0.00    +0.000 C 
BRANCH  22  23
ATOM     23  C   UNL     1      46.942   2.931   7.269  0.00  0.00    +0.000 C 
ATOM     24  C   UNL     1      47.531   2.635   5.876  0.00  0.00    +0.000 C 
ATOM     25  N   UNL     1      47.807   1.250   6.278  0.00  0.00    +0.000 NA
ATOM     26  C   UNL     1      47.022   1.410   7.506  0.00  0.00    +0.000 C 
ATOM     27  H   UNL     1      48.795   1.057   6.441  0.00  0.00    +0.000 HD
ENDBRANCH  22  23
ENDBRANCH  20  22
ENDBRANCH  15  16
ENDBRANCH   1  15
TORSDOF 7
ENDMDL
MODEL 6
REMARK VINA RESULT:    -7.014      3.295      7.560
REMARK INTER + INTRA:         -10.737
REMARK INTER:                 -10.022
REMARK INTRA:                  -0.715
REMARK UNBOUND:                -0.852
REMARK  Name = 
REMARK  7 active torsions:
REMARK  status: ('A' for Active; 'I' for Inactive)
REMARK    1  A    between atoms: C_2  and  C_4
REMARK    2  A    between atoms: C_7  and  N_8
REMARK    3  A    between atoms: N_8  and  C_9
REMARK    4  A    between atoms: C_9  and  C_10
REMARK    5  A    between atoms: C_10  and  C_11
REMARK    6  A    between atoms: C_15  and  C_16
REMARK    7  A    between atoms: C_16  and  C_17
REMARK                            x       y       z     vdW  Elec       q    Type
REMARK                         _______ _______ _______ _____ _____    ______ ____
ROOT
ATOM      1  C   UNL     1      44.120   6.708  11.044  0.00  0.00    +0.000 C 
ENDROOT
BRANCH   1   2
ATOM      2  N   UNL     1      44.454   7.223  12.368  0.00  0.00    +0.000 N 
ATOM      3  H   UNL     1      43.961   8.070  12.638  0.00  0.00    +0.000 HD
BRANCH   2   7
ATOM      4  C   UNL     1      48.410   7.325  13.843  0.00  0.00    +0.000 A 
ATOM      5  C   UNL     1      47.863   6.109  13.426  0.00  0.00    +0.000 A 
ATOM      6  C   UNL     1      46.562   6.067  12.914  0.00  0.00    +0.000 A 
ATOM      7  C   UNL     1      45.789   7.226  12.785  0.00  0.00    +0.000 A 
ATOM      8  C   UNL     1      46.346   8.436  13.215  0.00  0.00    +0.000 A 
ATOM      9  C   UNL     1      47.644   8.490  13.748  0.00  0.00    +0.000 A 
BRANCH   4  11
ATOM     10  N   UNL     1      50.812   7.630  13.590  0.00  0.00    +0.000 N 
ATOM     11  C   UNL     1      49.767   7.402  14.440  0.00  0.00    +0.000 C 
ATOM     12  O   UNL     1      49.947   7.299  15.647  0.00  0.00    +0.000 OA
ATOM     13  H   UNL     1      51.718   7.771  14.021  0.00  0.00    +0.000 HD
ATOM     14  H   UNL     1      50.683   7.965  12.647  0.00  0.00    +0.000 HD
ENDBRANCH   4  11
ENDBRANCH   2   7
ENDBRANCH   1   2
BRANCH   1  15
ATOM     15  C   UNL     1      43.280   5.433  11.136  0.00  0.00    +0.000 C 
BRANCH  15  16
ATOM     16  C   UNL     1      43.960   4.311  10.389  0.00  0.00    +0.000 A 
ATOM     17  C   UNL     1      43.707   2.979  10.734  0.00  0.00    +0.000 A 
ATOM     18  C   UNL     1      44.287   1.942  10.006  0.00  0.00    +0.000 A 
ATOM     19  C   UNL     1      45.121   2.227   8.926  0.00  0.00    +0.000 A 
ATOM     20  C   UNL     1      45.383   3.552   8.555  0.00  0.00    +0.000 A 
ATOM     21  C   UNL     1      44.794   4.590   9.294  0.00  0.00    +0.000 A 
BRANCH  20  22
ATOM     22  C   UNL     1      46.275   3.855   7.375  0.00  0.00    +0.000 C 
BRANCH  22  23
ATOM     23  C   UNL     1      46.633   2.583   6.616  0.00  0.00    +0.000 C 
ATOM     24  C   UNL     1      47.967   1.885   6.946  0.00  0.00    +0.000 C 
ATOM     25  N   UNL     1      48.349   1.929   5.529  0.00  0.00    +0.000 NA
ATOM     26  C   UNL     1      47.229   2.823   5.215  0.00  0.00    +0.000 C 
ATOM     27  H   UNL     1      48.300   1.024   5.061  0.00  0.00    +0.000 HD
ENDBRANCH  22  23
ENDBRANCH  20  22
ENDBRANCH  15  16
ENDBRANCH   1  15
TORSDOF 7
ENDMDL
MODEL 7
REMARK VINA RESULT:    -6.881      3.081      4.123
REMARK INTER + INTRA:         -10.549
REMARK INTER:                  -9.789
REMARK INTRA:                  -0.760
REMARK UNBOUND:                -0.852
REMARK  Name = 
REMARK  7 active torsions:
REMARK  status: ('A' for Active; 'I' for Inactive)
REMARK    1  A    between atoms: C_2  and  C_4
REMARK    2  A    between atoms: C_7  and  N_8
REMARK    3  A    between atoms: N_8  and  C_9
REMARK    4  A    between atoms: C_9  and  C_10
REMARK    5  A    between atoms: C_10  and  C_11
REMARK    6  A    between atoms: C_15  and  C_16
REMARK    7  A    between atoms: C_16  and  C_17
REMARK                            x       y       z     vdW  Elec       q    Type
REMARK                         _______ _______ _______ _____ _____    ______ ____
ROOT
ATOM      1  C   UNL     1      44.486   6.046  10.687  0.00  0.00    +0.000 C 
ENDROOT
BRANCH   1   2
ATOM      2  N   UNL     1      43.956   4.758  10.252  0.00  0.00    +0.000 N 
ATOM      3  H   UNL     1      43.500   4.212  10.978  0.00  0.00    +0.000 HD
BRANCH   2   7
ATOM      4  C   UNL     1      46.445   2.470   7.720  0.00  0.00    +0.000 A 
ATOM      5  C   UNL     1      45.613   1.821   8.634  0.00  0.00    +0.000 A 
ATOM      6  C   UNL     1      44.767   2.567   9.461  0.00  0.00    +0.000 A 
ATOM      7  C   UNL     1      44.713   3.964   9.384  0.00  0.00    +0.000 A 
ATOM      8  C   UNL     1      45.559   4.601   8.469  0.00  0.00    +0.000 A 
ATOM      9  C   UNL     1      46.426   3.866   7.646  0.00  0.00    +0.000 A 
BRANCH   4  11
ATOM     10  N   UNL     1      48.468   2.400   6.366  0.00  0.00    +0.000 N 
ATOM     11  C   UNL     1      47.394   1.717   6.862  0.00  0.00    +0.000 C 
ATOM     12  O   UNL     1      47.245   0.523   6.630  0.00  0.00    +0.000 OA
ATOM     13  H   UNL     1      49.153   1.853   5.860  0.00  0.00    +0.000 HD
ATOM     14  H   UNL     1      48.758   3.295   6.730  0.00  0.00    +0.000 HD
ENDBRANCH   4  11
ENDBRANCH   2   7
ENDBRANCH   1   2
BRANCH   1  15
ATOM     15  C   UNL     1      45.163   5.939  12.053  0.00  0.00    +0.000 C 
BRANCH  15  16
ATOM     16  C   UNL     1      46.187   7.038  12.211  0.00  0.00    +0.000 A 
ATOM     17  C   UNL     1      45.858   8.216  12.891  0.00  0.00    +0.000 A 
ATOM     18  C   UNL     1      46.820   9.205  13.089  0.00  0.00    +0.000 A 
ATOM     19  C   UNL     1      48.118   9.022  12.615  0.00  0.00    +0.000 A 
ATOM     20  C   UNL     1      48.474   7.847  11.940  0.00  0.00    +0.000 A 
ATOM     21  C   UNL     1      47.499   6.858  11.745  0.00  0.00    +0.000 A 
BRANCH  20  22
ATOM     22  C   UNL     1      49.886   7.649  11.441  0.00  0.00    +0.000 C 
BRANCH  22  23
ATOM     23  C   UNL     1      50.726   8.902  11.655  0.00  0.00    +0.000 C 
ATOM     24  C   UNL     1      51.870   9.194  10.666  0.00  0.00    +0.000 C 
ATOM     25  N   UNL     1      52.820   9.290  11.781  0.00  0.00    +0.000 NA
ATOM     26  C   UNL     1      51.829   8.757  12.722  0.00  0.00    +0.000 C 
ATOM     27  H   UNL     1      53.117  10.243  11.989  0.00  0.00    +0.000 HD
ENDBRANCH  22  23
ENDBRANCH  20  22
ENDBRANCH  15  16
ENDBRANCH   1  15
TORSDOF 7
ENDMDL
MODEL 8
REMARK VINA RESULT:    -6.704      3.933      7.889
REMARK INTER + INTRA:         -10.300
REMARK INTER:                  -9.608
REMARK INTRA:                  -0.692
REMARK UNBOUND:                -0.852
REMARK  Name = 
REMARK  7 active torsions:
REMARK  status: ('A' for Active; 'I' for Inactive)
REMARK    1  A    between atoms: C_2  and  C_4
REMARK    2  A    between atoms: C_7  and  N_8
REMARK    3  A    between atoms: N_8  and  C_9
REMARK    4  A    between atoms: C_9  and  C_10
REMARK    5  A    between atoms: C_10  and  C_11
REMARK    6  A    between atoms: C_15  and  C_16
REMARK    7  A    between atoms: C_16  and  C_17
REMARK                            x       y       z     vdW  Elec       q    Type
REMARK                         _______ _______ _______ _____ _____    ______ ____
ROOT
ATOM      1  C   UNL     1      45.966   6.170  12.534  0.00  0.00    +0.000 C 
ENDROOT
BRANCH   1   2
ATOM      2  N   UNL     1      46.074   7.436  13.253  0.00  0.00    +0.000 N 
ATOM      3  H   UNL     1      45.225   7.738  13.723  0.00  0.00    +0.000 HD
BRANCH   2   7
ATOM      4  C   UNL     1      48.218  10.500  11.290  0.00  0.00    +0.000 A 
ATOM      5  C   UNL     1      46.874  10.698  11.610  0.00  0.00    +0.000 A 
ATOM      6  C   UNL     1      46.160   9.700  12.281  0.00  0.00    +0.000 A 
ATOM      7  C   UNL     1      46.767   8.500  12.666  0.00  0.00    +0.000 A 
ATOM      8  C   UNL     1      48.112   8.310  12.332  0.00  0.00    +0.000 A 
ATOM      9  C   UNL     1      48.836   9.296  11.642  0.00  0.00    +0.000 A 
BRANCH   4  11
ATOM     10  N   UNL     1      48.419  12.029   9.407  0.00  0.00    +0.000 N 
ATOM     11  C   UNL     1      48.995  11.513  10.533  0.00  0.00    +0.000 C 
ATOM     12  O   UNL     1      50.094  11.899  10.913  0.00  0.00    +0.000 OA
ATOM     13  H   UNL     1      48.921  12.784   8.953  0.00  0.00    +0.000 HD
ATOM     14  H   UNL     1      47.437  11.929   9.204  0.00  0.00    +0.000 HD
ENDBRANCH   4  11
ENDBRANCH   2   7
ENDBRANCH   1   2
BRANCH   1  15
ATOM     15  C   UNL     1      44.776   6.174  11.574  0.00  0.00    +0.000 C 
BRANCH  15  16
ATOM     16  C   UNL     1      44.861   4.990  10.641  0.00  0.00    +0.000 A 
ATOM     17  C   UNL     1      44.124   3.830  10.904  0.00  0.00    +0.000 A 
ATOM     18  C   UNL     1      44.155   2.760  10.012  0.00  0.00    +0.000 A 
ATOM     19  C   UNL     1      44.918   2.842   8.848  0.00  0.00    +0.000 A 
ATOM     20  C   UNL     1      45.657   3.996   8.557  0.00  0.00    +0.000 A 
ATOM     21  C   UNL     1      45.619   5.068   9.461  0.00  0.00    +0.000 A 
BRANCH  20  22
ATOM     22  C   UNL     1      46.470   4.085   7.288  0.00  0.00    +0.000 C 
BRANCH  22  23
ATOM     23  C   UNL     1      46.686   2.706   6.676  0.00  0.00    +0.000 C 
ATOM     24  C   UNL     1      48.002   1.966   6.985  0.00  0.00    +0.000 C 
ATOM     25  N   UNL     1      48.258   1.805   5.548  0.00  0.00    +0.000 NA
ATOM     26  C   UNL     1      47.167   2.726   5.212  0.00  0.00    +0.000 C 
ATOM     27  H   UNL     1      48.117   0.854   5.208  0.00  0.00    +0.000 HD
ENDBRANCH  22  23
ENDBRANCH  20  22
ENDBRANCH  15  16
ENDBRANCH   1  15
TORSDOF 7
ENDMDL
MODEL 9
REMARK VINA RESULT:    -6.610      3.341      8.285
REMARK INTER + INTRA:         -10.168
REMARK INTER:                  -9.720
REMARK INTRA:                  -0.448
REMARK UNBOUND:                -0.852
REMARK  Name = 
REMARK  7 active torsions:
REMARK  status: ('A' for Active; 'I' for Inactive)
REMARK    1  A    between atoms: C_2  and  C_4
REMARK    2  A    between atoms: C_7  and  N_8
REMARK    3  A    between atoms: N_8  and  C_9
REMARK    4  A    between atoms: C_9  and  C_10
REMARK    5  A    between atoms: C_10  and  C_11
REMARK    6  A    between atoms: C_15  and  C_16
REMARK    7  A    between atoms: C_16  and  C_17
REMARK                            x       y       z     vdW  Elec       q    Type
REMARK                         _______ _______ _______ _____ _____    ______ ____
ROOT
ATOM      1  C   UNL     1      46.976   3.910  14.372  0.00  0.00    +0.000 C 
ENDROOT
BRANCH   1   2
ATOM      2  N   UNL     1      46.961   3.793  15.827  0.00  0.00    +0.000 N 
ATOM      3  H   UNL     1      46.293   4.394  16.301  0.00  0.00    +0.000 HD
BRANCH   2   7
ATOM      4  C   UNL     1      50.721   3.392  17.710  0.00  0.00    +0.000 A 
ATOM      5  C   UNL     1      50.141   4.657  17.596  0.00  0.00    +0.000 A 
ATOM      6  C   UNL     1      48.885   4.799  16.996  0.00  0.00    +0.000 A 
ATOM      7  C   UNL     1      48.174   3.693  16.518  0.00  0.00    +0.000 A 
ATOM      8  C   UNL     1      48.771   2.432  16.631  0.00  0.00    +0.000 A 
ATOM      9  C   UNL     1      50.038   2.277  17.215  0.00  0.00    +0.000 A 
BRANCH   4  11
ATOM     10  N   UNL     1      52.533   1.926  18.413  0.00  0.00    +0.000 N 
ATOM     11  C   UNL     1      52.073   3.207  18.293  0.00  0.00    +0.000 C 
ATOM     12  O   UNL     1      52.768   4.159  18.627  0.00  0.00    +0.000 OA
ATOM     13  H   UNL     1      53.491   1.821  18.726  0.00  0.00    +0.000 HD
ATOM     14  H   UNL     1      52.110   1.149  17.929  0.00  0.00    +0.000 HD
ENDBRANCH   4  11
ENDBRANCH   2   7
ENDBRANCH   1   2
BRANCH   1  15
ATOM     15  C   UNL     1      46.283   5.191  13.909  0.00  0.00    +0.000 C 
BRANCH  15  16
ATOM     16  C   UNL     1      45.193   4.861  12.917  0.00  0.00    +0.000 A 
ATOM     17  C   UNL     1      43.932   5.457  13.030  0.00  0.00    +0.000 A 
ATOM     18  C   UNL     1      42.945   5.198  12.081  0.00  0.00    +0.000 A 
ATOM     19  C   UNL     1      43.212   4.347  11.010  0.00  0.00    +0.000 A 
ATOM     20  C   UNL     1      44.469   3.746  10.870  0.00  0.00    +0.000 A 
ATOM     21  C   UNL     1      45.456   4.012  11.830  0.00  0.00    +0.000 A 
BRANCH  20  22
ATOM     22  C   UNL     1      44.757   2.836   9.699  0.00  0.00    +0.000 C 
BRANCH  22  23
ATOM     23  C   UNL     1      44.947   3.635   8.415  0.00  0.00    +0.000 C 
ATOM     24  C   UNL     1      45.929   3.097   7.357  0.00  0.00    +0.000 C 
ATOM     25  N   UNL     1      46.647   4.378   7.359  0.00  0.00    +0.000 NA
ATOM     26  C   UNL     1      45.911   4.831   8.545  0.00  0.00    +0.000 C 
ATOM     27  H   UNL     1      46.481   4.945   6.528  0.00  0.00    +0.000 HD
ENDBRANCH  22  23
ENDBRANCH  20  22
ENDBRANCH  15  16
ENDBRANCH   1  15
TORSDOF 7
ENDMDL
