MODEL 1
REMARK VINA RESULT:    -8.297      0.000      0.000
REMARK INTER + INTRA:         -11.394
REMARK INTER:                 -10.237
REMARK INTRA:                  -1.157
REMARK UNBOUND:                -1.157
REMARK  Name = 
REMARK  4 active torsions:
REMARK  status: ('A' for Active; 'I' for Inactive)
REMARK    1  A    between atoms: C_7  and  N_8
REMARK    2  A    between atoms: N_8  and  C_9
REMARK    3  A    between atoms: C_9  and  C_10
REMARK    4  A    between atoms: C_14  and  C_15
REMARK                            x       y       z     vdW  Elec       q    Type
REMARK                         _______ _______ _______ _____ _____    ______ ____
ROOT
ATOM      1  C   UNL     1      44.091   5.119  11.120  0.00  0.00    +0.000 A 
ATOM      2  C   UNL     1      43.301   4.218  11.843  0.00  0.00    +0.000 A 
ATOM      3  C   UNL     1      43.301   2.864  11.516  0.00  0.00    +0.000 A 
ATOM      4  C   UNL     1      44.088   2.401  10.457  0.00  0.00    +0.000 A 
ATOM      5  C   UNL     1      44.889   3.273   9.700  0.00  0.00    +0.000 A 
ATOM      6  C   UNL     1      44.897   4.630  10.076  0.00  0.00    +0.000 A 
ENDROOT
BRANCH   5   7
ATOM      7  C   UNL     1      45.614   2.814   8.491  0.00  0.00    +0.000 A 
ATOM      8  C   UNL     1      45.890   3.703   7.435  0.00  0.00    +0.000 A 
ATOM      9  C   UNL     1      46.656   3.316   6.330  0.00  0.00    +0.000 A 
ATOM     10  C   UNL     1      47.172   2.028   6.260  0.00  0.00    +0.000 A 
ATOM     11  C   UNL     1      46.901   1.120   7.279  0.00  0.00    +0.000 A 
ATOM     12  C   UNL     1      46.121   1.507   8.376  0.00  0.00    +0.000 A 
ENDBRANCH   5   7
BRANCH   1  13
ATOM     13  C   UNL     1      44.010   6.603  11.394  0.00  0.00    +0.000 C 
BRANCH  13  14
ATOM     14  N   UNL     1      44.712   6.946  12.617  0.00  0.00    +0.000 N 
ATOM     15  H   UNL     1      44.228   6.633  13.452  0.00  0.00    +0.000 HD
BRANCH  14  22
ATOM     16 CL   UNL     1      46.367   4.405  13.968  0.00  0.00    +0.000 Cl
ATOM     17  C   UNL     1      46.929   5.848  13.208  0.00  0.00    +0.000 A 
ATOM     18  N   UNL     1      48.287   5.845  13.179  0.00  0.00    +0.000 NA
ATOM     19  C   UNL     1      48.897   6.906  12.624  0.00  0.00    +0.000 A 
ATOM     20  C   UNL     1      48.212   7.982  12.097  0.00  0.00    +0.000 A 
ATOM     21  C   UNL     1      46.815   7.960  12.149  0.00  0.00    +0.000 A 
ATOM     22  C   UNL     1      46.107   6.890  12.730  0.00  0.00    +0.000 A 
ENDBRANCH  14  22
ENDBRANCH  13  14
ENDBRANCH   1  13
TORSDOF 4
ENDMDL
MODEL 2
REMARK VINA RESULT:    -7.428      2.994      6.278
REMARK INTER + INTRA:         -10.321
REMARK INTER:                  -9.533
REMARK INTRA:                  -0.789
REMARK UNBOUND:                -1.157
REMARK  Name = 
REMARK  4 active torsions:
REMARK  status: ('A' for Active; 'I' for Inactive)
REMARK    1  A    between atoms: C_7  and  N_8
REMARK    2  A    between atoms: N_8  and  C_9
REMARK    3  A    between atoms: C_9  and  C_10
REMARK    4  A    between atoms: C_14  and  C_15
REMARK                            x       y       z     vdW  Elec       q    Type
REMARK                         _______ _______ _______ _____ _____    ______ ____
ROOT
ATOM      1  C   UNL     1      44.178   3.671  10.542  0.00  0.00    +0.000 A 
ATOM      2  C   UNL     1      43.545   3.121  11.663  0.00  0.00    +0.000 A 
ATOM      3  C   UNL     1      43.623   3.760  12.897  0.00  0.00    +0.000 A 
ATOM      4  C   UNL     1      44.342   4.953  13.023  0.00  0.00    +0.000 A 
ATOM      5  C   UNL     1      44.999   5.535  11.925  0.00  0.00    +0.000 A 
ATOM      6  C   UNL     1      44.873   4.885  10.681  0.00  0.00    +0.000 A 
ENDROOT
BRANCH   5   7
ATOM      7  C   UNL     1      45.877   6.718  12.079  0.00  0.00    +0.000 A 
ATOM      8  C   UNL     1      47.259   6.630  11.827  0.00  0.00    +0.000 A 
ATOM      9  C   UNL     1      48.088   7.756  11.871  0.00  0.00    +0.000 A 
ATOM     10  C   UNL     1      47.550   9.003  12.164  0.00  0.00    +0.000 A 
ATOM     11  C   UNL     1      46.191   9.120  12.438  0.00  0.00    +0.000 A 
ATOM     12  C   UNL     1      45.367   7.988  12.406  0.00  0.00    +0.000 A 
ENDBRANCH   5   7
BRANCH   1  13
ATOM     13  C   UNL     1      44.194   2.926   9.227  0.00  0.00    +0.000 C 
BRANCH  13  14
ATOM     14  N   UNL     1      45.349   2.051   9.137  0.00  0.00    +0.000 N 
ATOM     15  H   UNL     1      45.156   1.108   9.458  0.00  0.00    +0.000 HD
BRANCH  14  22
ATOM     16 CL   UNL     1      46.821  -0.619   7.824  0.00  0.00    +0.000 Cl
ATOM     17  C   UNL     1      46.884   1.045   7.376  0.00  0.00    +0.000 A 
ATOM     18  N   UNL     1      47.669   1.189   6.276  0.00  0.00    +0.000 NA
ATOM     19  C   UNL     1      47.836   2.431   5.792  0.00  0.00    +0.000 A 
ATOM     20  C   UNL     1      47.257   3.547   6.359  0.00  0.00    +0.000 A 
ATOM     21  C   UNL     1      46.460   3.369   7.495  0.00  0.00    +0.000 A 
ATOM     22  C   UNL     1      46.254   2.100   8.070  0.00  0.00    +0.000 A 
ENDBRANCH  14  22
ENDBRANCH  13  14
ENDBRANCH   1  13
TORSDOF 4
ENDMDL
MODEL 3
REMARK VINA RESULT:    -7.167      2.553      6.273
REMARK INTER + INTRA:         -10.000
REMARK INTER:                  -9.316
REMARK INTRA:                  -0.683
REMARK UNBOUND:                -1.157
REMARK  Name = 
REMARK  4 active torsions:
REMARK  status: ('A' for Active; 'I' for Inactive)
REMARK    1  A    between atoms: C_7  and  N_8
REMARK    2  A    between atoms: N_8  and  C_9
REMARK    3  A    between atoms: C_9  and  C_10
REMARK    4  A    between atoms: C_14  and  C_15
REMARK                            x       y       z     vdW  Elec       q    Type
REMARK                         _______ _______ _______ _____ _____    ______ ____
ROOT
ATOM      1  C   UNL     1      44.965   4.960  10.907  0.00  0.00    +0.000 A 
ATOM      2  C   UNL     1      45.083   4.045  11.959  0.00  0.00    +0.000 A 
ATOM      3  C   UNL     1      45.906   4.328  13.046  0.00  0.00    +0.000 A 
ATOM      4  C   UNL     1      46.624   5.527  13.087  0.00  0.00    +0.000 A 
ATOM      5  C   UNL     1      46.540   6.469  12.047  0.00  0.00    +0.000 A 
ATOM      6  C   UNL     1      45.672   6.173  10.977  0.00  0.00    +0.000 A 
ENDROOT
BRANCH   5   7
ATOM      7  C   UNL     1      47.404   7.673  12.014  0.00  0.00    +0.000 A 
ATOM      8  C   UNL     1      48.770   7.573  11.693  0.00  0.00    +0.000 A 
ATOM      9  C   UNL     1      49.579   8.707  11.561  0.00  0.00    +0.000 A 
ATOM     10  C   UNL     1      49.036   9.973  11.741  0.00  0.00    +0.000 A 
ATOM     11  C   UNL     1      47.692  10.104  12.079  0.00  0.00    +0.000 A 
ATOM     12  C   UNL     1      46.889   8.966  12.223  0.00  0.00    +0.000 A 
ENDBRANCH   5   7
BRANCH   1  13
ATOM     13  C   UNL     1      44.165   4.612   9.673  0.00  0.00    +0.000 C 
BRANCH  13  14
ATOM     14  N   UNL     1      45.014   4.565   8.496  0.00  0.00    +0.000 N 
ATOM     15  H   UNL     1      45.479   5.448   8.310  0.00  0.00    +0.000 HD
BRANCH  14  22
ATOM     16 CL   UNL     1      44.394   1.487   9.575  0.00  0.00    +0.000 Cl
ATOM     17  C   UNL     1      45.596   2.089   8.494  0.00  0.00    +0.000 A 
ATOM     18  N   UNL     1      46.352   1.057   8.037  0.00  0.00    +0.000 NA
ATOM     19  C   UNL     1      47.347   1.349   7.183  0.00  0.00    +0.000 A 
ATOM     20  C   UNL     1      47.632   2.632   6.764  0.00  0.00    +0.000 A 
ATOM     21  C   UNL     1      46.842   3.674   7.257  0.00  0.00    +0.000 A 
ATOM     22  C   UNL     1      45.792   3.448   8.168  0.00  0.00    +0.000 A 
ENDBRANCH  14  22
ENDBRANCH  13  14
ENDBRANCH   1  13
TORSDOF 4
ENDMDL
MODEL 4
REMARK VINA RESULT:    -7.032      3.027      3.768
REMARK INTER + INTRA:          -9.834
REMARK INTER:                  -9.221
REMARK INTRA:                  -0.613
REMARK UNBOUND:                -1.157
REMARK  Name = 
REMARK  4 active torsions:
REMARK  status: ('A' for Active; 'I' for Inactive)
REMARK    1  A    between atoms: C_7  and  N_8
REMARK    2  A    between atoms: N_8  and  C_9
REMARK    3  A    between atoms: C_9  and  C_10
REMARK    4  A    between atoms: C_14  and  C_15
REMARK                            x       y       z     vdW  Elec       q    Type
REMARK                         _______ _______ _______ _____ _____    ______ ____
ROOT
ATOM      1  C   UNL     1      44.545   5.933  11.208  0.00  0.00    +0.000 A 
ATOM      2  C   UNL     1      43.471   5.327  11.869  0.00  0.00    +0.000 A 
ATOM      3  C   UNL     1      43.105   4.019  11.563  0.00  0.00    +0.000 A 
ATOM      4  C   UNL     1      43.808   3.307  10.585  0.00  0.00    +0.000 A 
ATOM      5  C   UNL     1      44.887   3.881   9.891  0.00  0.00    +0.000 A 
ATOM      6  C   UNL     1      45.258   5.193  10.247  0.00  0.00    +0.000 A 
ENDROOT
BRANCH   5   7
ATOM      7  C   UNL     1      45.544   3.187   8.758  0.00  0.00    +0.000 A 
ATOM      8  C   UNL     1      46.059   3.912   7.668  0.00  0.00    +0.000 A 
ATOM      9  C   UNL     1      46.768   3.285   6.637  0.00  0.00    +0.000 A 
ATOM     10  C   UNL     1      46.985   1.913   6.678  0.00  0.00    +0.000 A 
ATOM     11  C   UNL     1      46.471   1.166   7.733  0.00  0.00    +0.000 A 
ATOM     12  C   UNL     1      45.750   1.795   8.755  0.00  0.00    +0.000 A 
ENDBRANCH   5   7
BRANCH   1  13
ATOM     13  C   UNL     1      44.876   7.387  11.452  0.00  0.00    +0.000 C 
BRANCH  13  14
ATOM     14  N   UNL     1      43.784   8.248  11.035  0.00  0.00    +0.000 N 
ATOM     15  H   UNL     1      42.876   7.905  11.329  0.00  0.00    +0.000 HD
BRANCH  14  22
ATOM     16 CL   UNL     1      41.212  10.287  10.538  0.00  0.00    +0.000 Cl
ATOM     17  C   UNL     1      42.861  10.616  10.920  0.00  0.00    +0.000 A 
ATOM     18  N   UNL     1      43.038  11.957  11.046  0.00  0.00    +0.000 NA
ATOM     19  C   UNL     1      44.275  12.394  11.337  0.00  0.00    +0.000 A 
ATOM     20  C   UNL     1      45.354  11.551  11.506  0.00  0.00    +0.000 A 
ATOM     21  C   UNL     1      45.143  10.176  11.363  0.00  0.00    +0.000 A 
ATOM     22  C   UNL     1      43.878   9.645  11.041  0.00  0.00    +0.000 A 
ENDBRANCH  14  22
ENDBRANCH  13  14
ENDBRANCH   1  13
TORSDOF 4
ENDMDL
MODEL 5
REMARK VINA RESULT:    -6.798      2.872      6.738
REMARK INTER + INTRA:          -9.544
REMARK INTER:                  -8.657
REMARK INTRA:                  -0.886
REMARK UNBOUND:                -1.157
REMARK  Name = 
REMARK  4 active torsions:
REMARK  status: ('A' for Active; 'I' for Inactive)
REMARK    1  A    between atoms: C_7  and  N_8
REMARK    2  A    between atoms: N_8  and  C_9
REMARK    3  A    between atoms: C_9  and  C_10
REMARK    4  A    between atoms: C_14  and  C_15
REMARK                            x       y       z     vdW  Elec       q    Type
REMARK                         _______ _______ _______ _____ _____    ______ ____
ROOT
ATOM      1  C   UNL     1      45.604   6.007  12.366  0.00  0.00    +0.000 A 
ATOM      2  C   UNL     1      46.498   6.847  11.691  0.00  0.00    +0.000 A 
ATOM      3  C   UNL     1      47.788   7.036  12.178  0.00  0.00    +0.000 A 
ATOM      4  C   UNL     1      48.195   6.392  13.351  0.00  0.00    +0.000 A 
ATOM      5  C   UNL     1      47.326   5.547  14.064  0.00  0.00    +0.000 A 
ATOM      6  C   UNL     1      46.039   5.345  13.528  0.00  0.00    +0.000 A 
ENDROOT
BRANCH   5   7
ATOM      7  C   UNL     1      47.701   4.975  15.379  0.00  0.00    +0.000 A 
ATOM      8  C   UNL     1      48.428   5.733  16.316  0.00  0.00    +0.000 A 
ATOM      9  C   UNL     1      48.706   5.247  17.598  0.00  0.00    +0.000 A 
ATOM     10  C   UNL     1      48.256   3.988  17.976  0.00  0.00    +0.000 A 
ATOM     11  C   UNL     1      47.551   3.206  17.066  0.00  0.00    +0.000 A 
ATOM     12  C   UNL     1      47.287   3.691  15.779  0.00  0.00    +0.000 A 
ENDBRANCH   5   7
BRANCH   1  13
ATOM     13  C   UNL     1      44.170   5.885  11.908  0.00  0.00    +0.000 C 
BRANCH  13  14
ATOM     14  N   UNL     1      44.098   5.625  10.482  0.00  0.00    +0.000 N 
ATOM     15  H   UNL     1      44.267   6.453   9.920  0.00  0.00    +0.000 HD
BRANCH  14  22
ATOM     16 CL   UNL     1      43.279   2.568  11.486  0.00  0.00    +0.000 Cl
ATOM     17  C   UNL     1      44.270   3.105  10.180  0.00  0.00    +0.000 A 
ATOM     18  N   UNL     1      44.725   2.030   9.486  0.00  0.00    +0.000 NA
ATOM     19  C   UNL     1      45.524   2.267   8.431  0.00  0.00    +0.000 A 
ATOM     20  C   UNL     1      45.897   3.534   8.035  0.00  0.00    +0.000 A 
ATOM     21  C   UNL     1      45.419   4.621   8.774  0.00  0.00    +0.000 A 
ATOM     22  C   UNL     1      44.592   4.450   9.901  0.00  0.00    +0.000 A 
ENDBRANCH  14  22
ENDBRANCH  13  14
ENDBRANCH   1  13
TORSDOF 4
ENDMDL
MODEL 6
REMARK VINA RESULT:    -6.731      1.714      2.186
REMARK INTER + INTRA:          -9.461
REMARK INTER:                  -8.638
REMARK INTRA:                  -0.823
REMARK UNBOUND:                -1.157
REMARK  Name = 
REMARK  4 active torsions:
REMARK  status: ('A' for Active; 'I' for Inactive)
REMARK    1  A    between atoms: C_7  and  N_8
REMARK    2  A    between atoms: N_8  and  C_9
REMARK    3  A    between atoms: C_9  and  C_10
REMARK    4  A    between atoms: C_14  and  C_15
REMARK                            x       y       z     vdW  Elec       q    Type
REMARK                         _______ _______ _______ _____ _____    ______ ____
ROOT
ATOM      1  C   UNL     1      44.466   3.967  12.028  0.00  0.00    +0.000 A 
ATOM      2  C   UNL     1      43.557   4.985  11.716  0.00  0.00    +0.000 A 
ATOM      3  C   UNL     1      43.269   5.286  10.388  0.00  0.00    +0.000 A 
ATOM      4  C   UNL     1      43.894   4.576   9.358  0.00  0.00    +0.000 A 
ATOM      5  C   UNL     1      44.819   3.552   9.627  0.00  0.00    +0.000 A 
ATOM      6  C   UNL     1      45.063   3.244  10.980  0.00  0.00    +0.000 A 
ENDROOT
BRANCH   5   7
ATOM      7  C   UNL     1      45.588   2.892   8.546  0.00  0.00    +0.000 A 
ATOM      8  C   UNL     1      46.132   3.642   7.486  0.00  0.00    +0.000 A 
ATOM      9  C   UNL     1      46.943   3.054   6.510  0.00  0.00    +0.000 A 
ATOM     10  C   UNL     1      47.236   1.697   6.576  0.00  0.00    +0.000 A 
ATOM     11  C   UNL     1      46.698   0.925   7.600  0.00  0.00    +0.000 A 
ATOM     12  C   UNL     1      45.875   1.515   8.567  0.00  0.00    +0.000 A 
ENDBRANCH   5   7
BRANCH   1  13
ATOM     13  C   UNL     1      44.869   3.710  13.461  0.00  0.00    +0.000 C 
BRANCH  13  14
ATOM     14  N   UNL     1      46.313   3.636  13.592  0.00  0.00    +0.000 N 
ATOM     15  H   UNL     1      46.767   3.269  12.762  0.00  0.00    +0.000 HD
BRANCH  14  22
ATOM     16 CL   UNL     1      47.408   3.371  16.715  0.00  0.00    +0.000 Cl
ATOM     17  C   UNL     1      47.649   4.601  15.529  0.00  0.00    +0.000 A 
ATOM     18  N   UNL     1      48.456   5.568  16.038  0.00  0.00    +0.000 NA
ATOM     19  C   UNL     1      48.745   6.614  15.246  0.00  0.00    +0.000 A 
ATOM     20  C   UNL     1      48.260   6.746  13.961  0.00  0.00    +0.000 A 
ATOM     21  C   UNL     1      47.425   5.738  13.468  0.00  0.00    +0.000 A 
ATOM     22  C   UNL     1      47.065   4.620  14.246  0.00  0.00    +0.000 A 
ENDBRANCH  14  22
ENDBRANCH  13  14
ENDBRANCH   1  13
TORSDOF 4
ENDMDL
MODEL 7
REMARK VINA RESULT:    -6.417      2.084      2.450
REMARK INTER + INTRA:          -9.074
REMARK INTER:                  -8.386
REMARK INTRA:                  -0.688
REMARK UNBOUND:                -1.157
REMARK  Name = 
REMARK  4 active torsions:
REMARK  status: ('A' for Active; 'I' for Inactive)
REMARK    1  A    between atoms: C_7  and  N_8
REMARK    2  A    between atoms: N_8  and  C_9
REMARK    3  A    between atoms: C_9  and  C_10
REMARK    4  A    between atoms: C_14  and  C_15
REMARK                            x       y       z     vdW  Elec       q    Type
REMARK                         _______ _______ _______ _____ _____    ______ ____
ROOT
ATOM      1  C   UNL     1      44.656   6.251  11.508  0.00  0.00    +0.000 A 
ATOM      2  C   UNL     1      43.447   5.790  12.043  0.00  0.00    +0.000 A 
ATOM      3  C   UNL     1      42.917   4.570  11.633  0.00  0.00    +0.000 A 
ATOM      4  C   UNL     1      43.589   3.802  10.675  0.00  0.00    +0.000 A 
ATOM      5  C   UNL     1      44.800   4.232  10.106  0.00  0.00    +0.000 A 
ATOM      6  C   UNL     1      45.331   5.453  10.567  0.00  0.00    +0.000 A 
ENDROOT
BRANCH   5   7
ATOM      7  C   UNL     1      45.443   3.496   8.992  0.00  0.00    +0.000 A 
ATOM      8  C   UNL     1      46.036   4.185   7.918  0.00  0.00    +0.000 A 
ATOM      9  C   UNL     1      46.733   3.513   6.908  0.00  0.00    +0.000 A 
ATOM     10  C   UNL     1      46.858   2.130   6.953  0.00  0.00    +0.000 A 
ATOM     11  C   UNL     1      46.265   1.418   7.991  0.00  0.00    +0.000 A 
ATOM     12  C   UNL     1      45.557   2.093   8.993  0.00  0.00    +0.000 A 
ENDBRANCH   5   7
BRANCH   1  13
ATOM     13  C   UNL     1      45.179   7.623  11.863  0.00  0.00    +0.000 C 
BRANCH  13  14
ATOM     14  N   UNL     1      46.612   7.591  12.094  0.00  0.00    +0.000 N 
ATOM     15  H   UNL     1      47.054   6.759  11.719  0.00  0.00    +0.000 HD
BRANCH  14  22
ATOM     16 CL   UNL     1      49.902   7.518  11.653  0.00  0.00    +0.000 Cl
ATOM     17  C   UNL     1      48.800   8.842  11.750  0.00  0.00    +0.000 A 
ATOM     18  N   UNL     1      49.477  10.008  11.580  0.00  0.00    +0.000 NA
ATOM     19  C   UNL     1      48.769  11.148  11.633  0.00  0.00    +0.000 A 
ATOM     20  C   UNL     1      47.408  11.183  11.855  0.00  0.00    +0.000 A 
ATOM     21  C   UNL     1      46.740   9.968  12.034  0.00  0.00    +0.000 A 
ATOM     22  C   UNL     1      47.417   8.734  12.009  0.00  0.00    +0.000 A 
ENDBRANCH  14  22
ENDBRANCH  13  14
ENDBRANCH   1  13
TORSDOF 4
ENDMDL
MODEL 8
REMARK VINA RESULT:    -6.391      2.988      4.720
REMARK INTER + INTRA:          -9.042
REMARK INTER:                  -8.325
REMARK INTRA:                  -0.717
REMARK UNBOUND:                -1.157
REMARK  Name = 
REMARK  4 active torsions:
REMARK  status: ('A' for Active; 'I' for Inactive)
REMARK    1  A    between atoms: C_7  and  N_8
REMARK    2  A    between atoms: N_8  and  C_9
REMARK    3  A    between atoms: C_9  and  C_10
REMARK    4  A    between atoms: C_14  and  C_15
REMARK                            x       y       z     vdW  Elec       q    Type
REMARK                         _______ _______ _______ _____ _____    ______ ____
ROOT
ATOM      1  C   UNL     1      47.153   6.821  13.308  0.00  0.00    +0.000 A 
ATOM      2  C   UNL     1      46.557   8.086  13.248  0.00  0.00    +0.000 A 
ATOM      3  C   UNL     1      45.506   8.326  12.366  0.00  0.00    +0.000 A 
ATOM      4  C   UNL     1      45.046   7.303  11.531  0.00  0.00    +0.000 A 
ATOM      5  C   UNL     1      45.622   6.020  11.554  0.00  0.00    +0.000 A 
ATOM      6  C   UNL     1      46.658   5.796  12.481  0.00  0.00    +0.000 A 
ENDROOT
BRANCH   5   7
ATOM      7  C   UNL     1      45.236   4.975  10.577  0.00  0.00    +0.000 A 
ATOM      8  C   UNL     1      45.642   5.060   9.232  0.00  0.00    +0.000 A 
ATOM      9  C   UNL     1      45.372   4.036   8.317  0.00  0.00    +0.000 A 
ATOM     10  C   UNL     1      44.693   2.896   8.730  0.00  0.00    +0.000 A 
ATOM     11  C   UNL     1      44.262   2.792  10.049  0.00  0.00    +0.000 A 
ATOM     12  C   UNL     1      44.522   3.824  10.958  0.00  0.00    +0.000 A 
ENDBRANCH   5   7
BRANCH   1  13
ATOM     13  C   UNL     1      48.365   6.584  14.178  0.00  0.00    +0.000 C 
BRANCH  13  14
ATOM     14  N   UNL     1      47.985   6.427  15.571  0.00  0.00    +0.000 N 
ATOM     15  H   UNL     1      47.064   6.799  15.773  0.00  0.00    +0.000 HD
BRANCH  14  22
ATOM     16 CL   UNL     1      50.859   5.982  17.173  0.00  0.00    +0.000 Cl
ATOM     17  C   UNL     1      49.439   5.005  17.098  0.00  0.00    +0.000 A 
ATOM     18  N   UNL     1      49.605   3.904  17.877  0.00  0.00    +0.000 NA
ATOM     19  C   UNL     1      48.592   3.024  17.929  0.00  0.00    +0.000 A 
ATOM     20  C   UNL     1      47.412   3.187  17.233  0.00  0.00    +0.000 A 
ATOM     21  C   UNL     1      47.273   4.326  16.435  0.00  0.00    +0.000 A 
ATOM     22  C   UNL     1      48.299   5.284  16.316  0.00  0.00    +0.000 A 
ENDBRANCH  14  22
ENDBRANCH  13  14
ENDBRANCH   1  13
TORSDOF 4
ENDMDL
MODEL 9
REMARK VINA RESULT:    -5.806      3.280      5.909
REMARK INTER + INTRA:          -8.320
REMARK INTER:                  -7.465
REMARK INTRA:                  -0.855
REMARK UNBOUND:                -1.157
REMARK  Name = 
REMARK  4 active torsions:
REMARK  status: ('A' for Active; 'I' for Inactive)
REMARK    1  A    between atoms: C_7  and  N_8
REMARK    2  A    between atoms: N_8  and  C_9
REMARK    3  A    between atoms: C_9  and  C_10
REMARK    4  A    between atoms: C_14  and  C_15
REMARK                            x       y       z     vdW  Elec       q    Type
REMARK                         _______ _______ _______ _____ _____    ______ ____
ROOT
ATOM      1  C   UNL     1      48.549   7.037  13.816  0.00  0.00    +0.000 A 
ATOM      2  C   UNL     1      49.168   7.713  12.758  0.00  0.00    +0.000 A 
ATOM      3  C   UNL     1      48.600   7.697  11.487  0.00  0.00    +0.000 A 
ATOM      4  C   UNL     1      47.410   6.998  11.261  0.00  0.00    +0.000 A 
ATOM      5  C   UNL     1      46.761   6.299  12.294  0.00  0.00    +0.000 A 
ATOM      6  C   UNL     1      47.339   6.363  13.577  0.00  0.00    +0.000 A 
ENDROOT
BRANCH   5   7
ATOM      7  C   UNL     1      45.581   5.442  12.033  0.00  0.00    +0.000 A 
ATOM      8  C   UNL     1      44.864   4.857  13.094  0.00  0.00    +0.000 A 
ATOM      9  C   UNL     1      43.692   4.126  12.875  0.00  0.00    +0.000 A 
ATOM     10  C   UNL     1      43.203   3.968  11.584  0.00  0.00    +0.000 A 
ATOM     11  C   UNL     1      43.899   4.517  10.512  0.00  0.00    +0.000 A 
ATOM     12  C   UNL     1      45.080   5.236  10.734  0.00  0.00    +0.000 A 
ENDBRANCH   5   7
BRANCH   1  13
ATOM     13  C   UNL     1      49.217   6.954  15.169  0.00  0.00    +0.000 C 
BRANCH  13  14
ATOM     14  N   UNL     1      48.293   6.467  16.178  0.00  0.00    +0.000 N 
ATOM     15  H   UNL     1      47.327   6.703  15.976  0.00  0.00    +0.000 HD
BRANCH  14  22
ATOM     16 CL   UNL     1      50.981   5.557  17.900  0.00  0.00    +0.000 Cl
ATOM     17  C   UNL     1      49.488   4.743  17.617  0.00  0.00    +0.000 A 
ATOM     18  N   UNL     1      49.492   3.550  18.267  0.00  0.00    +0.000 NA
ATOM     19  C   UNL     1      48.400   2.776  18.148  0.00  0.00    +0.000 A 
ATOM     20  C   UNL     1      47.297   3.135  17.401  0.00  0.00    +0.000 A 
ATOM     21  C   UNL     1      47.325   4.365  16.737  0.00  0.00    +0.000 A 
ATOM     22  C   UNL     1      48.441   5.222  16.801  0.00  0.00    +0.000 A 
ENDBRANCH  14  22
ENDBRANCH  13  14
ENDBRANCH   1  13
TORSDOF 4
ENDMDL
