MODEL 1
REMARK VINA RESULT:    -8.446      0.000      0.000
REMARK INTER + INTRA:         -13.102
REMARK INTER:                 -11.903
REMARK INTRA:                  -1.199
REMARK UNBOUND:                -1.199
REMARK  Name = 
REMARK  12 active torsions:
REMARK  status: ('A' for Active; 'I' for Inactive)
REMARK    1  A    between atoms: C_1  and  C_2
REMARK    2  A    between atoms: C_4  and  C_5
REMARK    3  A    between atoms: C_5  and  C_6
REMARK    4  A    between atoms: C_5  and  C_7
REMARK    5  A    between atoms: C_5  and  C_8
REMARK    6  A    between atoms: C_8  and  O_9
REMARK    7  A    between atoms: O_9  and  C_10
REMARK    8  A    between atoms: C_13  and  C_14
REMARK    9  A    between atoms: C_20  and  C_21
REMARK   10  A    between atoms: C_22  and  O_23
REMARK   11  A    between atoms: O_23  and  C_24
REMARK   12  A    between atoms: N_26  and  C_27
REMARK                            x       y       z     vdW  Elec       q    Type
REMARK                         _______ _______ _______ _____ _____    ______ ____
ROOT
ATOM      1  C   UNL     1      43.700   5.258  12.014  0.00  0.00    +0.000 C 
ATOM      2  C   UNL     1      42.813   4.856  13.207  0.00  0.00    +0.000 C 
ATOM      3  C   UNL     1      43.162   6.544  11.356  0.00  0.00    +0.000 C 
ENDROOT
BRANCH   1   7
ATOM      4  C   UNL     1      47.279   4.212  15.337  0.00  0.00    +0.000 C 
ATOM      5  C   UNL     1      46.973   5.034  14.115  0.00  0.00    +0.000 A 
ATOM      6  C   UNL     1      45.660   4.866  13.630  0.00  0.00    +0.000 A 
ATOM      7  C   UNL     1      45.146   5.510  12.495  0.00  0.00    +0.000 A 
ATOM      8  C   UNL     1      46.016   6.369  11.820  0.00  0.00    +0.000 A 
ATOM      9  C   UNL     1      47.330   6.587  12.282  0.00  0.00    +0.000 A 
ATOM     10  C   UNL     1      48.213   7.536  11.509  0.00  0.00    +0.000 C 
ATOM     11  C   UNL     1      47.815   5.926  13.440  0.00  0.00    +0.000 A 
BRANCH  11  12
ATOM     12  O   UNL     1      49.062   6.366  13.821  0.00  0.00    +0.000 OA
BRANCH  12  13
ATOM     13  C   UNL     1      49.301   7.201  14.970  0.00  0.00    +0.000 C 
ATOM     14  C   UNL     1      50.188   8.439  14.671  0.00  0.00    +0.000 C 
ATOM     15  N   UNL     1      51.163   8.018  15.687  0.00  0.00    +0.000 NA
ATOM     16  C   UNL     1      51.142   8.936  16.824  0.00  0.00    +0.000 C 
ATOM     17  C   UNL     1      50.396   6.795  15.975  0.00  0.00    +0.000 C 
ENDBRANCH  12  13
ENDBRANCH  11  12
ENDBRANCH   1   7
BRANCH   1  18
ATOM     18  C   UNL     1      43.646   4.111  10.965  0.00  0.00    +0.000 C 
BRANCH  18  19
ATOM     19  O   UNL     1      43.661   4.546   9.600  0.00  0.00    +0.000 OA
BRANCH  19  20
ATOM     20  C   UNL     1      44.688   3.913   8.915  0.00  0.00    +0.000 A 
ATOM     21  C   UNL     1      44.811   2.543   9.076  0.00  0.00    +0.000 A 
ATOM     22  C   UNL     1      45.817   1.882   8.368  0.00  0.00    +0.000 A 
ATOM     23  C   UNL     1      46.655   2.612   7.527  0.00  0.00    +0.000 A 
ATOM     24  C   UNL     1      46.458   3.976   7.428  0.00  0.00    +0.000 A 
ATOM     25  N   UNL     1      45.499   4.642   8.114  0.00  0.00    +0.000 NA
BRANCH  23  26
ATOM     26  C   UNL     1      47.723   1.995   6.702  0.00  0.00    +0.000 C 
ATOM     27  N   UNL     1      48.261   2.758   5.704  0.00  0.00    +0.000 N 
ATOM     28  O   UNL     1      48.090   0.850   6.899  0.00  0.00    +0.000 OA
ATOM     29  H   UNL     1      47.859   3.623   5.384  0.00  0.00    +0.000 HD
ATOM     30  H   UNL     1      48.940   2.302   5.105  0.00  0.00    +0.000 HD
ENDBRANCH  23  26
ENDBRANCH  19  20
ENDBRANCH  18  19
ENDBRANCH   1  18
TORSDOF 7
ENDMDL
MODEL 2
REMARK VINA RESULT:    -8.208      1.209      2.256
REMARK INTER + INTRA:         -12.766
REMARK INTER:                 -11.634
REMARK INTRA:                  -1.132
REMARK UNBOUND:                -1.199
REMARK  Name = 
REMARK  12 active torsions:
REMARK  status: ('A' for Active; 'I' for Inactive)
REMARK    1  A    between atoms: C_1  and  C_2
REMARK    2  A    between atoms: C_4  and  C_5
REMARK    3  A    between atoms: C_5  and  C_6
REMARK    4  A    between atoms: C_5  and  C_7
REMARK    5  A    between atoms: C_5  and  C_8
REMARK    6  A    between atoms: C_8  and  O_9
REMARK    7  A    between atoms: O_9  and  C_10
REMARK    8  A    between atoms: C_13  and  C_14
REMARK    9  A    between atoms: C_20  and  C_21
REMARK   10  A    between atoms: C_22  and  O_23
REMARK   11  A    between atoms: O_23  and  C_24
REMARK   12  A    between atoms: N_26  and  C_27
REMARK                            x       y       z     vdW  Elec       q    Type
REMARK                         _______ _______ _______ _____ _____    ______ ____
ROOT
ATOM      1  C   UNL     1      44.010   4.545  12.226  0.00  0.00    +0.000 C 
ATOM      2  C   UNL     1      43.870   3.055  12.591  0.00  0.00    +0.000 C 
ATOM      3  C   UNL     1      42.882   5.365  12.881  0.00  0.00    +0.000 C 
ENDROOT
BRANCH   1   7
ATOM      4  C   UNL     1      47.932   7.515  11.365  0.00  0.00    +0.000 C 
ATOM      5  C   UNL     1      47.353   6.542  12.355  0.00  0.00    +0.000 A 
ATOM      6  C   UNL     1      46.115   5.996  11.958  0.00  0.00    +0.000 A 
ATOM      7  C   UNL     1      45.372   5.082  12.720  0.00  0.00    +0.000 A 
ATOM      8  C   UNL     1      45.919   4.706  13.948  0.00  0.00    +0.000 A 
ATOM      9  C   UNL     1      47.166   5.206  14.375  0.00  0.00    +0.000 A 
ATOM     10  C   UNL     1      47.702   4.749  15.709  0.00  0.00    +0.000 C 
ATOM     11  C   UNL     1      47.897   6.123  13.575  0.00  0.00    +0.000 A 
BRANCH  11  12
ATOM     12  O   UNL     1      49.147   6.391  14.081  0.00  0.00    +0.000 OA
BRANCH  12  13
ATOM     13  C   UNL     1      49.489   7.611  14.766  0.00  0.00    +0.000 C 
ATOM     14  C   UNL     1      48.303   8.602  14.909  0.00  0.00    +0.000 C 
ATOM     15  N   UNL     1      49.057   9.647  14.204  0.00  0.00    +0.000 NA
ATOM     16  C   UNL     1      49.415  10.727  15.123  0.00  0.00    +0.000 C 
ATOM     17  C   UNL     1      50.193   8.736  13.984  0.00  0.00    +0.000 C 
ENDBRANCH  12  13
ENDBRANCH  11  12
ENDBRANCH   1   7
BRANCH   1  18
ATOM     18  C   UNL     1      43.878   4.676  10.682  0.00  0.00    +0.000 C 
BRANCH  18  19
ATOM     19  O   UNL     1      43.580   3.452  10.000  0.00  0.00    +0.000 OA
BRANCH  19  20
ATOM     20  C   UNL     1      44.591   3.156   9.097  0.00  0.00    +0.000 A 
ATOM     21  C   UNL     1      45.105   4.204   8.351  0.00  0.00    +0.000 A 
ATOM     22  C   UNL     1      46.147   3.934   7.461  0.00  0.00    +0.000 A 
ATOM     23  C   UNL     1      46.637   2.634   7.356  0.00  0.00    +0.000 A 
ATOM     24  C   UNL     1      46.064   1.651   8.141  0.00  0.00    +0.000 A 
ATOM     25  N   UNL     1      45.044   1.885   9.001  0.00  0.00    +0.000 NA
BRANCH  23  26
ATOM     26  C   UNL     1      47.768   2.256   6.473  0.00  0.00    +0.000 C 
ATOM     27  N   UNL     1      47.869   2.907   5.275  0.00  0.00    +0.000 N 
ATOM     28  O   UNL     1      48.560   1.390   6.797  0.00  0.00    +0.000 OA
ATOM     29  H   UNL     1      47.138   3.478   4.887  0.00  0.00    +0.000 HD
ATOM     30  H   UNL     1      48.603   2.591   4.652  0.00  0.00    +0.000 HD
ENDBRANCH  23  26
ENDBRANCH  19  20
ENDBRANCH  18  19
ENDBRANCH   1  18
TORSDOF 7
ENDMDL
MODEL 3
REMARK VINA RESULT:    -7.994      2.242      2.948
REMARK INTER + INTRA:         -12.464
REMARK INTER:                 -11.441
REMARK INTRA:                  -1.023
REMARK UNBOUND:                -1.199
REMARK  Name = 
REMARK  12 active torsions:
REMARK  status: ('A' for Active; 'I' for Inactive)
REMARK    1  A    between atoms: C_1  and  C_2
REMARK    2  A    between atoms: C_4  and  C_5
REMARK    3  A    between atoms: C_5  and  C_6
REMARK    4  A    between atoms: C_5  and  C_7
REMARK    5  A    between atoms: C_5  and  C_8
REMARK    6  A    between atoms: C_8  and  O_9
REMARK    7  A    between atoms: O_9  and  C_10
REMARK    8  A    between atoms: C_13  and  C_14
REMARK    9  A    between atoms: C_20  and  C_21
REMARK   10  A    between atoms: C_22  and  O_23
REMARK   11  A    between atoms: O_23  and  C_24
REMARK   12  A    between atoms: N_26  and  C_27
REMARK                            x       y       z     vdW  Elec       q    Type
REMARK                         _______ _______ _______ _____ _____    ______ ____
ROOT
ATOM      1  C   UNL     1      44.375   4.666  12.239  0.00  0.00    +0.000 C 
ATOM      2  C   UNL     1      45.241   3.408  12.434  0.00  0.00    +0.000 C 
ATOM      3  C   UNL     1      43.160   4.632  13.187  0.00  0.00    +0.000 C 
ENDROOT
BRANCH   1   7
ATOM      4  C   UNL     1      48.562   6.595  14.160  0.00  0.00    +0.000 C 
ATOM      5  C   UNL     1      47.272   6.958  13.478  0.00  0.00    +0.000 A 
ATOM      6  C   UNL     1      46.450   5.849  13.188  0.00  0.00    +0.000 A 
ATOM      7  C   UNL     1      45.209   5.931  12.540  0.00  0.00    +0.000 A 
ATOM      8  C   UNL     1      44.783   7.209  12.170  0.00  0.00    +0.000 A 
ATOM      9  C   UNL     1      45.560   8.349  12.461  0.00  0.00    +0.000 A 
ATOM     10  C   UNL     1      45.035   9.699  12.040  0.00  0.00    +0.000 C 
ATOM     11  C   UNL     1      46.808   8.231  13.127  0.00  0.00    +0.000 A 
BRANCH  11  12
ATOM     12  O   UNL     1      47.354   9.450  13.452  0.00  0.00    +0.000 OA
BRANCH  12  13
ATOM     13  C   UNL     1      48.561   9.970  12.861  0.00  0.00    +0.000 C 
ATOM     14  C   UNL     1      48.375  11.345  12.165  0.00  0.00    +0.000 C 
ATOM     15  N   UNL     1      48.859  10.795  10.891  0.00  0.00    +0.000 NA
ATOM     16  C   UNL     1      50.162  11.365  10.551  0.00  0.00    +0.000 C 
ATOM     17  C   UNL     1      49.000   9.452  11.478  0.00  0.00    +0.000 C 
ENDBRANCH  12  13
ENDBRANCH  11  12
ENDBRANCH   1   7
BRANCH   1  18
ATOM     18  C   UNL     1      43.853   4.669  10.774  0.00  0.00    +0.000 C 
BRANCH  18  19
ATOM     19  O   UNL     1      43.645   3.369  10.209  0.00  0.00    +0.000 OA
BRANCH  19  20
ATOM     20  C   UNL     1      44.614   3.111   9.251  0.00  0.00    +0.000 A 
ATOM     21  C   UNL     1      45.112   4.192   8.541  0.00  0.00    +0.000 A 
ATOM     22  C   UNL     1      46.112   3.958   7.595  0.00  0.00    +0.000 A 
ATOM     23  C   UNL     1      46.579   2.659   7.399  0.00  0.00    +0.000 A 
ATOM     24  C   UNL     1      46.024   1.642   8.153  0.00  0.00    +0.000 A 
ATOM     25  N   UNL     1      45.045   1.842   9.066  0.00  0.00    +0.000 NA
BRANCH  23  26
ATOM     26  C   UNL     1      47.666   2.317   6.450  0.00  0.00    +0.000 C 
ATOM     27  N   UNL     1      47.777   3.084   5.324  0.00  0.00    +0.000 N 
ATOM     28  O   UNL     1      48.415   1.380   6.659  0.00  0.00    +0.000 OA
ATOM     29  H   UNL     1      47.070   3.732   5.018  0.00  0.00    +0.000 HD
ATOM     30  H   UNL     1      48.478   2.797   4.651  0.00  0.00    +0.000 HD
ENDBRANCH  23  26
ENDBRANCH  19  20
ENDBRANCH  18  19
ENDBRANCH   1  18
TORSDOF 7
ENDMDL
MODEL 4
REMARK VINA RESULT:    -7.567      1.682      2.397
REMARK INTER + INTRA:         -11.863
REMARK INTER:                 -10.661
REMARK INTRA:                  -1.202
REMARK UNBOUND:                -1.199
REMARK  Name = 
REMARK  12 active torsions:
REMARK  status: ('A' for Active; 'I' for Inactive)
REMARK    1  A    between atoms: C_1  and  C_2
REMARK    2  A    between atoms: C_4  and  C_5
REMARK    3  A    between atoms: C_5  and  C_6
REMARK    4  A    between atoms: C_5  and  C_7
REMARK    5  A    between atoms: C_5  and  C_8
REMARK    6  A    between atoms: C_8  and  O_9
REMARK    7  A    between atoms: O_9  and  C_10
REMARK    8  A    between atoms: C_13  and  C_14
REMARK    9  A    between atoms: C_20  and  C_21
REMARK   10  A    between atoms: C_22  and  O_23
REMARK   11  A    between atoms: O_23  and  C_24
REMARK   12  A    between atoms: N_26  and  C_27
REMARK                            x       y       z     vdW  Elec       q    Type
REMARK                         _______ _______ _______ _____ _____    ______ ____
ROOT
ATOM      1  C   UNL     1      43.938   5.055  12.016  0.00  0.00    +0.000 C 
ATOM      2  C   UNL     1      43.366   4.755  13.415  0.00  0.00    +0.000 C 
ATOM      3  C   UNL     1      42.821   5.551  11.077  0.00  0.00    +0.000 C 
ENDROOT
BRANCH   1   7
ATOM      4  C   UNL     1      45.037   9.926  12.063  0.00  0.00    +0.000 C 
ATOM      5  C   UNL     1      45.645   8.554  12.148  0.00  0.00    +0.000 A 
ATOM      6  C   UNL     1      44.706   7.507  12.046  0.00  0.00    +0.000 A 
ATOM      7  C   UNL     1      45.029   6.144  12.115  0.00  0.00    +0.000 A 
ATOM      8  C   UNL     1      46.377   5.832  12.298  0.00  0.00    +0.000 A 
ATOM      9  C   UNL     1      47.356   6.844  12.380  0.00  0.00    +0.000 A 
ATOM     10  C   UNL     1      48.795   6.434  12.568  0.00  0.00    +0.000 C 
ATOM     11  C   UNL     1      46.995   8.214  12.296  0.00  0.00    +0.000 A 
BRANCH  11  12
ATOM     12  O   UNL     1      48.088   9.049  12.253  0.00  0.00    +0.000 OA
BRANCH  12  13
ATOM     13  C   UNL     1      48.550   9.823  13.378  0.00  0.00    +0.000 C 
ATOM     14  C   UNL     1      50.043   9.587  13.728  0.00  0.00    +0.000 C 
ATOM     15  N   UNL     1      49.686   9.176  15.092  0.00  0.00    +0.000 NA
ATOM     16  C   UNL     1      50.136  10.174  16.061  0.00  0.00    +0.000 C 
ATOM     17  C   UNL     1      48.249   9.323  14.803  0.00  0.00    +0.000 C 
ENDBRANCH  12  13
ENDBRANCH  11  12
ENDBRANCH   1   7
BRANCH   1  18
ATOM     18  C   UNL     1      44.512   3.731  11.437  0.00  0.00    +0.000 C 
BRANCH  18  19
ATOM     19  O   UNL     1      43.835   3.242  10.274  0.00  0.00    +0.000 OA
BRANCH  19  20
ATOM     20  C   UNL     1      44.753   2.997   9.262  0.00  0.00    +0.000 A 
ATOM     21  C   UNL     1      45.198   4.085   8.529  0.00  0.00    +0.000 A 
ATOM     22  C   UNL     1      46.147   3.865   7.529  0.00  0.00    +0.000 A 
ATOM     23  C   UNL     1      46.617   2.572   7.304  0.00  0.00    +0.000 A 
ATOM     24  C   UNL     1      46.116   1.547   8.084  0.00  0.00    +0.000 A 
ATOM     25  N   UNL     1      45.186   1.733   9.050  0.00  0.00    +0.000 NA
BRANCH  23  26
ATOM     26  C   UNL     1      47.655   2.244   6.295  0.00  0.00    +0.000 C 
ATOM     27  N   UNL     1      47.764   3.079   5.218  0.00  0.00    +0.000 N 
ATOM     28  O   UNL     1      48.364   1.263   6.416  0.00  0.00    +0.000 OA
ATOM     29  H   UNL     1      47.080   3.777   4.981  0.00  0.00    +0.000 HD
ATOM     30  H   UNL     1      48.428   2.806   4.503  0.00  0.00    +0.000 HD
ENDBRANCH  23  26
ENDBRANCH  19  20
ENDBRANCH  18  19
ENDBRANCH   1  18
TORSDOF 7
ENDMDL
MODEL 5
REMARK VINA RESULT:    -6.938      2.065      3.042
REMARK INTER + INTRA:         -10.976
REMARK INTER:                 -10.270
REMARK INTRA:                  -0.706
REMARK UNBOUND:                -1.199
REMARK  Name = 
REMARK  12 active torsions:
REMARK  status: ('A' for Active; 'I' for Inactive)
REMARK    1  A    between atoms: C_1  and  C_2
REMARK    2  A    between atoms: C_4  and  C_5
REMARK    3  A    between atoms: C_5  and  C_6
REMARK    4  A    between atoms: C_5  and  C_7
REMARK    5  A    between atoms: C_5  and  C_8
REMARK    6  A    between atoms: C_8  and  O_9
REMARK    7  A    between atoms: O_9  and  C_10
REMARK    8  A    between atoms: C_13  and  C_14
REMARK    9  A    between atoms: C_20  and  C_21
REMARK   10  A    between atoms: C_22  and  O_23
REMARK   11  A    between atoms: O_23  and  C_24
REMARK   12  A    between atoms: N_26  and  C_27
REMARK                            x       y       z     vdW  Elec       q    Type
REMARK                         _______ _______ _______ _____ _____    ______ ____
ROOT
ATOM      1  C   UNL     1      45.673   5.958  12.205  0.00  0.00    +0.000 C 
ATOM      2  C   UNL     1      44.440   6.791  12.606  0.00  0.00    +0.000 C 
ATOM      3  C   UNL     1      46.432   6.646  11.054  0.00  0.00    +0.000 C 
ENDROOT
BRANCH   1   7
ATOM      4  C   UNL     1      49.454   7.867  14.851  0.00  0.00    +0.000 C 
ATOM      5  C   UNL     1      48.502   6.705  14.777  0.00  0.00    +0.000 A 
ATOM      6  C   UNL     1      47.613   6.766  13.684  0.00  0.00    +0.000 A 
ATOM      7  C   UNL     1      46.624   5.809  13.413  0.00  0.00    +0.000 A 
ATOM      8  C   UNL     1      46.536   4.736  14.302  0.00  0.00    +0.000 A 
ATOM      9  C   UNL     1      47.419   4.620  15.395  0.00  0.00    +0.000 A 
ATOM     10  C   UNL     1      47.273   3.429  16.310  0.00  0.00    +0.000 C 
ATOM     11  C   UNL     1      48.416   5.601  15.634  0.00  0.00    +0.000 A 
BRANCH  11  12
ATOM     12  O   UNL     1      49.271   5.252  16.653  0.00  0.00    +0.000 OA
BRANCH  12  13
ATOM     13  C   UNL     1      49.330   5.937  17.920  0.00  0.00    +0.000 C 
ATOM     14  C   UNL     1      49.704   5.016  19.112  0.00  0.00    +0.000 C 
ATOM     15  N   UNL     1      48.459   5.369  19.808  0.00  0.00    +0.000 NA
ATOM     16  C   UNL     1      48.748   6.175  20.993  0.00  0.00    +0.000 C 
ATOM     17  C   UNL     1      48.020   6.211  18.683  0.00  0.00    +0.000 C 
ENDBRANCH  12  13
ENDBRANCH  11  12
ENDBRANCH   1   7
BRANCH   1  18
ATOM     18  C   UNL     1      45.175   4.573  11.704  0.00  0.00    +0.000 C 
BRANCH  18  19
ATOM     19  O   UNL     1      44.448   4.607  10.471  0.00  0.00    +0.000 OA
BRANCH  19  20
ATOM     20  C   UNL     1      45.160   3.938   9.485  0.00  0.00    +0.000 A 
ATOM     21  C   UNL     1      45.146   2.553   9.518  0.00  0.00    +0.000 A 
ATOM     22  C   UNL     1      45.827   1.861   8.516  0.00  0.00    +0.000 A 
ATOM     23  C   UNL     1      46.489   2.575   7.519  0.00  0.00    +0.000 A 
ATOM     24  C   UNL     1      46.449   3.956   7.565  0.00  0.00    +0.000 A 
ATOM     25  N   UNL     1      45.807   4.650   8.534  0.00  0.00    +0.000 NA
BRANCH  23  26
ATOM     26  C   UNL     1      47.204   1.931   6.389  0.00  0.00    +0.000 C 
ATOM     27  N   UNL     1      47.737   2.753   5.437  0.00  0.00    +0.000 N 
ATOM     28  O   UNL     1      47.294   0.719   6.309  0.00  0.00    +0.000 OA
ATOM     29  H   UNL     1      47.520   3.733   5.360  0.00  0.00    +0.000 HD
ATOM     30  H   UNL     1      48.161   2.299   4.637  0.00  0.00    +0.000 HD
ENDBRANCH  23  26
ENDBRANCH  19  20
ENDBRANCH  18  19
ENDBRANCH   1  18
TORSDOF 7
ENDMDL
MODEL 6
REMARK VINA RESULT:    -6.732      1.980      2.812
REMARK INTER + INTRA:         -10.685
REMARK INTER:                 -10.040
REMARK INTRA:                  -0.645
REMARK UNBOUND:                -1.199
REMARK  Name = 
REMARK  12 active torsions:
REMARK  status: ('A' for Active; 'I' for Inactive)
REMARK    1  A    between atoms: C_1  and  C_2
REMARK    2  A    between atoms: C_4  and  C_5
REMARK    3  A    between atoms: C_5  and  C_6
REMARK    4  A    between atoms: C_5  and  C_7
REMARK    5  A    between atoms: C_5  and  C_8
REMARK    6  A    between atoms: C_8  and  O_9
REMARK    7  A    between atoms: O_9  and  C_10
REMARK    8  A    between atoms: C_13  and  C_14
REMARK    9  A    between atoms: C_20  and  C_21
REMARK   10  A    between atoms: C_22  and  O_23
REMARK   11  A    between atoms: O_23  and  C_24
REMARK   12  A    between atoms: N_26  and  C_27
REMARK                            x       y       z     vdW  Elec       q    Type
REMARK                         _______ _______ _______ _____ _____    ______ ____
ROOT
ATOM      1  C   UNL     1      45.857   5.783  12.383  0.00  0.00    +0.000 C 
ATOM      2  C   UNL     1      44.539   6.500  12.731  0.00  0.00    +0.000 C 
ATOM      3  C   UNL     1      46.570   6.507  11.225  0.00  0.00    +0.000 C 
ENDROOT
BRANCH   1   7
ATOM      4  C   UNL     1      47.274   3.459  16.570  0.00  0.00    +0.000 C 
ATOM      5  C   UNL     1      47.545   4.662  15.711  0.00  0.00    +0.000 A 
ATOM      6  C   UNL     1      46.715   4.749  14.574  0.00  0.00    +0.000 A 
ATOM      7  C   UNL     1      46.790   5.769  13.614  0.00  0.00    +0.000 A 
ATOM      8  C   UNL     1      47.760   6.751  13.824  0.00  0.00    +0.000 A 
ATOM      9  C   UNL     1      48.596   6.719  14.959  0.00  0.00    +0.000 A 
ATOM     10  C   UNL     1      49.617   7.817  15.127  0.00  0.00    +0.000 C 
ATOM     11  C   UNL     1      48.487   5.677  15.916  0.00  0.00    +0.000 A 
BRANCH  11  12
ATOM     12  O   UNL     1      49.280   5.885  17.021  0.00  0.00    +0.000 OA
BRANCH  12  13
ATOM     13  C   UNL     1      50.416   5.065  17.358  0.00  0.00    +0.000 C 
ATOM     14  C   UNL     1      50.306   4.384  18.748  0.00  0.00    +0.000 C 
ATOM     15  N   UNL     1      51.557   5.018  19.187  0.00  0.00    +0.000 NA
ATOM     16  C   UNL     1      52.610   4.016  19.338  0.00  0.00    +0.000 C 
ATOM     17  C   UNL     1      51.686   5.739  17.910  0.00  0.00    +0.000 C 
ENDBRANCH  12  13
ENDBRANCH  11  12
ENDBRANCH   1   7
BRANCH   1  18
ATOM     18  C   UNL     1      45.512   4.339  11.919  0.00  0.00    +0.000 C 
BRANCH  18  19
ATOM     19  O   UNL     1      44.549   4.264  10.861  0.00  0.00    +0.000 OA
BRANCH  19  20
ATOM     20  C   UNL     1      45.137   3.723   9.727  0.00  0.00    +0.000 A 
ATOM     21  C   UNL     1      45.644   4.607   8.789  0.00  0.00    +0.000 A 
ATOM     22  C   UNL     1      46.269   4.083   7.656  0.00  0.00    +0.000 A 
ATOM     23  C   UNL     1      46.368   2.701   7.506  0.00  0.00    +0.000 A 
ATOM     24  C   UNL     1      45.833   1.894   8.493  0.00  0.00    +0.000 A 
ATOM     25  N   UNL     1      45.211   2.378   9.594  0.00  0.00    +0.000 NA
BRANCH  23  26
ATOM     26  C   UNL     1      47.051   2.050   6.361  0.00  0.00    +0.000 C 
ATOM     27  N   UNL     1      47.337   2.833   5.278  0.00  0.00    +0.000 N 
ATOM     28  O   UNL     1      47.326   0.864   6.382  0.00  0.00    +0.000 OA
ATOM     29  H   UNL     1      46.958   3.755   5.139  0.00  0.00    +0.000 HD
ATOM     30  H   UNL     1      47.740   2.362   4.476  0.00  0.00    +0.000 HD
ENDBRANCH  23  26
ENDBRANCH  19  20
ENDBRANCH  18  19
ENDBRANCH   1  18
TORSDOF 7
ENDMDL
MODEL 7
REMARK VINA RESULT:    -6.351      2.686      8.487
REMARK INTER + INTRA:         -10.148
REMARK INTER:                  -8.985
REMARK INTRA:                  -1.164
REMARK UNBOUND:                -1.199
REMARK  Name = 
REMARK  12 active torsions:
REMARK  status: ('A' for Active; 'I' for Inactive)
REMARK    1  A    between atoms: C_1  and  C_2
REMARK    2  A    between atoms: C_4  and  C_5
REMARK    3  A    between atoms: C_5  and  C_6
REMARK    4  A    between atoms: C_5  and  C_7
REMARK    5  A    between atoms: C_5  and  C_8
REMARK    6  A    between atoms: C_8  and  O_9
REMARK    7  A    between atoms: O_9  and  C_10
REMARK    8  A    between atoms: C_13  and  C_14
REMARK    9  A    between atoms: C_20  and  C_21
REMARK   10  A    between atoms: C_22  and  O_23
REMARK   11  A    between atoms: O_23  and  C_24
REMARK   12  A    between atoms: N_26  and  C_27
REMARK                            x       y       z     vdW  Elec       q    Type
REMARK                         _______ _______ _______ _____ _____    ______ ____
ROOT
ATOM      1  C   UNL     1      49.208   8.034  12.902  0.00  0.00    +0.000 C 
ATOM      2  C   UNL     1      50.165   7.625  11.766  0.00  0.00    +0.000 C 
ATOM      3  C   UNL     1      49.009   9.562  12.910  0.00  0.00    +0.000 C 
ENDROOT
BRANCH   1   7
ATOM      4  C   UNL     1      46.420   3.930  13.476  0.00  0.00    +0.000 C 
ATOM      5  C   UNL     1      46.392   5.343  12.962  0.00  0.00    +0.000 A 
ATOM      6  C   UNL     1      47.620   6.022  13.094  0.00  0.00    +0.000 A 
ATOM      7  C   UNL     1      47.836   7.352  12.705  0.00  0.00    +0.000 A 
ATOM      8  C   UNL     1      46.743   8.024  12.153  0.00  0.00    +0.000 A 
ATOM      9  C   UNL     1      45.502   7.378  11.978  0.00  0.00    +0.000 A 
ATOM     10  C   UNL     1      44.368   8.161  11.366  0.00  0.00    +0.000 C 
ATOM     11  C   UNL     1      45.321   6.027  12.375  0.00  0.00    +0.000 A 
BRANCH  11  12
ATOM     12  O   UNL     1      44.097   5.523  12.000  0.00  0.00    +0.000 OA
BRANCH  12  13
ATOM     13  C   UNL     1      43.889   4.716  10.825  0.00  0.00    +0.000 C 
ATOM     14  C   UNL     1      43.838   3.192  11.114  0.00  0.00    +0.000 C 
ATOM     15  N   UNL     1      44.953   2.953  10.187  0.00  0.00    +0.000 NA
ATOM     16  C   UNL     1      44.486   2.234   9.002  0.00  0.00    +0.000 C 
ATOM     17  C   UNL     1      45.090   4.393   9.916  0.00  0.00    +0.000 C 
ENDBRANCH  12  13
ENDBRANCH  11  12
ENDBRANCH   1   7
BRANCH   1  18
ATOM     18  C   UNL     1      49.857   7.617  14.252  0.00  0.00    +0.000 C 
BRANCH  18  19
ATOM     19  O   UNL     1      49.252   8.198  15.413  0.00  0.00    +0.000 OA
BRANCH  19  20
ATOM     20  C   UNL     1      49.148   7.247  16.417  0.00  0.00    +0.000 A 
ATOM     21  C   UNL     1      48.609   7.654  17.626  0.00  0.00    +0.000 A 
ATOM     22  C   UNL     1      48.464   6.704  18.639  0.00  0.00    +0.000 A 
ATOM     23  C   UNL     1      48.856   5.387  18.404  0.00  0.00    +0.000 A 
ATOM     24  C   UNL     1      49.384   5.071  17.166  0.00  0.00    +0.000 A 
ATOM     25  N   UNL     1      49.547   5.977  16.173  0.00  0.00    +0.000 NA
BRANCH  23  26
ATOM     26  C   UNL     1      48.703   4.299  19.400  0.00  0.00    +0.000 C 
ATOM     27  N   UNL     1      48.328   3.071  18.931  0.00  0.00    +0.000 N 
ATOM     28  O   UNL     1      48.887   4.499  20.587  0.00  0.00    +0.000 OA
ATOM     29  H   UNL     1      47.979   2.911  18.001  0.00  0.00    +0.000 HD
ATOM     30  H   UNL     1      48.159   2.355  19.628  0.00  0.00    +0.000 HD
ENDBRANCH  23  26
ENDBRANCH  19  20
ENDBRANCH  18  19
ENDBRANCH   1  18
TORSDOF 7
ENDMDL
MODEL 8
REMARK VINA RESULT:    -6.058      3.060      5.457
REMARK INTER + INTRA:          -9.735
REMARK INTER:                  -8.547
REMARK INTRA:                  -1.189
REMARK UNBOUND:                -1.199
REMARK  Name = 
REMARK  12 active torsions:
REMARK  status: ('A' for Active; 'I' for Inactive)
REMARK    1  A    between atoms: C_1  and  C_2
REMARK    2  A    between atoms: C_4  and  C_5
REMARK    3  A    between atoms: C_5  and  C_6
REMARK    4  A    between atoms: C_5  and  C_7
REMARK    5  A    between atoms: C_5  and  C_8
REMARK    6  A    between atoms: C_8  and  O_9
REMARK    7  A    between atoms: O_9  and  C_10
REMARK    8  A    between atoms: C_13  and  C_14
REMARK    9  A    between atoms: C_20  and  C_21
REMARK   10  A    between atoms: C_22  and  O_23
REMARK   11  A    between atoms: O_23  and  C_24
REMARK   12  A    between atoms: N_26  and  C_27
REMARK                            x       y       z     vdW  Elec       q    Type
REMARK                         _______ _______ _______ _____ _____    ______ ____
ROOT
ATOM      1  C   UNL     1      49.045   7.743  13.857  0.00  0.00    +0.000 C 
ATOM      2  C   UNL     1      47.961   8.801  14.138  0.00  0.00    +0.000 C 
ATOM      3  C   UNL     1      50.364   8.426  13.443  0.00  0.00    +0.000 C 
ENDROOT
BRANCH   1   7
ATOM      4  C   UNL     1      47.307   4.325  17.056  0.00  0.00    +0.000 C 
ATOM      5  C   UNL     1      48.493   5.198  16.755  0.00  0.00    +0.000 A 
ATOM      6  C   UNL     1      48.325   6.014  15.616  0.00  0.00    +0.000 A 
ATOM      7  C   UNL     1      49.297   6.898  15.125  0.00  0.00    +0.000 A 
ATOM      8  C   UNL     1      50.501   6.954  15.830  0.00  0.00    +0.000 A 
ATOM      9  C   UNL     1      50.705   6.176  16.989  0.00  0.00    +0.000 A 
ATOM     10  C   UNL     1      52.026   6.293  17.706  0.00  0.00    +0.000 C 
ATOM     11  C   UNL     1      49.696   5.298  17.464  0.00  0.00    +0.000 A 
BRANCH  11  12
ATOM     12  O   UNL     1      50.013   4.731  18.676  0.00  0.00    +0.000 OA
BRANCH  12  13
ATOM     13  C   UNL     1      49.680   5.320  19.948  0.00  0.00    +0.000 C 
ATOM     14  C   UNL     1      48.565   4.561  20.717  0.00  0.00    +0.000 C 
ATOM     15  N   UNL     1      47.736   5.773  20.764  0.00  0.00    +0.000 NA
ATOM     16  C   UNL     1      47.642   6.274  22.134  0.00  0.00    +0.000 C 
ATOM     17  C   UNL     1      48.729   6.532  19.985  0.00  0.00    +0.000 C 
ENDBRANCH  12  13
ENDBRANCH  11  12
ENDBRANCH   1   7
BRANCH   1  18
ATOM     18  C   UNL     1      48.559   6.858  12.675  0.00  0.00    +0.000 C 
BRANCH  18  19
ATOM     19  O   UNL     1      47.330   7.282  12.075  0.00  0.00    +0.000 OA
BRANCH  19  20
ATOM     20  C   UNL     1      46.543   6.178  11.782  0.00  0.00    +0.000 A 
ATOM     21  C   UNL     1      46.305   5.275  12.806  0.00  0.00    +0.000 A 
ATOM     22  C   UNL     1      45.488   4.175  12.541  0.00  0.00    +0.000 A 
ATOM     23  C   UNL     1      44.936   4.022  11.271  0.00  0.00    +0.000 A 
ATOM     24  C   UNL     1      45.228   4.972  10.310  0.00  0.00    +0.000 A 
ATOM     25  N   UNL     1      46.028   6.040  10.538  0.00  0.00    +0.000 NA
BRANCH  23  26
ATOM     26  C   UNL     1      44.023   2.911  10.905  0.00  0.00    +0.000 C 
ATOM     27  N   UNL     1      44.422   2.081   9.895  0.00  0.00    +0.000 N 
ATOM     28  O   UNL     1      42.956   2.759  11.472  0.00  0.00    +0.000 OA
ATOM     29  H   UNL     1      45.190   2.283   9.277  0.00  0.00    +0.000 HD
ATOM     30  H   UNL     1      43.759   1.370   9.609  0.00  0.00    +0.000 HD
ENDBRANCH  23  26
ENDBRANCH  19  20
ENDBRANCH  18  19
ENDBRANCH   1  18
TORSDOF 7
ENDMDL
MODEL 9
REMARK VINA RESULT:    -5.844      3.553      6.415
REMARK INTER + INTRA:          -9.435
REMARK INTER:                  -8.470
REMARK INTRA:                  -0.964
REMARK UNBOUND:                -1.199
REMARK  Name = 
REMARK  12 active torsions:
REMARK  status: ('A' for Active; 'I' for Inactive)
REMARK    1  A    between atoms: C_1  and  C_2
REMARK    2  A    between atoms: C_4  and  C_5
REMARK    3  A    between atoms: C_5  and  C_6
REMARK    4  A    between atoms: C_5  and  C_7
REMARK    5  A    between atoms: C_5  and  C_8
REMARK    6  A    between atoms: C_8  and  O_9
REMARK    7  A    between atoms: O_9  and  C_10
REMARK    8  A    between atoms: C_13  and  C_14
REMARK    9  A    between atoms: C_20  and  C_21
REMARK   10  A    between atoms: C_22  and  O_23
REMARK   11  A    between atoms: O_23  and  C_24
REMARK   12  A    between atoms: N_26  and  C_27
REMARK                            x       y       z     vdW  Elec       q    Type
REMARK                         _______ _______ _______ _____ _____    ______ ____
ROOT
ATOM      1  C   UNL     1      49.104   8.098  14.984  0.00  0.00    +0.000 C 
ATOM      2  C   UNL     1      48.869   9.330  15.877  0.00  0.00    +0.000 C 
ATOM      3  C   UNL     1      50.118   8.429  13.871  0.00  0.00    +0.000 C 
ENDROOT
BRANCH   1   7
ATOM      4  C   UNL     1      53.039   6.051  17.280  0.00  0.00    +0.000 C 
ATOM      5  C   UNL     1      51.575   5.858  16.998  0.00  0.00    +0.000 A 
ATOM      6  C   UNL     1      51.006   6.880  16.211  0.00  0.00    +0.000 A 
ATOM      7  C   UNL     1      49.657   6.931  15.832  0.00  0.00    +0.000 A 
ATOM      8  C   UNL     1      48.846   5.885  16.278  0.00  0.00    +0.000 A 
ATOM      9  C   UNL     1      49.375   4.828  17.047  0.00  0.00    +0.000 A 
ATOM     10  C   UNL     1      48.443   3.727  17.487  0.00  0.00    +0.000 C 
ATOM     11  C   UNL     1      50.748   4.804  17.405  0.00  0.00    +0.000 A 
BRANCH  11  12
ATOM     12  O   UNL     1      51.114   3.634  18.029  0.00  0.00    +0.000 OA
BRANCH  12  13
ATOM     13  C   UNL     1      52.142   2.751  17.540  0.00  0.00    +0.000 C 
ATOM     14  C   UNL     1      51.712   1.260  17.486  0.00  0.00    +0.000 C 
ATOM     15  N   UNL     1      52.827   0.881  18.365  0.00  0.00    +0.000 NA
ATOM     16  C   UNL     1      53.818   0.101  17.625  0.00  0.00    +0.000 C 
ATOM     17  C   UNL     1      53.248   2.284  18.504  0.00  0.00    +0.000 C 
ENDBRANCH  12  13
ENDBRANCH  11  12
ENDBRANCH   1   7
BRANCH   1  18
ATOM     18  C   UNL     1      47.751   7.721  14.318  0.00  0.00    +0.000 C 
BRANCH  18  19
ATOM     19  O   UNL     1      47.853   7.289  12.956  0.00  0.00    +0.000 OA
BRANCH  19  20
ATOM     20  C   UNL     1      46.836   6.389  12.669  0.00  0.00    +0.000 A 
ATOM     21  C   UNL     1      46.411   6.308  11.353  0.00  0.00    +0.000 A 
ATOM     22  C   UNL     1      45.412   5.384  11.037  0.00  0.00    +0.000 A 
ATOM     23  C   UNL     1      44.883   4.577  12.042  0.00  0.00    +0.000 A 
ATOM     24  C   UNL     1      45.368   4.728  13.328  0.00  0.00    +0.000 A 
ATOM     25  N   UNL     1      46.326   5.625  13.662  0.00  0.00    +0.000 NA
BRANCH  23  26
ATOM     26  C   UNL     1      43.851   3.540  11.798  0.00  0.00    +0.000 C 
ATOM     27  N   UNL     1      43.994   2.350  12.456  0.00  0.00    +0.000 N 
ATOM     28  O   UNL     1      42.928   3.737  11.029  0.00  0.00    +0.000 OA
ATOM     29  H   UNL     1      44.833   2.076  12.940  0.00  0.00    +0.000 HD
ATOM     30  H   UNL     1      43.322   1.626  12.228  0.00  0.00    +0.000 HD
ENDBRANCH  23  26
ENDBRANCH  19  20
ENDBRANCH  18  19
ENDBRANCH   1  18
TORSDOF 7
ENDMDL
