MODEL 1
REMARK VINA RESULT:    -7.937      0.000      0.000
REMARK INTER + INTRA:          -9.932
REMARK INTER:                  -9.792
REMARK INTRA:                  -0.140
REMARK UNBOUND:                -0.140
REMARK  Name = 
REMARK  4 active torsions:
REMARK  status: ('A' for Active; 'I' for Inactive)
REMARK    1  A    between atoms: C_5  and  N_6
REMARK    2  A    between atoms: N_6  and  C_7
REMARK    3  A    between atoms: C_7  and  C_8
REMARK    4  A    between atoms: C_12  and  N_13
REMARK                            x       y       z     vdW  Elec       q    Type
REMARK                         _______ _______ _______ _____ _____    ______ ____
ROOT
ATOM      1  C   UNL     1      44.755   6.014  11.408  0.00  0.00    +0.000 A 
ATOM      2  C   UNL     1      44.670   7.413  11.344  0.00  0.00    +0.000 A 
ATOM      3  C   UNL     1      45.568   8.219  12.039  0.00  0.00    +0.000 A 
ATOM      4  C   UNL     1      46.548   7.634  12.842  0.00  0.00    +0.000 A 
ATOM      5  C   UNL     1      46.699   6.247  12.900  0.00  0.00    +0.000 A 
ATOM      6  C   UNL     1      45.847   5.468  12.110  0.00  0.00    +0.000 A 
ENDROOT
BRANCH   5   7
ATOM      7  N   UNL     1      47.581   5.640  13.765  0.00  0.00    +0.000 N 
ATOM      8  C   UNL     1      47.305   4.322  14.339  0.00  0.00    +0.000 C 
ATOM      9  C   UNL     1      47.277   4.403  15.877  0.00  0.00    +0.000 C 
ATOM     10  N   UNL     1      48.494   5.021  16.452  0.00  0.00    +0.000 NA
ATOM     11  C   UNL     1      48.673   6.363  15.850  0.00  0.00    +0.000 C 
ATOM     12  C   UNL     1      48.741   6.354  14.303  0.00  0.00    +0.000 C 
ATOM     13  H   UNL     1      49.291   4.449  16.172  0.00  0.00    +0.000 HD
ENDBRANCH   5   7
BRANCH   1  14
ATOM     14  C   UNL     1      43.637   5.109  10.885  0.00  0.00    +0.000 C 
ATOM     15  C   UNL     1      43.178   3.989  11.819  0.00  0.00    +0.000 C 
ATOM     16  C   UNL     1      42.301   5.173  11.612  0.00  0.00    +0.000 C 
BRANCH  14  17
ATOM     17  N   UNL     1      43.683   4.811   9.446  0.00  0.00    +0.000 N 
ATOM     18  H   UNL     1      42.804   4.585   8.988  0.00  0.00    +0.000 HD
BRANCH  17  23
ATOM     19 CL   UNL     1      47.766   1.433   7.057  0.00  0.00    +0.000 Cl
ATOM     20  C   UNL     1      46.582   2.436   7.774  0.00  0.00    +0.000 A 
ATOM     21  C   UNL     1      46.535   3.798   7.552  0.00  0.00    +0.000 A 
ATOM     22  N   UNL     1      45.585   4.601   8.102  0.00  0.00    +0.000 NA
ATOM     23  C   UNL     1      44.666   3.989   8.881  0.00  0.00    +0.000 A 
ATOM     24  C   UNL     1      44.753   2.609   9.111  0.00  0.00    +0.000 A 
ATOM     25  N   UNL     1      45.694   1.800   8.560  0.00  0.00    +0.000 NA
ENDBRANCH  17  23
ENDBRANCH  14  17
ENDBRANCH   1  14
TORSDOF 4
ENDMDL
MODEL 2
REMARK VINA RESULT:    -7.731      1.380      2.283
REMARK INTER + INTRA:          -9.678
REMARK INTER:                  -9.371
REMARK INTRA:                  -0.307
REMARK UNBOUND:                -0.140
REMARK  Name = 
REMARK  4 active torsions:
REMARK  status: ('A' for Active; 'I' for Inactive)
REMARK    1  A    between atoms: C_5  and  N_6
REMARK    2  A    between atoms: N_6  and  C_7
REMARK    3  A    between atoms: C_7  and  C_8
REMARK    4  A    between atoms: C_12  and  N_13
REMARK                            x       y       z     vdW  Elec       q    Type
REMARK                         _______ _______ _______ _____ _____    ______ ____
ROOT
ATOM      1  C   UNL     1      45.780   5.131  12.484  0.00  0.00    +0.000 A 
ATOM      2  C   UNL     1      46.514   6.163  11.880  0.00  0.00    +0.000 A 
ATOM      3  C   UNL     1      47.618   6.726  12.516  0.00  0.00    +0.000 A 
ATOM      4  C   UNL     1      47.985   6.287  13.787  0.00  0.00    +0.000 A 
ATOM      5  C   UNL     1      47.313   5.231  14.408  0.00  0.00    +0.000 A 
ATOM      6  C   UNL     1      46.274   4.619  13.700  0.00  0.00    +0.000 A 
ENDROOT
BRANCH   5   7
ATOM      7  N   UNL     1      47.581   4.850  15.703  0.00  0.00    +0.000 N 
ATOM      8  C   UNL     1      48.448   5.648  16.571  0.00  0.00    +0.000 C 
ATOM      9  C   UNL     1      49.649   4.807  17.046  0.00  0.00    +0.000 C 
ATOM     10  N   UNL     1      49.252   3.526  17.674  0.00  0.00    +0.000 NA
ATOM     11  C   UNL     1      48.416   2.767  16.716  0.00  0.00    +0.000 C 
ATOM     12  C   UNL     1      47.171   3.542  16.219  0.00  0.00    +0.000 C 
ATOM     13  H   UNL     1      48.671   3.747  18.484  0.00  0.00    +0.000 HD
ENDBRANCH   5   7
BRANCH   1  14
ATOM     14  C   UNL     1      44.420   4.681  11.946  0.00  0.00    +0.000 C 
ATOM     15  C   UNL     1      43.215   4.931  12.854  0.00  0.00    +0.000 C 
ATOM     16  C   UNL     1      43.403   5.772  11.641  0.00  0.00    +0.000 C 
BRANCH  14  17
ATOM     17  N   UNL     1      44.427   3.437  11.164  0.00  0.00    +0.000 N 
ATOM     18  H   UNL     1      44.680   2.581  11.651  0.00  0.00    +0.000 HD
BRANCH  17  23
ATOM     19 CL   UNL     1      46.761   3.076   5.852  0.00  0.00    +0.000 Cl
ATOM     20  C   UNL     1      46.054   3.171   7.406  0.00  0.00    +0.000 A 
ATOM     21  C   UNL     1      45.868   2.058   8.202  0.00  0.00    +0.000 A 
ATOM     22  N   UNL     1      45.326   2.127   9.447  0.00  0.00    +0.000 NA
ATOM     23  C   UNL     1      44.982   3.360   9.880  0.00  0.00    +0.000 A 
ATOM     24  C   UNL     1      45.158   4.469   9.042  0.00  0.00    +0.000 A 
ATOM     25  N   UNL     1      45.705   4.409   7.800  0.00  0.00    +0.000 NA
ENDBRANCH  17  23
ENDBRANCH  14  17
ENDBRANCH   1  14
TORSDOF 4
ENDMDL
MODEL 3
REMARK VINA RESULT:    -7.025      1.868      2.526
REMARK INTER + INTRA:          -8.807
REMARK INTER:                  -8.404
REMARK INTRA:                  -0.403
REMARK UNBOUND:                -0.140
REMARK  Name = 
REMARK  4 active torsions:
REMARK  status: ('A' for Active; 'I' for Inactive)
REMARK    1  A    between atoms: C_5  and  N_6
REMARK    2  A    between atoms: N_6  and  C_7
REMARK    3  A    between atoms: C_7  and  C_8
REMARK    4  A    between atoms: C_12  and  N_13
REMARK                            x       y       z     vdW  Elec       q    Type
REMARK                         _______ _______ _______ _____ _____    ______ ____
ROOT
ATOM      1  C   UNL     1      44.802   6.594  11.908  0.00  0.00    +0.000 A 
ATOM      2  C   UNL     1      44.270   7.798  11.423  0.00  0.00    +0.000 A 
ATOM      3  C   UNL     1      44.913   9.011  11.652  0.00  0.00    +0.000 A 
ATOM      4  C   UNL     1      46.086   9.043  12.406  0.00  0.00    +0.000 A 
ATOM      5  C   UNL     1      46.677   7.866  12.871  0.00  0.00    +0.000 A 
ATOM      6  C   UNL     1      46.061   6.656  12.536  0.00  0.00    +0.000 A 
ENDROOT
BRANCH   5   7
ATOM      7  N   UNL     1      47.770   7.874  13.708  0.00  0.00    +0.000 N 
ATOM      8  C   UNL     1      47.920   8.880  14.761  0.00  0.00    +0.000 C 
ATOM      9  C   UNL     1      49.221   9.679  14.555  0.00  0.00    +0.000 C 
ATOM     10  N   UNL     1      50.420   8.818  14.427  0.00  0.00    +0.000 NA
ATOM     11  C   UNL     1      50.200   7.862  13.316  0.00  0.00    +0.000 C 
ATOM     12  C   UNL     1      48.923   7.002  13.473  0.00  0.00    +0.000 C 
ATOM     13  H   UNL     1      50.505   8.277  15.288  0.00  0.00    +0.000 HD
ENDBRANCH   5   7
BRANCH   1  14
ATOM     14  C   UNL     1      43.996   5.293  11.910  0.00  0.00    +0.000 C 
ATOM     15  C   UNL     1      42.941   5.150  13.007  0.00  0.00    +0.000 C 
ATOM     16  C   UNL     1      42.508   5.403  11.606  0.00  0.00    +0.000 C 
BRANCH  14  17
ATOM     17  N   UNL     1      44.741   4.084  11.531  0.00  0.00    +0.000 N 
ATOM     18  H   UNL     1      45.508   3.799  12.136  0.00  0.00    +0.000 HD
BRANCH  17  23
ATOM     19 CL   UNL     1      46.416   2.979   6.076  0.00  0.00    +0.000 Cl
ATOM     20  C   UNL     1      45.900   3.298   7.674  0.00  0.00    +0.000 A 
ATOM     21  C   UNL     1      45.516   2.294   8.541  0.00  0.00    +0.000 A 
ATOM     22  N   UNL     1      45.124   2.537   9.820  0.00  0.00    +0.000 NA
ATOM     23  C   UNL     1      45.140   3.830  10.213  0.00  0.00    +0.000 A 
ATOM     24  C   UNL     1      45.509   4.831   9.305  0.00  0.00    +0.000 A 
ATOM     25  N   UNL     1      45.908   4.596   8.029  0.00  0.00    +0.000 NA
ENDBRANCH  17  23
ENDBRANCH  14  17
ENDBRANCH   1  14
TORSDOF 4
ENDMDL
MODEL 4
REMARK VINA RESULT:    -6.626      3.500      7.385
REMARK INTER + INTRA:          -8.315
REMARK INTER:                  -7.681
REMARK INTRA:                  -0.634
REMARK UNBOUND:                -0.140
REMARK  Name = 
REMARK  4 active torsions:
REMARK  status: ('A' for Active; 'I' for Inactive)
REMARK    1  A    between atoms: C_5  and  N_6
REMARK    2  A    between atoms: N_6  and  C_7
REMARK    3  A    between atoms: C_7  and  C_8
REMARK    4  A    between atoms: C_12  and  N_13
REMARK                            x       y       z     vdW  Elec       q    Type
REMARK                         _______ _______ _______ _____ _____    ______ ____
ROOT
ATOM      1  C   UNL     1      47.854   7.642  12.833  0.00  0.00    +0.000 A 
ATOM      2  C   UNL     1      46.961   8.710  13.002  0.00  0.00    +0.000 A 
ATOM      3  C   UNL     1      45.594   8.543  12.795  0.00  0.00    +0.000 A 
ATOM      4  C   UNL     1      45.101   7.306  12.379  0.00  0.00    +0.000 A 
ATOM      5  C   UNL     1      45.946   6.202  12.242  0.00  0.00    +0.000 A 
ATOM      6  C   UNL     1      47.298   6.377  12.557  0.00  0.00    +0.000 A 
ENDROOT
BRANCH   5   7
ATOM      7  N   UNL     1      45.509   5.002  11.729  0.00  0.00    +0.000 N 
ATOM      8  C   UNL     1      45.137   4.863  10.320  0.00  0.00    +0.000 C 
ATOM      9  C   UNL     1      43.672   4.402  10.197  0.00  0.00    +0.000 C 
ATOM     10  N   UNL     1      43.377   3.179  10.978  0.00  0.00    +0.000 NA
ATOM     11  C   UNL     1      43.743   3.421  12.394  0.00  0.00    +0.000 C 
ATOM     12  C   UNL     1      45.214   3.859  12.595  0.00  0.00    +0.000 C 
ATOM     13  H   UNL     1      43.981   2.435  10.626  0.00  0.00    +0.000 HD
ENDBRANCH   5   7
BRANCH   1  14
ATOM     14  C   UNL     1      49.369   7.851  12.787  0.00  0.00    +0.000 C 
ATOM     15  C   UNL     1      50.024   7.767  11.408  0.00  0.00    +0.000 C 
ATOM     16  C   UNL     1      49.872   9.093  12.066  0.00  0.00    +0.000 C 
BRANCH  14  17
ATOM     17  N   UNL     1      50.121   7.299  13.924  0.00  0.00    +0.000 N 
ATOM     18  H   UNL     1      50.648   6.445  13.764  0.00  0.00    +0.000 HD
BRANCH  17  23
ATOM     19 CL   UNL     1      47.840   6.909  19.256  0.00  0.00    +0.000 Cl
ATOM     20  C   UNL     1      48.531   7.012  17.696  0.00  0.00    +0.000 A 
ATOM     21  C   UNL     1      48.709   5.904  16.891  0.00  0.00    +0.000 A 
ATOM     22  N   UNL     1      49.239   5.980  15.642  0.00  0.00    +0.000 NA
ATOM     23  C   UNL     1      49.579   7.216  15.212  0.00  0.00    +0.000 A 
ATOM     24  C   UNL     1      49.412   8.320  16.059  0.00  0.00    +0.000 A 
ATOM     25  N   UNL     1      48.877   8.253  17.305  0.00  0.00    +0.000 NA
ENDBRANCH  17  23
ENDBRANCH  14  17
ENDBRANCH   1  14
TORSDOF 4
ENDMDL
MODEL 5
REMARK VINA RESULT:    -6.555      2.955      4.782
REMARK INTER + INTRA:          -8.228
REMARK INTER:                  -7.625
REMARK INTRA:                  -0.603
REMARK UNBOUND:                -0.140
REMARK  Name = 
REMARK  4 active torsions:
REMARK  status: ('A' for Active; 'I' for Inactive)
REMARK    1  A    between atoms: C_5  and  N_6
REMARK    2  A    between atoms: N_6  and  C_7
REMARK    3  A    between atoms: C_7  and  C_8
REMARK    4  A    between atoms: C_12  and  N_13
REMARK                            x       y       z     vdW  Elec       q    Type
REMARK                         _______ _______ _______ _____ _____    ______ ____
ROOT
ATOM      1  C   UNL     1      48.049   7.745  14.439  0.00  0.00    +0.000 A 
ATOM      2  C   UNL     1      48.163   8.899  15.229  0.00  0.00    +0.000 A 
ATOM      3  C   UNL     1      48.594   8.824  16.551  0.00  0.00    +0.000 A 
ATOM      4  C   UNL     1      48.885   7.583  17.116  0.00  0.00    +0.000 A 
ATOM      5  C   UNL     1      48.831   6.412  16.355  0.00  0.00    +0.000 A 
ATOM      6  C   UNL     1      48.494   6.534  15.003  0.00  0.00    +0.000 A 
ENDROOT
BRANCH   5   7
ATOM      7  N   UNL     1      49.006   5.166  16.912  0.00  0.00    +0.000 N 
ATOM      8  C   UNL     1      48.160   4.033  16.531  0.00  0.00    +0.000 C 
ATOM      9  C   UNL     1      47.427   3.474  17.765  0.00  0.00    +0.000 C 
ATOM     10  N   UNL     1      48.338   3.142  18.885  0.00  0.00    +0.000 NA
ATOM     11  C   UNL     1      49.122   4.351  19.232  0.00  0.00    +0.000 C 
ATOM     12  C   UNL     1      49.911   4.950  18.042  0.00  0.00    +0.000 C 
ATOM     13  H   UNL     1      48.994   2.436  18.549  0.00  0.00    +0.000 HD
ENDBRANCH   5   7
BRANCH   1  14
ATOM     14  C   UNL     1      47.331   7.755  13.087  0.00  0.00    +0.000 C 
ATOM     15  C   UNL     1      47.877   8.721  12.035  0.00  0.00    +0.000 C 
ATOM     16  C   UNL     1      48.119   7.261  11.883  0.00  0.00    +0.000 C 
BRANCH  14  17
ATOM     17  N   UNL     1      45.873   7.574  13.143  0.00  0.00    +0.000 N 
ATOM     18  H   UNL     1      45.387   7.941  13.958  0.00  0.00    +0.000 HD
BRANCH  17  23
ATOM     19 CL   UNL     1      43.253   2.586  11.712  0.00  0.00    +0.000 Cl
ATOM     20  C   UNL     1      44.036   4.052  12.112  0.00  0.00    +0.000 A 
ATOM     21  C   UNL     1      43.787   5.231  11.438  0.00  0.00    +0.000 A 
ATOM     22  N   UNL     1      44.390   6.406  11.762  0.00  0.00    +0.000 NA
ATOM     23  C   UNL     1      45.253   6.366  12.802  0.00  0.00    +0.000 A 
ATOM     24  C   UNL     1      45.507   5.151  13.452  0.00  0.00    +0.000 A 
ATOM     25  N   UNL     1      44.904   3.975  13.138  0.00  0.00    +0.000 NA
ENDBRANCH  17  23
ENDBRANCH  14  17
ENDBRANCH   1  14
TORSDOF 4
ENDMDL
MODEL 6
REMARK VINA RESULT:    -5.810      3.133      6.844
REMARK INTER + INTRA:          -7.308
REMARK INTER:                  -7.205
REMARK INTRA:                  -0.103
REMARK UNBOUND:                -0.140
REMARK  Name = 
REMARK  4 active torsions:
REMARK  status: ('A' for Active; 'I' for Inactive)
REMARK    1  A    between atoms: C_5  and  N_6
REMARK    2  A    between atoms: N_6  and  C_7
REMARK    3  A    between atoms: C_7  and  C_8
REMARK    4  A    between atoms: C_12  and  N_13
REMARK                            x       y       z     vdW  Elec       q    Type
REMARK                         _______ _______ _______ _____ _____    ______ ____
ROOT
ATOM      1  C   UNL     1      46.497   8.055  13.097  0.00  0.00    +0.000 A 
ATOM      2  C   UNL     1      45.991   9.161  12.398  0.00  0.00    +0.000 A 
ATOM      3  C   UNL     1      44.872   9.041  11.577  0.00  0.00    +0.000 A 
ATOM      4  C   UNL     1      44.261   7.797  11.415  0.00  0.00    +0.000 A 
ATOM      5  C   UNL     1      44.701   6.678  12.126  0.00  0.00    +0.000 A 
ATOM      6  C   UNL     1      45.762   6.855  13.020  0.00  0.00    +0.000 A 
ENDROOT
BRANCH   5   7
ATOM      7  N   UNL     1      44.191   5.420  11.904  0.00  0.00    +0.000 N 
ATOM      8  C   UNL     1      44.425   4.323  12.844  0.00  0.00    +0.000 C 
ATOM      9  C   UNL     1      45.144   3.157  12.138  0.00  0.00    +0.000 C 
ATOM     10  N   UNL     1      44.454   2.704  10.909  0.00  0.00    +0.000 NA
ATOM     11  C   UNL     1      44.296   3.863   9.999  0.00  0.00    +0.000 C 
ATOM     12  C   UNL     1      43.552   5.063  10.635  0.00  0.00    +0.000 C 
ATOM     13  H   UNL     1      43.520   2.393  11.177  0.00  0.00    +0.000 HD
ENDBRANCH   5   7
BRANCH   1  14
ATOM     14  C   UNL     1      47.864   8.086  13.784  0.00  0.00    +0.000 C 
ATOM     15  C   UNL     1      48.751   9.291  13.475  0.00  0.00    +0.000 C 
ATOM     16  C   UNL     1      48.097   9.189  14.807  0.00  0.00    +0.000 C 
BRANCH  14  17
ATOM     17  N   UNL     1      48.527   6.783  13.937  0.00  0.00    +0.000 N 
ATOM     18  H   UNL     1      48.384   6.097  13.200  0.00  0.00    +0.000 HD
BRANCH  17  23
ATOM     19 CL   UNL     1      48.540   3.878  18.972  0.00  0.00    +0.000 Cl
ATOM     20  C   UNL     1      48.547   4.713  17.480  0.00  0.00    +0.000 A 
ATOM     21  C   UNL     1      47.747   4.338  16.419  0.00  0.00    +0.000 A 
ATOM     22  N   UNL     1      47.732   5.008  15.237  0.00  0.00    +0.000 NA
ATOM     23  C   UNL     1      48.543   6.086  15.151  0.00  0.00    +0.000 A 
ATOM     24  C   UNL     1      49.364   6.429  16.234  0.00  0.00    +0.000 A 
ATOM     25  N   UNL     1      49.380   5.768  17.420  0.00  0.00    +0.000 NA
ENDBRANCH  17  23
ENDBRANCH  14  17
ENDBRANCH   1  14
TORSDOF 4
ENDMDL
MODEL 7
REMARK VINA RESULT:    -5.456      2.628      5.154
REMARK INTER + INTRA:          -6.871
REMARK INTER:                  -6.819
REMARK INTRA:                  -0.053
REMARK UNBOUND:                -0.140
REMARK  Name = 
REMARK  4 active torsions:
REMARK  status: ('A' for Active; 'I' for Inactive)
REMARK    1  A    between atoms: C_5  and  N_6
REMARK    2  A    between atoms: N_6  and  C_7
REMARK    3  A    between atoms: C_7  and  C_8
REMARK    4  A    between atoms: C_12  and  N_13
REMARK                            x       y       z     vdW  Elec       q    Type
REMARK                         _______ _______ _______ _____ _____    ______ ____
ROOT
ATOM      1  C   UNL     1      47.701   5.254  15.383  0.00  0.00    +0.000 A 
ATOM      2  C   UNL     1      47.354   3.906  15.560  0.00  0.00    +0.000 A 
ATOM      3  C   UNL     1      47.891   3.157  16.603  0.00  0.00    +0.000 A 
ATOM      4  C   UNL     1      48.817   3.738  17.469  0.00  0.00    +0.000 A 
ATOM      5  C   UNL     1      49.159   5.088  17.361  0.00  0.00    +0.000 A 
ATOM      6  C   UNL     1      48.523   5.839  16.366  0.00  0.00    +0.000 A 
ENDROOT
BRANCH   5   7
ATOM      7  N   UNL     1      50.148   5.660  18.128  0.00  0.00    +0.000 N 
ATOM      8  C   UNL     1      50.564   5.070  19.402  0.00  0.00    +0.000 C 
ATOM      9  C   UNL     1      50.362   6.078  20.550  0.00  0.00    +0.000 C 
ATOM     10  N   UNL     1      51.009   7.386  20.299  0.00  0.00    +0.000 NA
ATOM     11  C   UNL     1      50.501   7.929  19.017  0.00  0.00    +0.000 C 
ATOM     12  C   UNL     1      50.700   6.978  17.811  0.00  0.00    +0.000 C 
ATOM     13  H   UNL     1      52.010   7.218  20.188  0.00  0.00    +0.000 HD
ENDBRANCH   5   7
BRANCH   1  14
ATOM     14  C   UNL     1      47.347   6.023  14.108  0.00  0.00    +0.000 C 
ATOM     15  C   UNL     1      48.048   7.367  13.910  0.00  0.00    +0.000 C 
ATOM     16  C   UNL     1      48.455   6.200  13.080  0.00  0.00    +0.000 C 
BRANCH  14  17
ATOM     17  N   UNL     1      45.945   5.924  13.677  0.00  0.00    +0.000 N 
ATOM     18  H   UNL     1      45.241   5.802  14.401  0.00  0.00    +0.000 HD
BRANCH  17  23
ATOM     19 CL   UNL     1      44.325   2.658   9.150  0.00  0.00    +0.000 Cl
ATOM     20  C   UNL     1      44.778   3.618  10.490  0.00  0.00    +0.000 A 
ATOM     21  C   UNL     1      44.840   3.113  11.773  0.00  0.00    +0.000 A 
ATOM     22  N   UNL     1      45.219   3.864  12.841  0.00  0.00    +0.000 NA
ATOM     23  C   UNL     1      45.549   5.149  12.581  0.00  0.00    +0.000 A 
ATOM     24  C   UNL     1      45.453   5.642  11.273  0.00  0.00    +0.000 A 
ATOM     25  N   UNL     1      45.081   4.897  10.200  0.00  0.00    +0.000 NA
ENDBRANCH  17  23
ENDBRANCH  14  17
ENDBRANCH   1  14
TORSDOF 4
ENDMDL
MODEL 8
REMARK VINA RESULT:    -5.396      3.882      6.621
REMARK INTER + INTRA:          -6.797
REMARK INTER:                  -6.231
REMARK INTRA:                  -0.566
REMARK UNBOUND:                -0.140
REMARK  Name = 
REMARK  4 active torsions:
REMARK  status: ('A' for Active; 'I' for Inactive)
REMARK    1  A    between atoms: C_5  and  N_6
REMARK    2  A    between atoms: N_6  and  C_7
REMARK    3  A    between atoms: C_7  and  C_8
REMARK    4  A    between atoms: C_12  and  N_13
REMARK                            x       y       z     vdW  Elec       q    Type
REMARK                         _______ _______ _______ _____ _____    ______ ____
ROOT
ATOM      1  C   UNL     1      48.915   8.538  16.527  0.00  0.00    +0.000 A 
ATOM      2  C   UNL     1      48.389   9.741  17.023  0.00  0.00    +0.000 A 
ATOM      3  C   UNL     1      47.663   9.771  18.212  0.00  0.00    +0.000 A 
ATOM      4  C   UNL     1      47.421   8.586  18.907  0.00  0.00    +0.000 A 
ATOM      5  C   UNL     1      47.963   7.372  18.476  0.00  0.00    +0.000 A 
ATOM      6  C   UNL     1      48.773   7.394  17.335  0.00  0.00    +0.000 A 
ENDROOT
BRANCH   5   7
ATOM      7  N   UNL     1      47.652   6.174  19.077  0.00  0.00    +0.000 N 
ATOM      8  C   UNL     1      47.462   6.071  20.525  0.00  0.00    +0.000 C 
ATOM      9  C   UNL     1      48.461   5.064  21.125  0.00  0.00    +0.000 C 
ATOM     10  N   UNL     1      48.428   3.741  20.459  0.00  0.00    +0.000 NA
ATOM     11  C   UNL     1      48.670   3.934  19.010  0.00  0.00    +0.000 C 
ATOM     12  C   UNL     1      47.680   4.913  18.334  0.00  0.00    +0.000 C 
ATOM     13  H   UNL     1      47.485   3.366  20.568  0.00  0.00    +0.000 HD
ENDBRANCH   5   7
BRANCH   1  14
ATOM     14  C   UNL     1      49.475   8.423  15.108  0.00  0.00    +0.000 C 
ATOM     15  C   UNL     1      50.861   9.026  14.875  0.00  0.00    +0.000 C 
ATOM     16  C   UNL     1      50.706   7.547  14.922  0.00  0.00    +0.000 C 
BRANCH  14  17
ATOM     17  N   UNL     1      48.491   8.557  14.024  0.00  0.00    +0.000 N 
ATOM     18  H   UNL     1      48.001   9.445  13.946  0.00  0.00    +0.000 HD
BRANCH  17  23
ATOM     19 CL   UNL     1      44.623   4.407  12.761  0.00  0.00    +0.000 Cl
ATOM     20  C   UNL     1      45.765   5.630  13.108  0.00  0.00    +0.000 A 
ATOM     21  C   UNL     1      45.532   6.961  12.823  0.00  0.00    +0.000 A 
ATOM     22  N   UNL     1      46.426   7.943  13.115  0.00  0.00    +0.000 NA
ATOM     23  C   UNL     1      47.569   7.549  13.718  0.00  0.00    +0.000 A 
ATOM     24  C   UNL     1      47.791   6.189  13.972  0.00  0.00    +0.000 A 
ATOM     25  N   UNL     1      46.901   5.203  13.690  0.00  0.00    +0.000 NA
ENDBRANCH  17  23
ENDBRANCH  14  17
ENDBRANCH   1  14
TORSDOF 4
ENDMDL
MODEL 9
REMARK VINA RESULT:    -5.215      3.460      7.571
REMARK INTER + INTRA:          -6.575
REMARK INTER:                  -6.773
REMARK INTRA:                   0.199
REMARK UNBOUND:                -0.140
REMARK  Name = 
REMARK  4 active torsions:
REMARK  status: ('A' for Active; 'I' for Inactive)
REMARK    1  A    between atoms: C_5  and  N_6
REMARK    2  A    between atoms: N_6  and  C_7
REMARK    3  A    between atoms: C_7  and  C_8
REMARK    4  A    between atoms: C_12  and  N_13
REMARK                            x       y       z     vdW  Elec       q    Type
REMARK                         _______ _______ _______ _____ _____    ______ ____
ROOT
ATOM      1  C   UNL     1      46.924   6.331  13.080  0.00  0.00    +0.000 A 
ATOM      2  C   UNL     1      47.105   5.385  14.100  0.00  0.00    +0.000 A 
ATOM      3  C   UNL     1      46.599   4.093  13.979  0.00  0.00    +0.000 A 
ATOM      4  C   UNL     1      45.870   3.737  12.845  0.00  0.00    +0.000 A 
ATOM      5  C   UNL     1      45.703   4.631  11.784  0.00  0.00    +0.000 A 
ATOM      6  C   UNL     1      46.311   5.886  11.893  0.00  0.00    +0.000 A 
ENDROOT
BRANCH   5   7
ATOM      7  N   UNL     1      44.899   4.347  10.704  0.00  0.00    +0.000 N 
ATOM      8  C   UNL     1      44.010   3.184  10.697  0.00  0.00    +0.000 C 
ATOM      9  C   UNL     1      44.357   2.252   9.520  0.00  0.00    +0.000 C 
ATOM     10  N   UNL     1      44.381   2.948   8.212  0.00  0.00    +0.000 NA
ATOM     11  C   UNL     1      45.333   4.081   8.295  0.00  0.00    +0.000 C 
ATOM     12  C   UNL     1      45.025   5.076   9.440  0.00  0.00    +0.000 C 
ATOM     13  H   UNL     1      43.451   3.338   8.054  0.00  0.00    +0.000 HD
ENDBRANCH   5   7
BRANCH   1  14
ATOM     14  C   UNL     1      47.224   7.817  13.290  0.00  0.00    +0.000 C 
ATOM     15  C   UNL     1      48.015   8.512  12.182  0.00  0.00    +0.000 C 
ATOM     16  C   UNL     1      46.562   8.796  12.332  0.00  0.00    +0.000 C 
BRANCH  14  17
ATOM     17  N   UNL     1      47.512   8.217  14.675  0.00  0.00    +0.000 N 
ATOM     18  H   UNL     1      46.957   8.973  15.068  0.00  0.00    +0.000 HD
BRANCH  17  23
ATOM     19 CL   UNL     1      52.930   8.907  16.664  0.00  0.00    +0.000 Cl
ATOM     20  C   UNL     1      51.329   8.702  16.103  0.00  0.00    +0.000 A 
ATOM     21  C   UNL     1      50.360   9.673  16.262  0.00  0.00    +0.000 A 
ATOM     22  N   UNL     1      49.089   9.526  15.801  0.00  0.00    +0.000 NA
ATOM     23  C   UNL     1      48.818   8.370  15.156  0.00  0.00    +0.000 A 
ATOM     24  C   UNL     1      49.813   7.391  15.031  0.00  0.00    +0.000 A 
ATOM     25  N   UNL     1      51.086   7.532  15.483  0.00  0.00    +0.000 NA
ENDBRANCH  17  23
ENDBRANCH  14  17
ENDBRANCH   1  14
TORSDOF 4
ENDMDL
