MODEL 1
REMARK VINA RESULT:    -6.645      0.000      0.000
REMARK INTER + INTRA:          -8.651
REMARK INTER:                  -8.198
REMARK INTRA:                  -0.452
REMARK UNBOUND:                -0.452
REMARK  Name = 
REMARK  4 active torsions:
REMARK  status: ('A' for Active; 'I' for Inactive)
REMARK    1  A    between atoms: C_2  and  C_4
REMARK    2  A    between atoms: C_7  and  C_8
REMARK    3  A    between atoms: C_9  and  C_10
REMARK    4  A    between atoms: C_14  and  C_15
REMARK                            x       y       z     vdW  Elec       q    Type
REMARK                         _______ _______ _______ _____ _____    ______ ____
ROOT
ATOM      1  C   UNL     1      46.436   4.614  14.268  0.00  0.00    +0.000 C 
ATOM      2  C   UNL     1      45.855   4.583  13.219  0.00  0.00    +0.000 C 
ENDROOT
BRANCH   1   6
ATOM      3  C   UNL     1      48.580   4.523  17.921  0.00  0.00    +0.000 A 
ATOM      4  C   UNL     1      48.743   5.603  17.046  0.00  0.00    +0.000 A 
ATOM      5  C   UNL     1      48.045   5.630  15.831  0.00  0.00    +0.000 A 
ATOM      6  C   UNL     1      47.179   4.585  15.494  0.00  0.00    +0.000 A 
ATOM      7  C   UNL     1      47.023   3.504  16.366  0.00  0.00    +0.000 A 
ATOM      8  C   UNL     1      47.725   3.469  17.573  0.00  0.00    +0.000 A 
BRANCH   3  10
ATOM      9  N   UNL     1      48.662   3.868  20.267  0.00  0.00    +0.000 N 
ATOM     10  C   UNL     1      49.318   4.426  19.206  0.00  0.00    +0.000 C 
ATOM     11  O   UNL     1      50.480   4.795  19.305  0.00  0.00    +0.000 OA
ATOM     12  H   UNL     1      49.219   3.705  21.097  0.00  0.00    +0.000 HD
ATOM     13  H   UNL     1      47.801   3.350  20.168  0.00  0.00    +0.000 HD
ENDBRANCH   3  10
ENDBRANCH   1   6
BRANCH   2  14
ATOM     14  C   UNL     1      45.212   4.479  11.946  0.00  0.00    +0.000 A 
ATOM     15  C   UNL     1      43.947   5.013  11.748  0.00  0.00    +0.000 A 
ATOM     16  N   UNL     1      43.270   4.947  10.583  0.00  0.00    +0.000 NA
ATOM     17  C   UNL     1      43.891   4.306   9.567  0.00  0.00    +0.000 A 
ATOM     18  C   UNL     1      45.164   3.732   9.637  0.00  0.00    +0.000 A 
ATOM     19  C   UNL     1      45.823   3.836  10.872  0.00  0.00    +0.000 A 
BRANCH  18  20
ATOM     20  C   UNL     1      45.775   3.058   8.480  0.00  0.00    +0.000 A 
ATOM     21  C   UNL     1      46.046   1.685   8.498  0.00  0.00    +0.000 A 
ATOM     22  C   UNL     1      46.620   1.092   7.386  0.00  0.00    +0.000 A 
ATOM     23  N   UNL     1      46.943   1.763   6.265  0.00  0.00    +0.000 NA
ATOM     24  C   UNL     1      46.681   3.085   6.254  0.00  0.00    +0.000 A 
ATOM     25  C   UNL     1      46.109   3.764   7.318  0.00  0.00    +0.000 A 
ENDBRANCH  18  20
ENDBRANCH   2  14
TORSDOF 4
ENDMDL
MODEL 2
REMARK VINA RESULT:    -6.274      4.310      5.000
REMARK INTER + INTRA:          -8.194
REMARK INTER:                  -7.750
REMARK INTRA:                  -0.444
REMARK UNBOUND:                -0.452
REMARK  Name = 
REMARK  4 active torsions:
REMARK  status: ('A' for Active; 'I' for Inactive)
REMARK    1  A    between atoms: C_2  and  C_4
REMARK    2  A    between atoms: C_7  and  C_8
REMARK    3  A    between atoms: C_9  and  C_10
REMARK    4  A    between atoms: C_14  and  C_15
REMARK                            x       y       z     vdW  Elec       q    Type
REMARK                         _______ _______ _______ _____ _____    ______ ____
ROOT
ATOM      1  C   UNL     1      46.291   7.637  11.904  0.00  0.00    +0.000 C 
ATOM      2  C   UNL     1      45.745   6.693  11.404  0.00  0.00    +0.000 C 
ENDROOT
BRANCH   1   6
ATOM      3  C   UNL     1      48.408  10.876  13.628  0.00  0.00    +0.000 A 
ATOM      4  C   UNL     1      47.749  11.048  12.405  0.00  0.00    +0.000 A 
ATOM      5  C   UNL     1      47.059   9.975  11.826  0.00  0.00    +0.000 A 
ATOM      6  C   UNL     1      47.018   8.735  12.471  0.00  0.00    +0.000 A 
ATOM      7  C   UNL     1      47.683   8.564  13.688  0.00  0.00    +0.000 A 
ATOM      8  C   UNL     1      48.380   9.629  14.263  0.00  0.00    +0.000 A 
BRANCH   3  10
ATOM      9  N   UNL     1      48.664  12.518  15.411  0.00  0.00    +0.000 N 
ATOM     10  C   UNL     1      49.181  11.969  14.271  0.00  0.00    +0.000 C 
ATOM     11  O   UNL     1      50.258  12.339  13.824  0.00  0.00    +0.000 OA
ATOM     12  H   UNL     1      49.261  13.176  15.896  0.00  0.00    +0.000 HD
ATOM     13  H   UNL     1      47.911  12.092  15.931  0.00  0.00    +0.000 HD
ENDBRANCH   3  10
ENDBRANCH   1   6
BRANCH   2  14
ATOM     14  C   UNL     1      45.171   5.541  10.780  0.00  0.00    +0.000 A 
ATOM     15  C   UNL     1      43.922   5.078  11.166  0.00  0.00    +0.000 A 
ATOM     16  N   UNL     1      43.318   3.994  10.635  0.00  0.00    +0.000 NA
ATOM     17  C   UNL     1      44.006   3.337   9.674  0.00  0.00    +0.000 A 
ATOM     18  C   UNL     1      45.267   3.706   9.195  0.00  0.00    +0.000 A 
ATOM     19  C   UNL     1      45.843   4.844   9.780  0.00  0.00    +0.000 A 
BRANCH  18  20
ATOM     20  C   UNL     1      45.948   2.941   8.137  0.00  0.00    +0.000 A 
ATOM     21  C   UNL     1      46.355   3.552   6.945  0.00  0.00    +0.000 A 
ATOM     22  C   UNL     1      46.994   2.795   5.979  0.00  0.00    +0.000 A 
ATOM     23  N   UNL     1      47.256   1.481   6.111  0.00  0.00    +0.000 NA
ATOM     24  C   UNL     1      46.860   0.898   7.260  0.00  0.00    +0.000 A 
ATOM     25  C   UNL     1      46.215   1.575   8.283  0.00  0.00    +0.000 A 
ENDBRANCH  18  20
ENDBRANCH   2  14
TORSDOF 4
ENDMDL
MODEL 3
REMARK VINA RESULT:    -5.899      3.565     10.299
REMARK INTER + INTRA:          -7.731
REMARK INTER:                  -7.265
REMARK INTRA:                  -0.466
REMARK UNBOUND:                -0.452
REMARK  Name = 
REMARK  4 active torsions:
REMARK  status: ('A' for Active; 'I' for Inactive)
REMARK    1  A    between atoms: C_2  and  C_4
REMARK    2  A    between atoms: C_7  and  C_8
REMARK    3  A    between atoms: C_9  and  C_10
REMARK    4  A    between atoms: C_14  and  C_15
REMARK                            x       y       z     vdW  Elec       q    Type
REMARK                         _______ _______ _______ _____ _____    ______ ____
ROOT
ATOM      1  C   UNL     1      46.920   4.542  14.696  0.00  0.00    +0.000 C 
ATOM      2  C   UNL     1      47.315   4.555  15.829  0.00  0.00    +0.000 C 
ENDROOT
BRANCH   1   6
ATOM      3  C   UNL     1      45.618   4.696  10.668  0.00  0.00    +0.000 A 
ATOM      4  C   UNL     1      46.219   5.820  11.248  0.00  0.00    +0.000 A 
ATOM      5  C   UNL     1      46.639   5.776  12.584  0.00  0.00    +0.000 A 
ATOM      6  C   UNL     1      46.468   4.610  13.337  0.00  0.00    +0.000 A 
ATOM      7  C   UNL     1      45.862   3.492  12.758  0.00  0.00    +0.000 A 
ATOM      8  C   UNL     1      45.433   3.536  11.429  0.00  0.00    +0.000 A 
BRANCH   3  10
ATOM      9  N   UNL     1      43.825   4.331   9.058  0.00  0.00    +0.000 N 
ATOM     10  C   UNL     1      45.125   4.696   9.267  0.00  0.00    +0.000 C 
ATOM     11  O   UNL     1      45.840   5.047   8.337  0.00  0.00    +0.000 OA
ATOM     12  H   UNL     1      43.477   4.450   8.115  0.00  0.00    +0.000 HD
ATOM     13  H   UNL     1      43.150   4.260   9.804  0.00  0.00    +0.000 HD
ENDBRANCH   3  10
ENDBRANCH   1   6
BRANCH   2  14
ATOM     14  C   UNL     1      47.801   4.655  17.170  0.00  0.00    +0.000 A 
ATOM     15  C   UNL     1      48.550   3.629  17.728  0.00  0.00    +0.000 A 
ATOM     16  N   UNL     1      49.035   3.643  18.987  0.00  0.00    +0.000 NA
ATOM     17  C   UNL     1      48.747   4.737  19.726  0.00  0.00    +0.000 A 
ATOM     18  C   UNL     1      48.009   5.837  19.280  0.00  0.00    +0.000 A 
ATOM     19  C   UNL     1      47.535   5.770  17.960  0.00  0.00    +0.000 A 
BRANCH  18  20
ATOM     20  C   UNL     1      47.746   6.998  20.146  0.00  0.00    +0.000 A 
ATOM     21  C   UNL     1      47.754   8.302  19.637  0.00  0.00    +0.000 A 
ATOM     22  C   UNL     1      47.499   9.364  20.488  0.00  0.00    +0.000 A 
ATOM     23  N   UNL     1      47.238   9.222  21.801  0.00  0.00    +0.000 NA
ATOM     24  C   UNL     1      47.233   7.965  22.285  0.00  0.00    +0.000 A 
ATOM     25  C   UNL     1      47.476   6.842  21.511  0.00  0.00    +0.000 A 
ENDBRANCH  18  20
ENDBRANCH   2  14
TORSDOF 4
ENDMDL
MODEL 4
REMARK VINA RESULT:    -5.765      3.281      9.800
REMARK INTER + INTRA:          -7.566
REMARK INTER:                  -7.097
REMARK INTRA:                  -0.469
REMARK UNBOUND:                -0.452
REMARK  Name = 
REMARK  4 active torsions:
REMARK  status: ('A' for Active; 'I' for Inactive)
REMARK    1  A    between atoms: C_2  and  C_4
REMARK    2  A    between atoms: C_7  and  C_8
REMARK    3  A    between atoms: C_9  and  C_10
REMARK    4  A    between atoms: C_14  and  C_15
REMARK                            x       y       z     vdW  Elec       q    Type
REMARK                         _______ _______ _______ _____ _____    ______ ____
ROOT
ATOM      1  C   UNL     1      46.984   4.616  14.810  0.00  0.00    +0.000 C 
ATOM      2  C   UNL     1      47.436   4.663  15.921  0.00  0.00    +0.000 C 
ENDROOT
BRANCH   1   6
ATOM      3  C   UNL     1      45.509   4.695  10.840  0.00  0.00    +0.000 A 
ATOM      4  C   UNL     1      45.363   3.537  11.613  0.00  0.00    +0.000 A 
ATOM      5  C   UNL     1      45.862   3.504  12.922  0.00  0.00    +0.000 A 
ATOM      6  C   UNL     1      46.496   4.627  13.462  0.00  0.00    +0.000 A 
ATOM      7  C   UNL     1      46.646   5.779  12.686  0.00  0.00    +0.000 A 
ATOM      8  C   UNL     1      46.159   5.812  11.377  0.00  0.00    +0.000 A 
BRANCH   3  10
ATOM      9  N   UNL     1      43.682   4.676   9.226  0.00  0.00    +0.000 N 
ATOM     10  C   UNL     1      45.028   4.776   9.437  0.00  0.00    +0.000 C 
ATOM     11  O   UNL     1      45.801   4.962   8.507  0.00  0.00    +0.000 OA
ATOM     12  H   UNL     1      43.367   4.850   8.280  0.00  0.00    +0.000 HD
ATOM     13  H   UNL     1      43.005   4.753   9.971  0.00  0.00    +0.000 HD
ENDBRANCH   3  10
ENDBRANCH   1   6
BRANCH   2  14
ATOM     14  C   UNL     1      48.023   4.786  17.219  0.00  0.00    +0.000 A 
ATOM     15  C   UNL     1      47.276   5.255  18.290  0.00  0.00    +0.000 A 
ATOM     16  N   UNL     1      47.758   5.410  19.540  0.00  0.00    +0.000 NA
ATOM     17  C   UNL     1      49.058   5.084  19.724  0.00  0.00    +0.000 A 
ATOM     18  C   UNL     1      49.912   4.595  18.731  0.00  0.00    +0.000 A 
ATOM     19  C   UNL     1      49.354   4.451  17.451  0.00  0.00    +0.000 A 
BRANCH  18  20
ATOM     20  C   UNL     1      51.316   4.254  19.015  0.00  0.00    +0.000 A 
ATOM     21  C   UNL     1      51.928   4.633  20.216  0.00  0.00    +0.000 A 
ATOM     22  C   UNL     1      53.249   4.289  20.441  0.00  0.00    +0.000 A 
ATOM     23  N   UNL     1      54.002   3.600  19.563  0.00  0.00    +0.000 NA
ATOM     24  C   UNL     1      53.408   3.240  18.409  0.00  0.00    +0.000 A 
ATOM     25  C   UNL     1      52.091   3.539  18.096  0.00  0.00    +0.000 A 
ENDBRANCH  18  20
ENDBRANCH   2  14
TORSDOF 4
ENDMDL
MODEL 5
REMARK VINA RESULT:    -5.577      3.570      9.843
REMARK INTER + INTRA:          -7.334
REMARK INTER:                  -6.862
REMARK INTRA:                  -0.472
REMARK UNBOUND:                -0.452
REMARK  Name = 
REMARK  4 active torsions:
REMARK  status: ('A' for Active; 'I' for Inactive)
REMARK    1  A    between atoms: C_2  and  C_4
REMARK    2  A    between atoms: C_7  and  C_8
REMARK    3  A    between atoms: C_9  and  C_10
REMARK    4  A    between atoms: C_14  and  C_15
REMARK                            x       y       z     vdW  Elec       q    Type
REMARK                         _______ _______ _______ _____ _____    ______ ____
ROOT
ATOM      1  C   UNL     1      47.773   5.724  14.750  0.00  0.00    +0.000 C 
ATOM      2  C   UNL     1      48.428   5.840  15.749  0.00  0.00    +0.000 C 
ENDROOT
BRANCH   1   6
ATOM      3  C   UNL     1      45.311   5.145  11.352  0.00  0.00    +0.000 A 
ATOM      4  C   UNL     1      46.015   6.345  11.504  0.00  0.00    +0.000 A 
ATOM      5  C   UNL     1      46.820   6.544  12.633  0.00  0.00    +0.000 A 
ATOM      6  C   UNL     1      46.930   5.545  13.604  0.00  0.00    +0.000 A 
ATOM      7  C   UNL     1      46.220   4.350  13.454  0.00  0.00    +0.000 A 
ATOM      8  C   UNL     1      45.409   4.152  12.334  0.00  0.00    +0.000 A 
BRANCH   3  10
ATOM      9  N   UNL     1      45.010   4.653   8.984  0.00  0.00    +0.000 N 
ATOM     10  C   UNL     1      44.418   4.892  10.192  0.00  0.00    +0.000 C 
ATOM     11  O   UNL     1      43.201   4.861  10.317  0.00  0.00    +0.000 OA
ATOM     12  H   UNL     1      44.391   4.368   8.235  0.00  0.00    +0.000 HD
ATOM     13  H   UNL     1      45.993   4.444   8.888  0.00  0.00    +0.000 HD
ENDBRANCH   3  10
ENDBRANCH   1   6
BRANCH   2  14
ATOM     14  C   UNL     1      49.147   5.937  16.981  0.00  0.00    +0.000 A 
ATOM     15  C   UNL     1      48.866   6.952  17.884  0.00  0.00    +0.000 A 
ATOM     16  N   UNL     1      49.505   7.118  19.061  0.00  0.00    +0.000 NA
ATOM     17  C   UNL     1      50.481   6.225  19.342  0.00  0.00    +0.000 A 
ATOM     18  C   UNL     1      50.853   5.157  18.520  0.00  0.00    +0.000 A 
ATOM     19  C   UNL     1      50.151   5.031  17.312  0.00  0.00    +0.000 A 
BRANCH  18  20
ATOM     20  C   UNL     1      51.923   4.221  18.903  0.00  0.00    +0.000 A 
ATOM     21  C   UNL     1      52.656   4.397  20.083  0.00  0.00    +0.000 A 
ATOM     22  C   UNL     1      53.651   3.490  20.405  0.00  0.00    +0.000 A 
ATOM     23  N   UNL     1      53.969   2.428  19.642  0.00  0.00    +0.000 NA
ATOM     24  C   UNL     1      53.261   2.265  18.507  0.00  0.00    +0.000 A 
ATOM     25  C   UNL     1      52.248   3.119  18.103  0.00  0.00    +0.000 A 
ENDBRANCH  18  20
ENDBRANCH   2  14
TORSDOF 4
ENDMDL
MODEL 6
REMARK VINA RESULT:    -5.572      2.696      3.230
REMARK INTER + INTRA:          -7.327
REMARK INTER:                  -6.887
REMARK INTRA:                  -0.441
REMARK UNBOUND:                -0.452
REMARK  Name = 
REMARK  4 active torsions:
REMARK  status: ('A' for Active; 'I' for Inactive)
REMARK    1  A    between atoms: C_2  and  C_4
REMARK    2  A    between atoms: C_7  and  C_8
REMARK    3  A    between atoms: C_9  and  C_10
REMARK    4  A    between atoms: C_14  and  C_15
REMARK                            x       y       z     vdW  Elec       q    Type
REMARK                         _______ _______ _______ _____ _____    ______ ____
ROOT
ATOM      1  C   UNL     1      46.793   6.824  13.032  0.00  0.00    +0.000 C 
ATOM      2  C   UNL     1      46.112   6.248  12.230  0.00  0.00    +0.000 C 
ENDROOT
BRANCH   1   6
ATOM      3  C   UNL     1      49.379   8.718  15.802  0.00  0.00    +0.000 A 
ATOM      4  C   UNL     1      48.548   9.493  14.984  0.00  0.00    +0.000 A 
ATOM      5  C   UNL     1      47.701   8.870  14.059  0.00  0.00    +0.000 A 
ATOM      6  C   UNL     1      47.676   7.476  13.954  0.00  0.00    +0.000 A 
ATOM      7  C   UNL     1      48.513   6.704  14.766  0.00  0.00    +0.000 A 
ATOM      8  C   UNL     1      49.365   7.323  15.684  0.00  0.00    +0.000 A 
BRANCH   3  10
ATOM      9  N   UNL     1      50.079   9.103  18.104  0.00  0.00    +0.000 N 
ATOM     10  C   UNL     1      50.319   9.325  16.778  0.00  0.00    +0.000 C 
ATOM     11  O   UNL     1      51.294   9.969  16.412  0.00  0.00    +0.000 OA
ATOM     12  H   UNL     1      50.794   9.425  18.745  0.00  0.00    +0.000 HD
ATOM     13  H   UNL     1      49.433   8.400  18.433  0.00  0.00    +0.000 HD
ENDBRANCH   3  10
ENDBRANCH   1   6
BRANCH   2  14
ATOM     14  C   UNL     1      45.372   5.523  11.244  0.00  0.00    +0.000 A 
ATOM     15  C   UNL     1      43.987   5.596  11.205  0.00  0.00    +0.000 A 
ATOM     16  N   UNL     1      43.218   4.937  10.315  0.00  0.00    +0.000 NA
ATOM     17  C   UNL     1      43.871   4.158   9.422  0.00  0.00    +0.000 A 
ATOM     18  C   UNL     1      45.258   4.005   9.353  0.00  0.00    +0.000 A 
ATOM     19  C   UNL     1      46.008   4.719  10.301  0.00  0.00    +0.000 A 
BRANCH  18  20
ATOM     20  C   UNL     1      45.894   3.143   8.343  0.00  0.00    +0.000 A 
ATOM     21  C   UNL     1      46.402   3.672   7.151  0.00  0.00    +0.000 A 
ATOM     22  C   UNL     1      46.994   2.825   6.231  0.00  0.00    +0.000 A 
ATOM     23  N   UNL     1      47.115   1.496   6.409  0.00  0.00    +0.000 NA
ATOM     24  C   UNL     1      46.623   0.992   7.558  0.00  0.00    +0.000 A 
ATOM     25  C   UNL     1      46.015   1.762   8.537  0.00  0.00    +0.000 A 
ENDBRANCH  18  20
ENDBRANCH   2  14
TORSDOF 4
ENDMDL
MODEL 7
REMARK VINA RESULT:    -5.556      3.788     10.337
REMARK INTER + INTRA:          -7.308
REMARK INTER:                  -6.826
REMARK INTRA:                  -0.482
REMARK UNBOUND:                -0.452
REMARK  Name = 
REMARK  4 active torsions:
REMARK  status: ('A' for Active; 'I' for Inactive)
REMARK    1  A    between atoms: C_2  and  C_4
REMARK    2  A    between atoms: C_7  and  C_8
REMARK    3  A    between atoms: C_9  and  C_10
REMARK    4  A    between atoms: C_14  and  C_15
REMARK                            x       y       z     vdW  Elec       q    Type
REMARK                         _______ _______ _______ _____ _____    ______ ____
ROOT
ATOM      1  C   UNL     1      47.758   6.183  13.988  0.00  0.00    +0.000 C 
ATOM      2  C   UNL     1      48.481   6.608  14.846  0.00  0.00    +0.000 C 
ENDROOT
BRANCH   1   6
ATOM      3  C   UNL     1      45.096   4.529  11.139  0.00  0.00    +0.000 A 
ATOM      4  C   UNL     1      45.720   5.755  10.878  0.00  0.00    +0.000 A 
ATOM      5  C   UNL     1      46.591   6.310  11.824  0.00  0.00    +0.000 A 
ATOM      6  C   UNL     1      46.846   5.640  13.024  0.00  0.00    +0.000 A 
ATOM      7  C   UNL     1      46.217   4.420  13.285  0.00  0.00    +0.000 A 
ATOM      8  C   UNL     1      45.340   3.868  12.349  0.00  0.00    +0.000 A 
BRANCH   3  10
ATOM      9  N   UNL     1      44.003   4.495   8.960  0.00  0.00    +0.000 N 
ATOM     10  C   UNL     1      44.139   3.909  10.187  0.00  0.00    +0.000 C 
ATOM     11  O   UNL     1      43.523   2.890  10.472  0.00  0.00    +0.000 OA
ATOM     12  H   UNL     1      43.438   3.992   8.288  0.00  0.00    +0.000 HD
ATOM     13  H   UNL     1      44.651   5.185   8.609  0.00  0.00    +0.000 HD
ENDBRANCH   3  10
ENDBRANCH   1   6
BRANCH   2  14
ATOM     14  C   UNL     1      49.293   7.074  15.927  0.00  0.00    +0.000 A 
ATOM     15  C   UNL     1      50.636   7.360  15.730  0.00  0.00    +0.000 A 
ATOM     16  N   UNL     1      51.469   7.792  16.699  0.00  0.00    +0.000 NA
ATOM     17  C   UNL     1      50.929   7.938  17.931  0.00  0.00    +0.000 A 
ATOM     18  C   UNL     1      49.593   7.690  18.256  0.00  0.00    +0.000 A 
ATOM     19  C   UNL     1      48.772   7.247  17.207  0.00  0.00    +0.000 A 
BRANCH  18  20
ATOM     20  C   UNL     1      49.079   7.882  19.622  0.00  0.00    +0.000 A 
ATOM     21  C   UNL     1      47.918   7.234  20.060  0.00  0.00    +0.000 A 
ATOM     22  C   UNL     1      47.472   7.442  21.354  0.00  0.00    +0.000 A 
ATOM     23  N   UNL     1      48.094   8.244  22.239  0.00  0.00    +0.000 NA
ATOM     24  C   UNL     1      49.210   8.866  21.810  0.00  0.00    +0.000 A 
ATOM     25  C   UNL     1      49.731   8.718  20.535  0.00  0.00    +0.000 A 
ENDBRANCH  18  20
ENDBRANCH   2  14
TORSDOF 4
ENDMDL
MODEL 8
REMARK VINA RESULT:    -5.504      3.514     10.168
REMARK INTER + INTRA:          -7.243
REMARK INTER:                  -6.760
REMARK INTRA:                  -0.484
REMARK UNBOUND:                -0.452
REMARK  Name = 
REMARK  4 active torsions:
REMARK  status: ('A' for Active; 'I' for Inactive)
REMARK    1  A    between atoms: C_2  and  C_4
REMARK    2  A    between atoms: C_7  and  C_8
REMARK    3  A    between atoms: C_9  and  C_10
REMARK    4  A    between atoms: C_14  and  C_15
REMARK                            x       y       z     vdW  Elec       q    Type
REMARK                         _______ _______ _______ _____ _____    ______ ____
ROOT
ATOM      1  C   UNL     1      47.758   6.186  14.011  0.00  0.00    +0.000 C 
ATOM      2  C   UNL     1      48.525   6.553  14.858  0.00  0.00    +0.000 C 
ENDROOT
BRANCH   1   6
ATOM      3  C   UNL     1      45.071   4.611  11.140  0.00  0.00    +0.000 A 
ATOM      4  C   UNL     1      45.758   5.800  10.871  0.00  0.00    +0.000 A 
ATOM      5  C   UNL     1      46.638   6.330  11.824  0.00  0.00    +0.000 A 
ATOM      6  C   UNL     1      46.839   5.670  13.040  0.00  0.00    +0.000 A 
ATOM      7  C   UNL     1      46.146   4.486  13.310  0.00  0.00    +0.000 A 
ATOM      8  C   UNL     1      45.261   3.960  12.366  0.00  0.00    +0.000 A 
BRANCH   3  10
ATOM      9  N   UNL     1      44.114   4.500   8.901  0.00  0.00    +0.000 N 
ATOM     10  C   UNL     1      44.104   4.020  10.181  0.00  0.00    +0.000 C 
ATOM     11  O   UNL     1      43.351   3.113  10.509  0.00  0.00    +0.000 OA
ATOM     12  H   UNL     1      43.532   4.006   8.237  0.00  0.00    +0.000 HD
ATOM     13  H   UNL     1      44.862   5.073   8.538  0.00  0.00    +0.000 HD
ENDBRANCH   3  10
ENDBRANCH   1   6
BRANCH   2  14
ATOM     14  C   UNL     1      49.435   6.912  15.901  0.00  0.00    +0.000 A 
ATOM     15  C   UNL     1      50.526   7.727  15.638  0.00  0.00    +0.000 A 
ATOM     16  N   UNL     1      51.434   8.102  16.563  0.00  0.00    +0.000 NA
ATOM     17  C   UNL     1      51.241   7.628  17.815  0.00  0.00    +0.000 A 
ATOM     18  C   UNL     1      50.181   6.806  18.209  0.00  0.00    +0.000 A 
ATOM     19  C   UNL     1      49.265   6.453  17.205  0.00  0.00    +0.000 A 
BRANCH  18  20
ATOM     20  C   UNL     1      50.037   6.339  19.597  0.00  0.00    +0.000 A 
ATOM     21  C   UNL     1      49.220   5.247  19.916  0.00  0.00    +0.000 A 
ATOM     22  C   UNL     1      49.115   4.841  21.235  0.00  0.00    +0.000 A 
ATOM     23  N   UNL     1      49.762   5.438  22.254  0.00  0.00    +0.000 NA
ATOM     24  C   UNL     1      50.546   6.488  21.941  0.00  0.00    +0.000 A 
ATOM     25  C   UNL     1      50.712   6.966  20.651  0.00  0.00    +0.000 A 
ENDBRANCH  18  20
ENDBRANCH   2  14
TORSDOF 4
ENDMDL
MODEL 9
REMARK VINA RESULT:    -5.261      6.749      8.194
REMARK INTER + INTRA:          -6.943
REMARK INTER:                  -6.473
REMARK INTRA:                  -0.470
REMARK UNBOUND:                -0.452
REMARK  Name = 
REMARK  4 active torsions:
REMARK  status: ('A' for Active; 'I' for Inactive)
REMARK    1  A    between atoms: C_2  and  C_4
REMARK    2  A    between atoms: C_7  and  C_8
REMARK    3  A    between atoms: C_9  and  C_10
REMARK    4  A    between atoms: C_14  and  C_15
REMARK                            x       y       z     vdW  Elec       q    Type
REMARK                         _______ _______ _______ _____ _____    ______ ____
ROOT
ATOM      1  C   UNL     1      49.784   8.867  11.692  0.00  0.00    +0.000 C 
ATOM      2  C   UNL     1      49.097   8.054  12.246  0.00  0.00    +0.000 C 
ENDROOT
BRANCH   1   6
ATOM      3  C   UNL     1      52.341  11.542   9.631  0.00  0.00    +0.000 A 
ATOM      4  C   UNL     1      51.047  11.947   9.980  0.00  0.00    +0.000 A 
ATOM      5  C   UNL     1      50.195  11.059  10.651  0.00  0.00    +0.000 A 
ATOM      6  C   UNL     1      50.635   9.774  10.980  0.00  0.00    +0.000 A 
ATOM      7  C   UNL     1      51.925   9.370  10.624  0.00  0.00    +0.000 A 
ATOM      8  C   UNL     1      52.774  10.248   9.947  0.00  0.00    +0.000 A 
BRANCH   3  10
ATOM      9  N   UNL     1      54.393  12.855   9.554  0.00  0.00    +0.000 N 
ATOM     10  C   UNL     1      53.275  12.429   8.892  0.00  0.00    +0.000 C 
ATOM     11  O   UNL     1      53.076  12.737   7.725  0.00  0.00    +0.000 OA
ATOM     12  H   UNL     1      55.072  13.360   8.998  0.00  0.00    +0.000 HD
ATOM     13  H   UNL     1      54.705  12.445  10.421  0.00  0.00    +0.000 HD
ENDBRANCH   3  10
ENDBRANCH   1   6
BRANCH   2  14
ATOM     14  C   UNL     1      48.313   7.025  12.856  0.00  0.00    +0.000 A 
ATOM     15  C   UNL     1      48.607   6.578  14.135  0.00  0.00    +0.000 A 
ATOM     16  N   UNL     1      47.924   5.606  14.775  0.00  0.00    +0.000 NA
ATOM     17  C   UNL     1      46.898   5.048  14.092  0.00  0.00    +0.000 A 
ATOM     18  C   UNL     1      46.498   5.413  12.803  0.00  0.00    +0.000 A 
ATOM     19  C   UNL     1      47.242   6.433  12.190  0.00  0.00    +0.000 A 
BRANCH  18  20
ATOM     20  C   UNL     1      45.362   4.762  12.130  0.00  0.00    +0.000 A 
ATOM     21  C   UNL     1      44.610   3.769  12.769  0.00  0.00    +0.000 A 
ATOM     22  C   UNL     1      43.549   3.185  12.100  0.00  0.00    +0.000 A 
ATOM     23  N   UNL     1      43.184   3.516  10.847  0.00  0.00    +0.000 NA
ATOM     24  C   UNL     1      43.912   4.472  10.237  0.00  0.00    +0.000 A 
ATOM     25  C   UNL     1      44.990   5.112  10.827  0.00  0.00    +0.000 A 
ENDBRANCH  18  20
ENDBRANCH   2  14
TORSDOF 4
ENDMDL
