MODEL 1
REMARK VINA RESULT:    -7.875      0.000      0.000
REMARK INTER + INTRA:         -11.615
REMARK INTER:                 -10.867
REMARK INTRA:                  -0.748
REMARK UNBOUND:                -0.748
REMARK  Name = 
REMARK  8 active torsions:
REMARK  status: ('A' for Active; 'I' for Inactive)
REMARK    1  A    between atoms: C_1  and  C_2
REMARK    2  A    between atoms: C_2  and  C_3
REMARK    3  A    between atoms: C_2  and  C_14
REMARK    4  A    between atoms: C_3  and  O_4
REMARK    5  A    between atoms: O_4  and  C_5
REMARK    6  A    between atoms: C_8  and  C_9
REMARK    7  A    between atoms: C_18  and  C_19
REMARK    8  A    between atoms: C_19  and  N_20
REMARK                            x       y       z     vdW  Elec       q    Type
REMARK                         _______ _______ _______ _____ _____    ______ ____
ROOT
ATOM      1  C   UNL     1      43.494   5.104  10.422  0.00  0.00    +0.000 C 
ENDROOT
BRANCH   1   3
ATOM      2  C   UNL     1      42.816   4.960  12.867  0.00  0.00    +0.000 C 
ATOM      3  C   UNL     1      43.670   5.704  11.829  0.00  0.00    +0.000 C 
BRANCH   3   4
ATOM      4  C   UNL     1      45.129   5.749  12.261  0.00  0.00    +0.000 A 
ATOM      5  C   UNL     1      46.039   6.582  11.597  0.00  0.00    +0.000 A 
ATOM      6  C   UNL     1      47.343   6.730  12.074  0.00  0.00    +0.000 A 
ATOM      7  C   UNL     1      47.754   6.052  13.224  0.00  0.00    +0.000 A 
ATOM      8  C   UNL     1      46.872   5.194  13.894  0.00  0.00    +0.000 A 
ATOM      9  C   UNL     1      45.576   5.027  13.380  0.00  0.00    +0.000 A 
BRANCH   8  10
ATOM     10  C   UNL     1      47.284   4.466  15.151  0.00  0.00    +0.000 C 
BRANCH  10  11
ATOM     11  N   UNL     1      47.716   3.096  14.876  0.00  0.00    +0.000 NA
ATOM     12  H   UNL     1      47.567   2.892  13.889  0.00  0.00    +0.000 HD
ATOM     13  H   UNL     1      47.125   2.451  15.396  0.00  0.00    +0.000 HD
ENDBRANCH  10  11
ENDBRANCH   8  10
ENDBRANCH   3   4
ENDBRANCH   1   3
BRANCH   1  14
ATOM     14  O   UNL     1      43.842   3.703  10.441  0.00  0.00    +0.000 OA
BRANCH  14  15
ATOM     15  C   UNL     1      44.757   3.362   9.466  0.00  0.00    +0.000 A 
ATOM     16  C   UNL     1      45.319   4.355   8.666  0.00  0.00    +0.000 A 
ATOM     17  N   UNL     1      46.213   4.091   7.660  0.00  0.00    +0.000 NA
ATOM     18  C   UNL     1      46.526   2.772   7.516  0.00  0.00    +0.000 A 
ATOM     19  C   UNL     1      45.980   1.791   8.329  0.00  0.00    +0.000 A 
ATOM     20  N   UNL     1      45.082   2.063   9.314  0.00  0.00    +0.000 NA
BRANCH  18  21
ATOM     21  C   UNL     1      47.485   2.387   6.446  0.00  0.00    +0.000 C 
ATOM     22  N   UNL     1      47.416   3.024   5.242  0.00  0.00    +0.000 N 
ATOM     23  O   UNL     1      48.314   1.497   6.637  0.00  0.00    +0.000 OA
ATOM     24  H   UNL     1      46.738   3.748   5.052  0.00  0.00    +0.000 HD
ATOM     25  H   UNL     1      48.071   2.747   4.520  0.00  0.00    +0.000 HD
ENDBRANCH  18  21
ENDBRANCH  14  15
ENDBRANCH   1  14
TORSDOF 7
ENDMDL
MODEL 2
REMARK VINA RESULT:    -7.252      1.361      1.975
REMARK INTER + INTRA:         -10.756
REMARK INTER:                 -10.154
REMARK INTRA:                  -0.602
REMARK UNBOUND:                -0.748
REMARK  Name = 
REMARK  8 active torsions:
REMARK  status: ('A' for Active; 'I' for Inactive)
REMARK    1  A    between atoms: C_1  and  C_2
REMARK    2  A    between atoms: C_2  and  C_3
REMARK    3  A    between atoms: C_2  and  C_14
REMARK    4  A    between atoms: C_3  and  O_4
REMARK    5  A    between atoms: O_4  and  C_5
REMARK    6  A    between atoms: C_8  and  C_9
REMARK    7  A    between atoms: C_18  and  C_19
REMARK    8  A    between atoms: C_19  and  N_20
REMARK                            x       y       z     vdW  Elec       q    Type
REMARK                         _______ _______ _______ _____ _____    ______ ____
ROOT
ATOM      1  C   UNL     1      44.072   3.453  11.423  0.00  0.00    +0.000 C 
ENDROOT
BRANCH   1   3
ATOM      2  C   UNL     1      42.877   5.388  12.558  0.00  0.00    +0.000 C 
ATOM      3  C   UNL     1      44.117   4.954  11.760  0.00  0.00    +0.000 C 
BRANCH   3   4
ATOM      4  C   UNL     1      45.394   5.346  12.490  0.00  0.00    +0.000 A 
ATOM      5  C   UNL     1      45.756   4.701  13.680  0.00  0.00    +0.000 A 
ATOM      6  C   UNL     1      46.991   4.960  14.280  0.00  0.00    +0.000 A 
ATOM      7  C   UNL     1      47.883   5.862  13.695  0.00  0.00    +0.000 A 
ATOM      8  C   UNL     1      47.537   6.538  12.518  0.00  0.00    +0.000 A 
ATOM      9  C   UNL     1      46.277   6.295  11.948  0.00  0.00    +0.000 A 
BRANCH   8  10
ATOM     10  C   UNL     1      48.491   7.502  11.854  0.00  0.00    +0.000 C 
BRANCH  10  11
ATOM     11  N   UNL     1      49.885   7.220  12.197  0.00  0.00    +0.000 NA
ATOM     12  H   UNL     1      50.477   7.459  11.402  0.00  0.00    +0.000 HD
ATOM     13  H   UNL     1      49.994   6.220  12.347  0.00  0.00    +0.000 HD
ENDBRANCH  10  11
ENDBRANCH   8  10
ENDBRANCH   3   4
ENDBRANCH   1   3
BRANCH   1  14
ATOM     14  O   UNL     1      43.591   3.269  10.074  0.00  0.00    +0.000 OA
BRANCH  14  15
ATOM     15  C   UNL     1      44.605   3.034   9.168  0.00  0.00    +0.000 A 
ATOM     16  C   UNL     1      45.041   4.061   8.333  0.00  0.00    +0.000 A 
ATOM     17  N   UNL     1      46.023   3.896   7.391  0.00  0.00    +0.000 NA
ATOM     18  C   UNL     1      46.558   2.642   7.348  0.00  0.00    +0.000 A 
ATOM     19  C   UNL     1      46.135   1.630   8.195  0.00  0.00    +0.000 A 
ATOM     20  N   UNL     1      45.149   1.802   9.116  0.00  0.00    +0.000 NA
BRANCH  18  21
ATOM     21  C   UNL     1      47.628   2.365   6.352  0.00  0.00    +0.000 C 
ATOM     22  N   UNL     1      47.696   3.135   5.229  0.00  0.00    +0.000 N 
ATOM     23  O   UNL     1      48.427   1.445   6.531  0.00  0.00    +0.000 OA
ATOM     24  H   UNL     1      47.047   3.887   5.050  0.00  0.00    +0.000 HD
ATOM     25  H   UNL     1      48.426   2.930   4.557  0.00  0.00    +0.000 HD
ENDBRANCH  18  21
ENDBRANCH  14  15
ENDBRANCH   1  14
TORSDOF 7
ENDMDL
MODEL 3
REMARK VINA RESULT:    -7.100      2.072      2.721
REMARK INTER + INTRA:         -10.545
REMARK INTER:                  -9.840
REMARK INTRA:                  -0.705
REMARK UNBOUND:                -0.748
REMARK  Name = 
REMARK  8 active torsions:
REMARK  status: ('A' for Active; 'I' for Inactive)
REMARK    1  A    between atoms: C_1  and  C_2
REMARK    2  A    between atoms: C_2  and  C_3
REMARK    3  A    between atoms: C_2  and  C_14
REMARK    4  A    between atoms: C_3  and  O_4
REMARK    5  A    between atoms: O_4  and  C_5
REMARK    6  A    between atoms: C_8  and  C_9
REMARK    7  A    between atoms: C_18  and  C_19
REMARK    8  A    between atoms: C_19  and  N_20
REMARK                            x       y       z     vdW  Elec       q    Type
REMARK                         _______ _______ _______ _____ _____    ______ ____
ROOT
ATOM      1  C   UNL     1      43.251   4.714  10.670  0.00  0.00    +0.000 C 
ENDROOT
BRANCH   1   3
ATOM      2  C   UNL     1      43.598   3.777  13.007  0.00  0.00    +0.000 C 
ATOM      3  C   UNL     1      43.523   5.049  12.148  0.00  0.00    +0.000 C 
BRANCH   3   4
ATOM      4  C   UNL     1      44.773   5.898  12.329  0.00  0.00    +0.000 A 
ATOM      5  C   UNL     1      46.030   5.293  12.454  0.00  0.00    +0.000 A 
ATOM      6  C   UNL     1      47.191   6.068  12.483  0.00  0.00    +0.000 A 
ATOM      7  C   UNL     1      47.112   7.459  12.382  0.00  0.00    +0.000 A 
ATOM      8  C   UNL     1      45.867   8.092  12.281  0.00  0.00    +0.000 A 
ATOM      9  C   UNL     1      44.707   7.302  12.291  0.00  0.00    +0.000 A 
BRANCH   8  10
ATOM     10  C   UNL     1      45.755   9.593  12.150  0.00  0.00    +0.000 C 
BRANCH  10  11
ATOM     11  N   UNL     1      44.395  10.067  12.398  0.00  0.00    +0.000 NA
ATOM     12  H   UNL     1      44.011   9.570  13.201  0.00  0.00    +0.000 HD
ATOM     13  H   UNL     1      43.808   9.826  11.603  0.00  0.00    +0.000 HD
ENDBRANCH  10  11
ENDBRANCH   8  10
ENDBRANCH   3   4
ENDBRANCH   1   3
BRANCH   1  14
ATOM     14  O   UNL     1      43.520   3.316  10.428  0.00  0.00    +0.000 OA
BRANCH  14  15
ATOM     15  C   UNL     1      44.479   3.113   9.457  0.00  0.00    +0.000 A 
ATOM     16  C   UNL     1      44.977   1.831   9.232  0.00  0.00    +0.000 A 
ATOM     17  N   UNL     1      45.949   1.556   8.306  0.00  0.00    +0.000 NA
ATOM     18  C   UNL     1      46.381   2.641   7.603  0.00  0.00    +0.000 A 
ATOM     19  C   UNL     1      45.868   3.910   7.816  0.00  0.00    +0.000 A 
ATOM     20  N   UNL     1      44.913   4.174   8.749  0.00  0.00    +0.000 NA
BRANCH  18  21
ATOM     21  C   UNL     1      47.441   2.442   6.578  0.00  0.00    +0.000 C 
ATOM     22  N   UNL     1      47.368   3.146   5.413  0.00  0.00    +0.000 N 
ATOM     23  O   UNL     1      48.358   1.643   6.772  0.00  0.00    +0.000 OA
ATOM     24  H   UNL     1      46.621   3.797   5.221  0.00  0.00    +0.000 HD
ATOM     25  H   UNL     1      48.094   2.995   4.721  0.00  0.00    +0.000 HD
ENDBRANCH  18  21
ENDBRANCH  14  15
ENDBRANCH   1  14
TORSDOF 7
ENDMDL
MODEL 4
REMARK VINA RESULT:    -6.629      1.575      2.055
REMARK INTER + INTRA:          -9.895
REMARK INTER:                  -9.451
REMARK INTRA:                  -0.444
REMARK UNBOUND:                -0.748
REMARK  Name = 
REMARK  8 active torsions:
REMARK  status: ('A' for Active; 'I' for Inactive)
REMARK    1  A    between atoms: C_1  and  C_2
REMARK    2  A    between atoms: C_2  and  C_3
REMARK    3  A    between atoms: C_2  and  C_14
REMARK    4  A    between atoms: C_3  and  O_4
REMARK    5  A    between atoms: O_4  and  C_5
REMARK    6  A    between atoms: C_8  and  C_9
REMARK    7  A    between atoms: C_18  and  C_19
REMARK    8  A    between atoms: C_19  and  N_20
REMARK                            x       y       z     vdW  Elec       q    Type
REMARK                         _______ _______ _______ _____ _____    ______ ____
ROOT
ATOM      1  C   UNL     1      44.883   5.778  10.794  0.00  0.00    +0.000 C 
ENDROOT
BRANCH   1   3
ATOM      2  C   UNL     1      45.287   4.050  12.614  0.00  0.00    +0.000 C 
ATOM      3  C   UNL     1      45.325   5.543  12.249  0.00  0.00    +0.000 C 
BRANCH   3   4
ATOM      4  C   UNL     1      46.696   6.136  12.541  0.00  0.00    +0.000 A 
ATOM      5  C   UNL     1      47.371   6.878  11.563  0.00  0.00    +0.000 A 
ATOM      6  C   UNL     1      48.563   7.538  11.869  0.00  0.00    +0.000 A 
ATOM      7  C   UNL     1      49.094   7.469  13.159  0.00  0.00    +0.000 A 
ATOM      8  C   UNL     1      48.454   6.715  14.150  0.00  0.00    +0.000 A 
ATOM      9  C   UNL     1      47.276   6.027  13.817  0.00  0.00    +0.000 A 
BRANCH   8  10
ATOM     10  C   UNL     1      48.997   6.642  15.558  0.00  0.00    +0.000 C 
BRANCH  10  11
ATOM     11  N   UNL     1      48.313   7.568  16.460  0.00  0.00    +0.000 NA
ATOM     12  H   UNL     1      47.310   7.390  16.419  0.00  0.00    +0.000 HD
ATOM     13  H   UNL     1      48.451   8.519  16.127  0.00  0.00    +0.000 HD
ENDBRANCH  10  11
ENDBRANCH   8  10
ENDBRANCH   3   4
ENDBRANCH   1   3
BRANCH   1  14
ATOM     14  O   UNL     1      44.325   4.562  10.250  0.00  0.00    +0.000 OA
BRANCH  14  15
ATOM     15  C   UNL     1      45.127   3.987   9.285  0.00  0.00    +0.000 A 
ATOM     16  C   UNL     1      45.241   2.600   9.214  0.00  0.00    +0.000 A 
ATOM     17  N   UNL     1      46.039   1.958   8.303  0.00  0.00    +0.000 NA
ATOM     18  C   UNL     1      46.702   2.790   7.450  0.00  0.00    +0.000 A 
ATOM     19  C   UNL     1      46.569   4.168   7.512  0.00  0.00    +0.000 A 
ATOM     20  N   UNL     1      45.786   4.795   8.431  0.00  0.00    +0.000 NA
BRANCH  18  21
ATOM     21  C   UNL     1      47.598   2.185   6.428  0.00  0.00    +0.000 C 
ATOM     22  N   UNL     1      47.926   2.919   5.326  0.00  0.00    +0.000 N 
ATOM     23  O   UNL     1      48.022   1.037   6.567  0.00  0.00    +0.000 OA
ATOM     24  H   UNL     1      47.583   3.856   5.180  0.00  0.00    +0.000 HD
ATOM     25  H   UNL     1      48.532   2.491   4.635  0.00  0.00    +0.000 HD
ENDBRANCH  18  21
ENDBRANCH  14  15
ENDBRANCH   1  14
TORSDOF 7
ENDMDL
MODEL 5
REMARK VINA RESULT:    -6.557      2.672      6.037
REMARK INTER + INTRA:          -9.796
REMARK INTER:                  -9.348
REMARK INTRA:                  -0.448
REMARK UNBOUND:                -0.748
REMARK  Name = 
REMARK  8 active torsions:
REMARK  status: ('A' for Active; 'I' for Inactive)
REMARK    1  A    between atoms: C_1  and  C_2
REMARK    2  A    between atoms: C_2  and  C_3
REMARK    3  A    between atoms: C_2  and  C_14
REMARK    4  A    between atoms: C_3  and  O_4
REMARK    5  A    between atoms: O_4  and  C_5
REMARK    6  A    between atoms: C_8  and  C_9
REMARK    7  A    between atoms: C_18  and  C_19
REMARK    8  A    between atoms: C_19  and  N_20
REMARK                            x       y       z     vdW  Elec       q    Type
REMARK                         _______ _______ _______ _____ _____    ______ ____
ROOT
ATOM      1  C   UNL     1      43.262   4.649  11.576  0.00  0.00    +0.000 C 
ENDROOT
BRANCH   1   3
ATOM      2  C   UNL     1      43.290   2.108  11.530  0.00  0.00    +0.000 C 
ATOM      3  C   UNL     1      44.116   3.390  11.342  0.00  0.00    +0.000 C 
BRANCH   3   4
ATOM      4  C   UNL     1      44.799   3.398   9.982  0.00  0.00    +0.000 A 
ATOM      5  C   UNL     1      45.036   4.607   9.314  0.00  0.00    +0.000 A 
ATOM      6  C   UNL     1      45.782   4.631   8.134  0.00  0.00    +0.000 A 
ATOM      7  C   UNL     1      46.306   3.448   7.608  0.00  0.00    +0.000 A 
ATOM      8  C   UNL     1      46.064   2.222   8.241  0.00  0.00    +0.000 A 
ATOM      9  C   UNL     1      45.281   2.210   9.406  0.00  0.00    +0.000 A 
BRANCH   8  10
ATOM     10  C   UNL     1      46.637   0.932   7.704  0.00  0.00    +0.000 C 
BRANCH  10  11
ATOM     11  N   UNL     1      47.718   1.167   6.747  0.00  0.00    +0.000 NA
ATOM     12  H   UNL     1      47.691   2.141   6.448  0.00  0.00    +0.000 HD
ATOM     13  H   UNL     1      47.552   0.606   5.915  0.00  0.00    +0.000 HD
ENDBRANCH  10  11
ENDBRANCH   8  10
ENDBRANCH   3   4
ENDBRANCH   1   3
BRANCH   1  14
ATOM     14  O   UNL     1      43.542   5.193  12.884  0.00  0.00    +0.000 OA
BRANCH  14  15
ATOM     15  C   UNL     1      44.857   5.583  13.034  0.00  0.00    +0.000 A 
ATOM     16  C   UNL     1      45.749   4.762  13.720  0.00  0.00    +0.000 A 
ATOM     17  N   UNL     1      47.062   5.094  13.933  0.00  0.00    +0.000 NA
ATOM     18  C   UNL     1      47.434   6.293  13.401  0.00  0.00    +0.000 A 
ATOM     19  C   UNL     1      46.547   7.097  12.702  0.00  0.00    +0.000 A 
ATOM     20  N   UNL     1      45.242   6.763  12.510  0.00  0.00    +0.000 NA
BRANCH  18  21
ATOM     21  C   UNL     1      48.840   6.743  13.586  0.00  0.00    +0.000 C 
ATOM     22  N   UNL     1      49.596   7.005  12.483  0.00  0.00    +0.000 N 
ATOM     23  O   UNL     1      49.316   6.860  14.716  0.00  0.00    +0.000 OA
ATOM     24  H   UNL     1      49.237   6.905  11.545  0.00  0.00    +0.000 HD
ATOM     25  H   UNL     1      50.554   7.305  12.625  0.00  0.00    +0.000 HD
ENDBRANCH  18  21
ENDBRANCH  14  15
ENDBRANCH   1  14
TORSDOF 7
ENDMDL
MODEL 6
REMARK VINA RESULT:    -6.292      3.874      6.392
REMARK INTER + INTRA:          -9.430
REMARK INTER:                  -8.921
REMARK INTRA:                  -0.509
REMARK UNBOUND:                -0.748
REMARK  Name = 
REMARK  8 active torsions:
REMARK  status: ('A' for Active; 'I' for Inactive)
REMARK    1  A    between atoms: C_1  and  C_2
REMARK    2  A    between atoms: C_2  and  C_3
REMARK    3  A    between atoms: C_2  and  C_14
REMARK    4  A    between atoms: C_3  and  O_4
REMARK    5  A    between atoms: O_4  and  C_5
REMARK    6  A    between atoms: C_8  and  C_9
REMARK    7  A    between atoms: C_18  and  C_19
REMARK    8  A    between atoms: C_19  and  N_20
REMARK                            x       y       z     vdW  Elec       q    Type
REMARK                         _______ _______ _______ _____ _____    ______ ____
ROOT
ATOM      1  C   UNL     1      47.724   4.806  15.941  0.00  0.00    +0.000 C 
ENDROOT
BRANCH   1   3
ATOM      2  C   UNL     1      47.425   2.750  17.405  0.00  0.00    +0.000 C 
ATOM      3  C   UNL     1      48.119   4.113  17.258  0.00  0.00    +0.000 C 
BRANCH   3   4
ATOM      4  C   UNL     1      49.627   3.971  17.408  0.00  0.00    +0.000 A 
ATOM      5  C   UNL     1      50.410   5.072  17.780  0.00  0.00    +0.000 A 
ATOM      6  C   UNL     1      51.770   4.916  18.052  0.00  0.00    +0.000 A 
ATOM      7  C   UNL     1      52.366   3.656  17.961  0.00  0.00    +0.000 A 
ATOM      8  C   UNL     1      51.614   2.542  17.568  0.00  0.00    +0.000 A 
ATOM      9  C   UNL     1      50.255   2.722  17.262  0.00  0.00    +0.000 A 
BRANCH   8  10
ATOM     10  C   UNL     1      52.230   1.166  17.482  0.00  0.00    +0.000 C 
BRANCH  10  11
ATOM     11  N   UNL     1      51.451   0.168  18.214  0.00  0.00    +0.000 NA
ATOM     12  H   UNL     1      52.055  -0.292  18.893  0.00  0.00    +0.000 HD
ATOM     13  H   UNL     1      51.143  -0.554  17.566  0.00  0.00    +0.000 HD
ENDBRANCH  10  11
ENDBRANCH   8  10
ENDBRANCH   3   4
ENDBRANCH   1   3
BRANCH   1  14
ATOM     14  O   UNL     1      47.602   3.824  14.890  0.00  0.00    +0.000 OA
BRANCH  14  15
ATOM     15  C   UNL     1      46.686   4.183  13.922  0.00  0.00    +0.000 A 
ATOM     16  C   UNL     1      46.423   5.530  13.683  0.00  0.00    +0.000 A 
ATOM     17  N   UNL     1      45.507   5.963  12.759  0.00  0.00    +0.000 NA
ATOM     18  C   UNL     1      44.883   4.963  12.072  0.00  0.00    +0.000 A 
ATOM     19  C   UNL     1      45.164   3.626  12.300  0.00  0.00    +0.000 A 
ATOM     20  N   UNL     1      46.064   3.207  13.231  0.00  0.00    +0.000 NA
BRANCH  18  21
ATOM     21  C   UNL     1      43.868   5.336  11.051  0.00  0.00    +0.000 C 
ATOM     22  N   UNL     1      43.141   6.475  11.232  0.00  0.00    +0.000 N 
ATOM     23  O   UNL     1      43.675   4.619  10.068  0.00  0.00    +0.000 OA
ATOM     24  H   UNL     1      43.268   7.075  12.034  0.00  0.00    +0.000 HD
ATOM     25  H   UNL     1      42.448   6.712  10.531  0.00  0.00    +0.000 HD
ENDBRANCH  18  21
ENDBRANCH  14  15
ENDBRANCH   1  14
TORSDOF 7
ENDMDL
MODEL 7
REMARK VINA RESULT:    -6.045      2.931      7.047
REMARK INTER + INTRA:          -9.089
REMARK INTER:                  -8.607
REMARK INTRA:                  -0.483
REMARK UNBOUND:                -0.748
REMARK  Name = 
REMARK  8 active torsions:
REMARK  status: ('A' for Active; 'I' for Inactive)
REMARK    1  A    between atoms: C_1  and  C_2
REMARK    2  A    between atoms: C_2  and  C_3
REMARK    3  A    between atoms: C_2  and  C_14
REMARK    4  A    between atoms: C_3  and  O_4
REMARK    5  A    between atoms: O_4  and  C_5
REMARK    6  A    between atoms: C_8  and  C_9
REMARK    7  A    between atoms: C_18  and  C_19
REMARK    8  A    between atoms: C_19  and  N_20
REMARK                            x       y       z     vdW  Elec       q    Type
REMARK                         _______ _______ _______ _____ _____    ______ ____
ROOT
ATOM      1  C   UNL     1      44.985   4.918  12.876  0.00  0.00    +0.000 C 
ENDROOT
BRANCH   1   3
ATOM      2  C   UNL     1      42.708   5.002  11.749  0.00  0.00    +0.000 C 
ATOM      3  C   UNL     1      44.036   4.238  11.873  0.00  0.00    +0.000 C 
BRANCH   3   4
ATOM      4  C   UNL     1      44.678   4.047  10.505  0.00  0.00    +0.000 A 
ATOM      5  C   UNL     1      45.192   5.145   9.803  0.00  0.00    +0.000 A 
ATOM      6  C   UNL     1      45.902   4.958   8.615  0.00  0.00    +0.000 A 
ATOM      7  C   UNL     1      46.113   3.671   8.116  0.00  0.00    +0.000 A 
ATOM      8  C   UNL     1      45.589   2.557   8.784  0.00  0.00    +0.000 A 
ATOM      9  C   UNL     1      44.846   2.764   9.957  0.00  0.00    +0.000 A 
BRANCH   8  10
ATOM     10  C   UNL     1      45.821   1.153   8.276  0.00  0.00    +0.000 C 
BRANCH  10  11
ATOM     11  N   UNL     1      46.971   1.077   7.376  0.00  0.00    +0.000 NA
ATOM     12  H   UNL     1      47.582   0.320   7.681  0.00  0.00    +0.000 HD
ATOM     13  H   UNL     1      47.513   1.935   7.455  0.00  0.00    +0.000 HD
ENDBRANCH  10  11
ENDBRANCH   8  10
ENDBRANCH   3   4
ENDBRANCH   1   3
BRANCH   1  14
ATOM     14  O   UNL     1      45.829   3.926  13.500  0.00  0.00    +0.000 OA
BRANCH  14  15
ATOM     15  C   UNL     1      46.721   4.469  14.401  0.00  0.00    +0.000 A 
ATOM     16  C   UNL     1      47.476   5.584  14.043  0.00  0.00    +0.000 A 
ATOM     17  N   UNL     1      48.402   6.161  14.874  0.00  0.00    +0.000 NA
ATOM     18  C   UNL     1      48.512   5.565  16.095  0.00  0.00    +0.000 A 
ATOM     19  C   UNL     1      47.744   4.469  16.453  0.00  0.00    +0.000 A 
ATOM     20  N   UNL     1      46.839   3.895  15.615  0.00  0.00    +0.000 NA
BRANCH  18  21
ATOM     21  C   UNL     1      49.496   6.118  17.064  0.00  0.00    +0.000 C 
ATOM     22  N   UNL     1      49.103   6.327  18.353  0.00  0.00    +0.000 N 
ATOM     23  O   UNL     1      50.641   6.398  16.705  0.00  0.00    +0.000 OA
ATOM     24  H   UNL     1      48.169   6.119  18.673  0.00  0.00    +0.000 HD
ATOM     25  H   UNL     1      49.783   6.710  19.000  0.00  0.00    +0.000 HD
ENDBRANCH  18  21
ENDBRANCH  14  15
ENDBRANCH   1  14
TORSDOF 7
ENDMDL
MODEL 8
REMARK VINA RESULT:    -6.039      3.243      7.832
REMARK INTER + INTRA:          -9.081
REMARK INTER:                  -8.467
REMARK INTRA:                  -0.614
REMARK UNBOUND:                -0.748
REMARK  Name = 
REMARK  8 active torsions:
REMARK  status: ('A' for Active; 'I' for Inactive)
REMARK    1  A    between atoms: C_1  and  C_2
REMARK    2  A    between atoms: C_2  and  C_3
REMARK    3  A    between atoms: C_2  and  C_14
REMARK    4  A    between atoms: C_3  and  O_4
REMARK    5  A    between atoms: O_4  and  C_5
REMARK    6  A    between atoms: C_8  and  C_9
REMARK    7  A    between atoms: C_18  and  C_19
REMARK    8  A    between atoms: C_19  and  N_20
REMARK                            x       y       z     vdW  Elec       q    Type
REMARK                         _______ _______ _______ _____ _____    ______ ____
ROOT
ATOM      1  C   UNL     1      47.138   6.239  13.160  0.00  0.00    +0.000 C 
ENDROOT
BRANCH   1   3
ATOM      2  C   UNL     1      45.274   7.665  12.183  0.00  0.00    +0.000 C 
ATOM      3  C   UNL     1      45.623   6.362  12.919  0.00  0.00    +0.000 C 
BRANCH   3   4
ATOM      4  C   UNL     1      45.054   5.157  12.182  0.00  0.00    +0.000 A 
ATOM      5  C   UNL     1      44.271   4.214  12.861  0.00  0.00    +0.000 A 
ATOM      6  C   UNL     1      43.636   3.184  12.164  0.00  0.00    +0.000 A 
ATOM      7  C   UNL     1      43.771   3.085  10.778  0.00  0.00    +0.000 A 
ATOM      8  C   UNL     1      44.567   3.999  10.076  0.00  0.00    +0.000 A 
ATOM      9  C   UNL     1      45.229   5.007  10.795  0.00  0.00    +0.000 A 
BRANCH   8  10
ATOM     10  C   UNL     1      44.711   3.927   8.574  0.00  0.00    +0.000 C 
BRANCH  10  11
ATOM     11  N   UNL     1      45.892   4.648   8.099  0.00  0.00    +0.000 NA
ATOM     12  H   UNL     1      45.735   5.649   8.209  0.00  0.00    +0.000 HD
ATOM     13  H   UNL     1      46.004   4.481   7.102  0.00  0.00    +0.000 HD
ENDBRANCH  10  11
ENDBRANCH   8  10
ENDBRANCH   3   4
ENDBRANCH   1   3
BRANCH   1  14
ATOM     14  O   UNL     1      47.452   4.913  13.636  0.00  0.00    +0.000 OA
BRANCH  14  15
ATOM     15  C   UNL     1      47.619   4.858  15.004  0.00  0.00    +0.000 A 
ATOM     16  C   UNL     1      46.904   3.925  15.753  0.00  0.00    +0.000 A 
ATOM     17  N   UNL     1      46.996   3.829  17.117  0.00  0.00    +0.000 NA
ATOM     18  C   UNL     1      47.864   4.712  17.687  0.00  0.00    +0.000 A 
ATOM     19  C   UNL     1      48.588   5.624  16.936  0.00  0.00    +0.000 A 
ATOM     20  N   UNL     1      48.477   5.721  15.583  0.00  0.00    +0.000 NA
BRANCH  18  21
ATOM     21  C   UNL     1      48.027   4.688  19.166  0.00  0.00    +0.000 C 
ATOM     22  N   UNL     1      48.340   3.508  19.773  0.00  0.00    +0.000 N 
ATOM     23  O   UNL     1      47.865   5.712  19.831  0.00  0.00    +0.000 OA
ATOM     24  H   UNL     1      48.466   2.651  19.255  0.00  0.00    +0.000 HD
ATOM     25  H   UNL     1      48.442   3.506  20.781  0.00  0.00    +0.000 HD
ENDBRANCH  18  21
ENDBRANCH  14  15
ENDBRANCH   1  14
TORSDOF 7
ENDMDL
MODEL 9
REMARK VINA RESULT:    -5.744      3.915      6.064
REMARK INTER + INTRA:          -8.674
REMARK INTER:                  -8.202
REMARK INTRA:                  -0.472
REMARK UNBOUND:                -0.748
REMARK  Name = 
REMARK  8 active torsions:
REMARK  status: ('A' for Active; 'I' for Inactive)
REMARK    1  A    between atoms: C_1  and  C_2
REMARK    2  A    between atoms: C_2  and  C_3
REMARK    3  A    between atoms: C_2  and  C_14
REMARK    4  A    between atoms: C_3  and  O_4
REMARK    5  A    between atoms: O_4  and  C_5
REMARK    6  A    between atoms: C_8  and  C_9
REMARK    7  A    between atoms: C_18  and  C_19
REMARK    8  A    between atoms: C_19  and  N_20
REMARK                            x       y       z     vdW  Elec       q    Type
REMARK                         _______ _______ _______ _____ _____    ______ ____
ROOT
ATOM      1  C   UNL     1      48.198   7.066  14.366  0.00  0.00    +0.000 C 
ENDROOT
BRANCH   1   3
ATOM      2  C   UNL     1      49.753   8.649  15.606  0.00  0.00    +0.000 C 
ATOM      3  C   UNL     1      49.306   7.189  15.427  0.00  0.00    +0.000 C 
BRANCH   3   4
ATOM      4  C   UNL     1      48.899   6.582  16.763  0.00  0.00    +0.000 A 
ATOM      5  C   UNL     1      48.551   7.407  17.841  0.00  0.00    +0.000 A 
ATOM      6  C   UNL     1      48.047   6.858  19.021  0.00  0.00    +0.000 A 
ATOM      7  C   UNL     1      47.878   5.476  19.139  0.00  0.00    +0.000 A 
ATOM      8  C   UNL     1      48.240   4.626  18.087  0.00  0.00    +0.000 A 
ATOM      9  C   UNL     1      48.780   5.191  16.920  0.00  0.00    +0.000 A 
BRANCH   8  10
ATOM     10  C   UNL     1      48.048   3.131  18.181  0.00  0.00    +0.000 C 
BRANCH  10  11
ATOM     11  N   UNL     1      46.707   2.721  17.768  0.00  0.00    +0.000 NA
ATOM     12  H   UNL     1      46.211   3.532  17.400  0.00  0.00    +0.000 HD
ATOM     13  H   UNL     1      46.187   2.412  18.586  0.00  0.00    +0.000 HD
ENDBRANCH  10  11
ENDBRANCH   8  10
ENDBRANCH   3   4
ENDBRANCH   1   3
BRANCH   1  14
ATOM     14  O   UNL     1      48.196   5.732  13.814  0.00  0.00    +0.000 OA
BRANCH  14  15
ATOM     15  C   UNL     1      46.957   5.343  13.348  0.00  0.00    +0.000 A 
ATOM     16  C   UNL     1      46.596   3.998  13.378  0.00  0.00    +0.000 A 
ATOM     17  N   UNL     1      45.395   3.533  12.909  0.00  0.00    +0.000 NA
ATOM     18  C   UNL     1      44.566   4.501  12.424  0.00  0.00    +0.000 A 
ATOM     19  C   UNL     1      44.922   5.840  12.415  0.00  0.00    +0.000 A 
ATOM     20  N   UNL     1      46.123   6.288  12.870  0.00  0.00    +0.000 NA
BRANCH  18  21
ATOM     21  C   UNL     1      43.241   4.092  11.886  0.00  0.00    +0.000 C 
ATOM     22  N   UNL     1      42.253   5.027  11.792  0.00  0.00    +0.000 N 
ATOM     23  O   UNL     1      43.035   2.926  11.547  0.00  0.00    +0.000 OA
ATOM     24  H   UNL     1      42.389   5.986  12.074  0.00  0.00    +0.000 HD
ATOM     25  H   UNL     1      41.354   4.732  11.429  0.00  0.00    +0.000 HD
ENDBRANCH  18  21
ENDBRANCH  14  15
ENDBRANCH   1  14
TORSDOF 7
ENDMDL
