MODEL 1
REMARK VINA RESULT:    -7.735      0.000      0.000
REMARK INTER + INTRA:         -11.595
REMARK INTER:                 -10.674
REMARK INTRA:                  -0.921
REMARK UNBOUND:                -0.921
REMARK  Name = 
REMARK  8 active torsions:
REMARK  status: ('A' for Active; 'I' for Inactive)
REMARK    1  A    between atoms: C_1  and  O_2
REMARK    2  A    between atoms: O_2  and  C_3
REMARK    3  A    between atoms: C_5  and  C_6
REMARK    4  A    between atoms: C_6  and  C_7
REMARK    5  A    between atoms: C_7  and  C_8
REMARK    6  A    between atoms: C_13  and  C_14
REMARK    7  A    between atoms: C_23  and  C_24
REMARK    8  A    between atoms: C_24  and  O_26
REMARK                            x       y       z     vdW  Elec       q    Type
REMARK                         _______ _______ _______ _____ _____    ______ ____
ROOT
ATOM      1  C   UNL     1      43.909   4.882  10.843  0.00  0.00    +0.000 C 
ENDROOT
BRANCH   1   2
ATOM      2  C   UNL     1      45.122   5.007  11.728  0.00  0.00    +0.000 A 
ATOM      3  C   UNL     1      45.460   3.978  12.609  0.00  0.00    +0.000 A 
ATOM      4  C   UNL     1      46.581   4.103  13.413  0.00  0.00    +0.000 A 
ATOM      5  F   UNL     1      46.908   3.109  14.248  0.00  0.00    +0.000 F 
ATOM      6  C   UNL     1      47.369   5.246  13.367  0.00  0.00    +0.000 A 
ATOM      7  C   UNL     1      47.047   6.311  12.513  0.00  0.00    +0.000 A 
ATOM      8  C   UNL     1      45.917   6.167  11.687  0.00  0.00    +0.000 A 
BRANCH   7   9
ATOM      9  C   UNL     1      47.865   7.597  12.441  0.00  0.00    +0.000 C 
ATOM     10  C   UNL     1      49.285   7.424  13.005  0.00  0.00    +0.000 C 
ATOM     11  C   UNL     1      49.307   7.464  14.531  0.00  0.00    +0.000 C 
ATOM     12  C   UNL     1      48.555   8.671  15.094  0.00  0.00    +0.000 C 
ATOM     13  N   UNL     1      47.207   8.813  14.548  0.00  0.00    +0.000 NA
ATOM     14  C   UNL     1      47.196   8.832  13.084  0.00  0.00    +0.000 C 
ATOM     15  H   UNL     1      46.769   9.659  14.912  0.00  0.00    +0.000 HD
ENDBRANCH   7   9
ENDBRANCH   1   2
BRANCH   1  16
ATOM     16  C   UNL     1      43.780   3.478  10.246  0.00  0.00    +0.000 C 
BRANCH  16  19
ATOM     17  C   UNL     1      46.389   1.738   8.112  0.00  0.00    +0.000 A 
ATOM     18  C   UNL     1      45.453   1.982   9.122  0.00  0.00    +0.000 A 
ATOM     19  C   UNL     1      44.782   3.203   9.150  0.00  0.00    +0.000 A 
ATOM     20  N   UNL     1      45.003   4.163   8.227  0.00  0.00    +0.000 NA
ATOM     21  C   UNL     1      45.926   3.919   7.267  0.00  0.00    +0.000 A 
ATOM     22  C   UNL     1      46.651   2.739   7.167  0.00  0.00    +0.000 A 
BRANCH  17  24
ATOM     23  C   UNL     1      46.452  -0.529   7.385  0.00  0.00    +0.000 C 
ATOM     24  O   UNL     1      47.107   0.569   8.022  0.00  0.00    +0.000 OA
ENDBRANCH  17  24
BRANCH  22  25
ATOM     25  C   UNL     1      47.626   2.651   6.050  0.00  0.00    +0.000 C 
ATOM     26  O   UNL     1      47.280   2.723   4.880  0.00  0.00    +0.000 OA
BRANCH  25  27
ATOM     27  O   UNL     1      48.914   2.490   6.408  0.00  0.00    +0.000 OA
ATOM     28  H   UNL     1      49.025   2.002   7.251  0.00  0.00    +0.000 HD
ENDBRANCH  25  27
ENDBRANCH  22  25
ENDBRANCH  16  19
ENDBRANCH   1  16
TORSDOF 7
ENDMDL
MODEL 2
REMARK VINA RESULT:    -6.844      3.343      5.508
REMARK INTER + INTRA:         -10.365
REMARK INTER:                  -9.203
REMARK INTRA:                  -1.161
REMARK UNBOUND:                -0.921
REMARK  Name = 
REMARK  8 active torsions:
REMARK  status: ('A' for Active; 'I' for Inactive)
REMARK    1  A    between atoms: C_1  and  O_2
REMARK    2  A    between atoms: O_2  and  C_3
REMARK    3  A    between atoms: C_5  and  C_6
REMARK    4  A    between atoms: C_6  and  C_7
REMARK    5  A    between atoms: C_7  and  C_8
REMARK    6  A    between atoms: C_13  and  C_14
REMARK    7  A    between atoms: C_23  and  C_24
REMARK    8  A    between atoms: C_24  and  O_26
REMARK                            x       y       z     vdW  Elec       q    Type
REMARK                         _______ _______ _______ _____ _____    ______ ____
ROOT
ATOM      1  C   UNL     1      48.062   7.473  12.717  0.00  0.00    +0.000 C 
ENDROOT
BRANCH   1   2
ATOM      2  C   UNL     1      48.823   7.200  13.988  0.00  0.00    +0.000 A 
ATOM      3  C   UNL     1      50.096   7.742  14.178  0.00  0.00    +0.000 A 
ATOM      4  C   UNL     1      50.782   7.488  15.353  0.00  0.00    +0.000 A 
ATOM      5  F   UNL     1      51.997   8.019  15.536  0.00  0.00    +0.000 F 
ATOM      6  C   UNL     1      50.228   6.689  16.346  0.00  0.00    +0.000 A 
ATOM      7  C   UNL     1      48.963   6.107  16.180  0.00  0.00    +0.000 A 
ATOM      8  C   UNL     1      48.266   6.385  14.990  0.00  0.00    +0.000 A 
BRANCH   7   9
ATOM      9  C   UNL     1      48.320   5.202  17.228  0.00  0.00    +0.000 C 
ATOM     10  C   UNL     1      49.359   4.416  18.045  0.00  0.00    +0.000 C 
ATOM     11  C   UNL     1      49.891   3.203  17.285  0.00  0.00    +0.000 C 
ATOM     12  C   UNL     1      48.769   2.339  16.707  0.00  0.00    +0.000 C 
ATOM     13  N   UNL     1      47.796   3.105  15.931  0.00  0.00    +0.000 NA
ATOM     14  C   UNL     1      47.245   4.234  16.683  0.00  0.00    +0.000 C 
ATOM     15  H   UNL     1      47.042   2.496  15.614  0.00  0.00    +0.000 HD
ENDBRANCH   7   9
ENDBRANCH   1   2
BRANCH   1  16
ATOM     16  C   UNL     1      46.548   7.451  12.942  0.00  0.00    +0.000 C 
BRANCH  16  19
ATOM     17  C   UNL     1      45.108   4.917  10.514  0.00  0.00    +0.000 A 
ATOM     18  C   UNL     1      45.737   6.061  11.016  0.00  0.00    +0.000 A 
ATOM     19  C   UNL     1      45.882   6.211  12.394  0.00  0.00    +0.000 A 
ATOM     20  N   UNL     1      45.436   5.282  13.266  0.00  0.00    +0.000 NA
ATOM     21  C   UNL     1      44.812   4.190  12.765  0.00  0.00    +0.000 A 
ATOM     22  C   UNL     1      44.612   3.961  11.410  0.00  0.00    +0.000 A 
BRANCH  17  24
ATOM     23  C   UNL     1      46.067   4.780   8.339  0.00  0.00    +0.000 C 
ATOM     24  O   UNL     1      44.909   4.699   9.171  0.00  0.00    +0.000 OA
ENDBRANCH  17  24
BRANCH  22  25
ATOM     25  C   UNL     1      43.901   2.709  11.046  0.00  0.00    +0.000 C 
ATOM     26  O   UNL     1      42.896   2.339  11.636  0.00  0.00    +0.000 OA
BRANCH  25  27
ATOM     27  O   UNL     1      44.431   2.010  10.025  0.00  0.00    +0.000 OA
ATOM     28  H   UNL     1      43.997   2.188   9.165  0.00  0.00    +0.000 HD
ENDBRANCH  25  27
ENDBRANCH  22  25
ENDBRANCH  16  19
ENDBRANCH   1  16
TORSDOF 7
ENDMDL
MODEL 3
REMARK VINA RESULT:    -6.842      4.904      8.210
REMARK INTER + INTRA:         -10.363
REMARK INTER:                  -9.394
REMARK INTRA:                  -0.968
REMARK UNBOUND:                -0.921
REMARK  Name = 
REMARK  8 active torsions:
REMARK  status: ('A' for Active; 'I' for Inactive)
REMARK    1  A    between atoms: C_1  and  O_2
REMARK    2  A    between atoms: O_2  and  C_3
REMARK    3  A    between atoms: C_5  and  C_6
REMARK    4  A    between atoms: C_6  and  C_7
REMARK    5  A    between atoms: C_7  and  C_8
REMARK    6  A    between atoms: C_13  and  C_14
REMARK    7  A    between atoms: C_23  and  C_24
REMARK    8  A    between atoms: C_24  and  O_26
REMARK                            x       y       z     vdW  Elec       q    Type
REMARK                         _______ _______ _______ _____ _____    ______ ____
ROOT
ATOM      1  C   UNL     1      48.854   7.178  12.586  0.00  0.00    +0.000 C 
ENDROOT
BRANCH   1   2
ATOM      2  C   UNL     1      47.416   7.444  12.221  0.00  0.00    +0.000 A 
ATOM      3  C   UNL     1      46.866   8.714  12.406  0.00  0.00    +0.000 A 
ATOM      4  C   UNL     1      45.545   8.946  12.062  0.00  0.00    +0.000 A 
ATOM      5  F   UNL     1      45.024  10.168  12.230  0.00  0.00    +0.000 F 
ATOM      6  C   UNL     1      44.752   7.929  11.545  0.00  0.00    +0.000 A 
ATOM      7  C   UNL     1      45.263   6.635  11.368  0.00  0.00    +0.000 A 
ATOM      8  C   UNL     1      46.611   6.413  11.705  0.00  0.00    +0.000 A 
BRANCH   7   9
ATOM      9  C   UNL     1      44.428   5.478  10.828  0.00  0.00    +0.000 C 
ATOM     10  C   UNL     1      42.975   5.513  11.333  0.00  0.00    +0.000 C 
ATOM     11  C   UNL     1      42.847   4.976  12.756  0.00  0.00    +0.000 C 
ATOM     12  C   UNL     1      43.536   3.621  12.932  0.00  0.00    +0.000 C 
ATOM     13  N   UNL     1      44.915   3.612  12.451  0.00  0.00    +0.000 NA
ATOM     14  C   UNL     1      45.028   4.074  11.066  0.00  0.00    +0.000 C 
ATOM     15  H   UNL     1      45.311   2.677  12.540  0.00  0.00    +0.000 HD
ENDBRANCH   7   9
ENDBRANCH   1   2
BRANCH   1  16
ATOM     16  C   UNL     1      49.161   7.583  14.030  0.00  0.00    +0.000 C 
BRANCH  16  19
ATOM     17  C   UNL     1      48.514   5.839  17.335  0.00  0.00    +0.000 A 
ATOM     18  C   UNL     1      48.934   6.790  16.400  0.00  0.00    +0.000 A 
ATOM     19  C   UNL     1      48.697   6.566  15.045  0.00  0.00    +0.000 A 
ATOM     20  N   UNL     1      48.069   5.457  14.601  0.00  0.00    +0.000 NA
ATOM     21  C   UNL     1      47.686   4.536  15.518  0.00  0.00    +0.000 A 
ATOM     22  C   UNL     1      47.890   4.667  16.885  0.00  0.00    +0.000 A 
BRANCH  17  24
ATOM     23  C   UNL     1      47.887   6.910  19.367  0.00  0.00    +0.000 C 
ATOM     24  O   UNL     1      48.723   5.973  18.687  0.00  0.00    +0.000 OA
ENDBRANCH  17  24
BRANCH  22  25
ATOM     25  C   UNL     1      47.407   3.552  17.738  0.00  0.00    +0.000 C 
ATOM     26  O   UNL     1      46.445   2.865  17.425  0.00  0.00    +0.000 OA
BRANCH  25  27
ATOM     27  O   UNL     1      48.096   3.344  18.876  0.00  0.00    +0.000 OA
ATOM     28  H   UNL     1      49.062   3.254  18.734  0.00  0.00    +0.000 HD
ENDBRANCH  25  27
ENDBRANCH  22  25
ENDBRANCH  16  19
ENDBRANCH   1  16
TORSDOF 7
ENDMDL
MODEL 4
REMARK VINA RESULT:    -6.686      4.289      6.456
REMARK INTER + INTRA:         -10.147
REMARK INTER:                  -8.829
REMARK INTRA:                  -1.317
REMARK UNBOUND:                -0.921
REMARK  Name = 
REMARK  8 active torsions:
REMARK  status: ('A' for Active; 'I' for Inactive)
REMARK    1  A    between atoms: C_1  and  O_2
REMARK    2  A    between atoms: O_2  and  C_3
REMARK    3  A    between atoms: C_5  and  C_6
REMARK    4  A    between atoms: C_6  and  C_7
REMARK    5  A    between atoms: C_7  and  C_8
REMARK    6  A    between atoms: C_13  and  C_14
REMARK    7  A    between atoms: C_23  and  C_24
REMARK    8  A    between atoms: C_24  and  O_26
REMARK                            x       y       z     vdW  Elec       q    Type
REMARK                         _______ _______ _______ _____ _____    ______ ____
ROOT
ATOM      1  C   UNL     1      49.036   8.186  13.646  0.00  0.00    +0.000 C 
ENDROOT
BRANCH   1   2
ATOM      2  C   UNL     1      49.661   7.451  14.804  0.00  0.00    +0.000 A 
ATOM      3  C   UNL     1      51.021   7.605  15.084  0.00  0.00    +0.000 A 
ATOM      4  C   UNL     1      51.581   6.928  16.154  0.00  0.00    +0.000 A 
ATOM      5  F   UNL     1      52.882   7.087  16.427  0.00  0.00    +0.000 F 
ATOM      6  C   UNL     1      50.814   6.085  16.948  0.00  0.00    +0.000 A 
ATOM      7  C   UNL     1      49.451   5.886  16.681  0.00  0.00    +0.000 A 
ATOM      8  C   UNL     1      48.886   6.592  15.603  0.00  0.00    +0.000 A 
BRANCH   7   9
ATOM      9  C   UNL     1      48.569   4.953  17.506  0.00  0.00    +0.000 C 
ATOM     10  C   UNL     1      49.377   3.852  18.215  0.00  0.00    +0.000 C 
ATOM     11  C   UNL     1      49.747   2.711  17.270  0.00  0.00    +0.000 C 
ATOM     12  C   UNL     1      48.542   2.192  16.483  0.00  0.00    +0.000 C 
ATOM     13  N   UNL     1      47.792   3.253  15.815  0.00  0.00    +0.000 NA
ATOM     14  C   UNL     1      47.390   4.319  16.736  0.00  0.00    +0.000 C 
ATOM     15  H   UNL     1      46.972   2.864  15.351  0.00  0.00    +0.000 HD
ENDBRANCH   7   9
ENDBRANCH   1   2
BRANCH   1  16
ATOM     16  C   UNL     1      48.678   7.241  12.496  0.00  0.00    +0.000 C 
BRANCH  16  19
ATOM     17  C   UNL     1      45.559   5.122  12.909  0.00  0.00    +0.000 A 
ATOM     18  C   UNL     1      46.900   5.519  12.913  0.00  0.00    +0.000 A 
ATOM     19  C   UNL     1      47.230   6.811  12.507  0.00  0.00    +0.000 A 
ATOM     20  N   UNL     1      46.294   7.699  12.111  0.00  0.00    +0.000 NA
ATOM     21  C   UNL     1      45.003   7.292  12.095  0.00  0.00    +0.000 A 
ATOM     22  C   UNL     1      44.581   6.023  12.469  0.00  0.00    +0.000 A 
BRANCH  17  24
ATOM     23  C   UNL     1      45.290   2.838  12.292  0.00  0.00    +0.000 C 
ATOM     24  O   UNL     1      45.150   3.862  13.277  0.00  0.00    +0.000 OA
ENDBRANCH  17  24
BRANCH  22  25
ATOM     25  C   UNL     1      43.123   5.755  12.381  0.00  0.00    +0.000 C 
ATOM     26  O   UNL     1      42.500   5.899  11.339  0.00  0.00    +0.000 OA
BRANCH  25  27
ATOM     27  O   UNL     1      42.533   5.340  13.517  0.00  0.00    +0.000 OA
ATOM     28  H   UNL     1      43.134   5.346  14.292  0.00  0.00    +0.000 HD
ENDBRANCH  25  27
ENDBRANCH  22  25
ENDBRANCH  16  19
ENDBRANCH   1  16
TORSDOF 7
ENDMDL
MODEL 5
REMARK VINA RESULT:    -6.606      4.344      6.576
REMARK INTER + INTRA:         -10.037
REMARK INTER:                  -8.696
REMARK INTRA:                  -1.341
REMARK UNBOUND:                -0.921
REMARK  Name = 
REMARK  8 active torsions:
REMARK  status: ('A' for Active; 'I' for Inactive)
REMARK    1  A    between atoms: C_1  and  O_2
REMARK    2  A    between atoms: O_2  and  C_3
REMARK    3  A    between atoms: C_5  and  C_6
REMARK    4  A    between atoms: C_6  and  C_7
REMARK    5  A    between atoms: C_7  and  C_8
REMARK    6  A    between atoms: C_13  and  C_14
REMARK    7  A    between atoms: C_23  and  C_24
REMARK    8  A    between atoms: C_24  and  O_26
REMARK                            x       y       z     vdW  Elec       q    Type
REMARK                         _______ _______ _______ _____ _____    ______ ____
ROOT
ATOM      1  C   UNL     1      49.067   8.455  13.826  0.00  0.00    +0.000 C 
ENDROOT
BRANCH   1   2
ATOM      2  C   UNL     1      48.765   8.448  15.303  0.00  0.00    +0.000 A 
ATOM      3  C   UNL     1      48.301   9.605  15.933  0.00  0.00    +0.000 A 
ATOM      4  C   UNL     1      48.022   9.583  17.289  0.00  0.00    +0.000 A 
ATOM      5  F   UNL     1      47.566  10.691  17.887  0.00  0.00    +0.000 F 
ATOM      6  C   UNL     1      48.209   8.428  18.038  0.00  0.00    +0.000 A 
ATOM      7  C   UNL     1      48.698   7.254  17.445  0.00  0.00    +0.000 A 
ATOM      8  C   UNL     1      48.961   7.281  16.064  0.00  0.00    +0.000 A 
BRANCH   7   9
ATOM      9  C   UNL     1      48.944   5.968  18.227  0.00  0.00    +0.000 C 
ATOM     10  C   UNL     1      49.431   4.817  17.331  0.00  0.00    +0.000 C 
ATOM     11  C   UNL     1      48.287   4.161  16.562  0.00  0.00    +0.000 C 
ATOM     12  C   UNL     1      47.112   3.791  17.469  0.00  0.00    +0.000 C 
ATOM     13  N   UNL     1      46.663   4.899  18.307  0.00  0.00    +0.000 NA
ATOM     14  C   UNL     1      47.753   5.489  19.087  0.00  0.00    +0.000 C 
ATOM     15  H   UNL     1      45.917   4.588  18.930  0.00  0.00    +0.000 HD
ENDBRANCH   7   9
ENDBRANCH   1   2
BRANCH   1  16
ATOM     16  C   UNL     1      48.839   7.081  13.191  0.00  0.00    +0.000 C 
BRANCH  16  19
ATOM     17  C   UNL     1      45.595   5.118  13.081  0.00  0.00    +0.000 A 
ATOM     18  C   UNL     1      46.947   5.433  13.251  0.00  0.00    +0.000 A 
ATOM     19  C   UNL     1      47.377   6.739  13.022  0.00  0.00    +0.000 A 
ATOM     20  N   UNL     1      46.528   7.717  12.643  0.00  0.00    +0.000 NA
ATOM     21  C   UNL     1      45.226   7.392  12.464  0.00  0.00    +0.000 A 
ATOM     22  C   UNL     1      44.709   6.118  12.656  0.00  0.00    +0.000 A 
BRANCH  17  24
ATOM     23  C   UNL     1      45.270   2.934  12.190  0.00  0.00    +0.000 C 
ATOM     24  O   UNL     1      45.091   3.854  13.269  0.00  0.00    +0.000 OA
ENDBRANCH  17  24
BRANCH  22  25
ATOM     25  C   UNL     1      43.255   5.946  12.406  0.00  0.00    +0.000 C 
ATOM     26  O   UNL     1      42.729   6.312  11.364  0.00  0.00    +0.000 OA
BRANCH  25  27
ATOM     27  O   UNL     1      42.555   5.362  13.396  0.00  0.00    +0.000 OA
ATOM     28  H   UNL     1      42.996   4.570  13.769  0.00  0.00    +0.000 HD
ENDBRANCH  25  27
ENDBRANCH  22  25
ENDBRANCH  16  19
ENDBRANCH   1  16
TORSDOF 7
ENDMDL
MODEL 6
REMARK VINA RESULT:    -6.366      4.974      8.339
REMARK INTER + INTRA:          -9.706
REMARK INTER:                  -8.463
REMARK INTRA:                  -1.243
REMARK UNBOUND:                -0.921
REMARK  Name = 
REMARK  8 active torsions:
REMARK  status: ('A' for Active; 'I' for Inactive)
REMARK    1  A    between atoms: C_1  and  O_2
REMARK    2  A    between atoms: O_2  and  C_3
REMARK    3  A    between atoms: C_5  and  C_6
REMARK    4  A    between atoms: C_6  and  C_7
REMARK    5  A    between atoms: C_7  and  C_8
REMARK    6  A    between atoms: C_13  and  C_14
REMARK    7  A    between atoms: C_23  and  C_24
REMARK    8  A    between atoms: C_24  and  O_26
REMARK                            x       y       z     vdW  Elec       q    Type
REMARK                         _______ _______ _______ _____ _____    ______ ____
ROOT
ATOM      1  C   UNL     1      49.051   7.274  12.719  0.00  0.00    +0.000 C 
ENDROOT
BRANCH   1   2
ATOM      2  C   UNL     1      47.596   7.443  12.367  0.00  0.00    +0.000 A 
ATOM      3  C   UNL     1      46.946   8.653  12.619  0.00  0.00    +0.000 A 
ATOM      4  C   UNL     1      45.610   8.797  12.286  0.00  0.00    +0.000 A 
ATOM      5  F   UNL     1      44.993   9.962  12.519  0.00  0.00    +0.000 F 
ATOM      6  C   UNL     1      44.899   7.749  11.714  0.00  0.00    +0.000 A 
ATOM      7  C   UNL     1      45.512   6.511  11.469  0.00  0.00    +0.000 A 
ATOM      8  C   UNL     1      46.874   6.380  11.795  0.00  0.00    +0.000 A 
BRANCH   7   9
ATOM      9  C   UNL     1      44.770   5.321  10.867  0.00  0.00    +0.000 C 
ATOM     10  C   UNL     1      43.248   5.414  11.063  0.00  0.00    +0.000 C 
ATOM     11  C   UNL     1      42.823   5.000  12.470  0.00  0.00    +0.000 C 
ATOM     12  C   UNL     1      43.425   3.658  12.890  0.00  0.00    +0.000 C 
ATOM     13  N   UNL     1      44.872   3.594  12.699  0.00  0.00    +0.000 NA
ATOM     14  C   UNL     1      45.272   3.936  11.333  0.00  0.00    +0.000 C 
ATOM     15  H   UNL     1      45.216   2.665  12.942  0.00  0.00    +0.000 HD
ENDBRANCH   7   9
ENDBRANCH   1   2
BRANCH   1  16
ATOM     16  C   UNL     1      49.412   7.998  14.019  0.00  0.00    +0.000 C 
BRANCH  16  19
ATOM     17  C   UNL     1      48.791   5.461  16.771  0.00  0.00    +0.000 A 
ATOM     18  C   UNL     1      48.575   6.320  15.688  0.00  0.00    +0.000 A 
ATOM     19  C   UNL     1      49.642   7.059  15.179  0.00  0.00    +0.000 A 
ATOM     20  N   UNL     1      50.886   6.971  15.697  0.00  0.00    +0.000 NA
ATOM     21  C   UNL     1      51.074   6.150  16.757  0.00  0.00    +0.000 A 
ATOM     22  C   UNL     1      50.071   5.386  17.338  0.00  0.00    +0.000 A 
BRANCH  17  24
ATOM     23  C   UNL     1      47.285   3.629  16.561  0.00  0.00    +0.000 C 
ATOM     24  O   UNL     1      47.792   4.711  17.344  0.00  0.00    +0.000 OA
ENDBRANCH  17  24
BRANCH  22  25
ATOM     25  C   UNL     1      50.462   4.548  18.499  0.00  0.00    +0.000 C 
ATOM     26  O   UNL     1      50.997   5.023  19.491  0.00  0.00    +0.000 OA
BRANCH  25  27
ATOM     27  O   UNL     1      50.190   3.234  18.392  0.00  0.00    +0.000 OA
ATOM     28  H   UNL     1      49.516   2.923  19.032  0.00  0.00    +0.000 HD
ENDBRANCH  25  27
ENDBRANCH  22  25
ENDBRANCH  16  19
ENDBRANCH   1  16
TORSDOF 7
ENDMDL
MODEL 7
REMARK VINA RESULT:    -6.346      5.001      7.029
REMARK INTER + INTRA:          -9.678
REMARK INTER:                  -8.599
REMARK INTRA:                  -1.079
REMARK UNBOUND:                -0.921
REMARK  Name = 
REMARK  8 active torsions:
REMARK  status: ('A' for Active; 'I' for Inactive)
REMARK    1  A    between atoms: C_1  and  O_2
REMARK    2  A    between atoms: O_2  and  C_3
REMARK    3  A    between atoms: C_5  and  C_6
REMARK    4  A    between atoms: C_6  and  C_7
REMARK    5  A    between atoms: C_7  and  C_8
REMARK    6  A    between atoms: C_13  and  C_14
REMARK    7  A    between atoms: C_23  and  C_24
REMARK    8  A    between atoms: C_24  and  O_26
REMARK                            x       y       z     vdW  Elec       q    Type
REMARK                         _______ _______ _______ _____ _____    ______ ____
ROOT
ATOM      1  C   UNL     1      49.181   8.373  14.107  0.00  0.00    +0.000 C 
ENDROOT
BRANCH   1   2
ATOM      2  C   UNL     1      48.796   8.503  15.559  0.00  0.00    +0.000 A 
ATOM      3  C   UNL     1      48.331   9.721  16.058  0.00  0.00    +0.000 A 
ATOM      4  C   UNL     1      47.976   9.826  17.392  0.00  0.00    +0.000 A 
ATOM      5  F   UNL     1      47.519  10.992  17.864  0.00  0.00    +0.000 F 
ATOM      6  C   UNL     1      48.088   8.737  18.249  0.00  0.00    +0.000 A 
ATOM      7  C   UNL     1      48.575   7.505  17.789  0.00  0.00    +0.000 A 
ATOM      8  C   UNL     1      48.916   7.404  16.428  0.00  0.00    +0.000 A 
BRANCH   7   9
ATOM      9  C   UNL     1      48.741   6.286  18.692  0.00  0.00    +0.000 C 
ATOM     10  C   UNL     1      49.516   5.147  18.010  0.00  0.00    +0.000 C 
ATOM     11  C   UNL     1      48.639   4.348  17.049  0.00  0.00    +0.000 C 
ATOM     12  C   UNL     1      47.321   3.909  17.691  0.00  0.00    +0.000 C 
ATOM     13  N   UNL     1      46.600   5.007  18.329  0.00  0.00    +0.000 NA
ATOM     14  C   UNL     1      47.427   5.736  19.292  0.00  0.00    +0.000 C 
ATOM     15  H   UNL     1      45.759   4.655  18.787  0.00  0.00    +0.000 HD
ENDBRANCH   7   9
ENDBRANCH   1   2
BRANCH   1  16
ATOM     16  C   UNL     1      49.169   6.914  13.643  0.00  0.00    +0.000 C 
BRANCH  16  19
ATOM     17  C   UNL     1      45.469   6.641  12.854  0.00  0.00    +0.000 A 
ATOM     18  C   UNL     1      46.759   7.163  12.988  0.00  0.00    +0.000 A 
ATOM     19  C   UNL     1      47.777   6.351  13.483  0.00  0.00    +0.000 A 
ATOM     20  N   UNL     1      47.560   5.066  13.838  0.00  0.00    +0.000 NA
ATOM     21  C   UNL     1      46.301   4.581  13.721  0.00  0.00    +0.000 A 
ATOM     22  C   UNL     1      45.223   5.319  13.250  0.00  0.00    +0.000 A 
BRANCH  17  24
ATOM     23  C   UNL     1      44.662   8.223  11.269  0.00  0.00    +0.000 C 
ATOM     24  O   UNL     1      44.405   7.378  12.391  0.00  0.00    +0.000 OA
ENDBRANCH  17  24
BRANCH  22  25
ATOM     25  C   UNL     1      43.914   4.621  13.197  0.00  0.00    +0.000 C 
ATOM     26  O   UNL     1      43.828   3.415  13.009  0.00  0.00    +0.000 OA
BRANCH  25  27
ATOM     27  O   UNL     1      42.828   5.397  13.371  0.00  0.00    +0.000 OA
ATOM     28  H   UNL     1      42.169   5.012  13.986  0.00  0.00    +0.000 HD
ENDBRANCH  25  27
ENDBRANCH  22  25
ENDBRANCH  16  19
ENDBRANCH   1  16
TORSDOF 7
ENDMDL
MODEL 8
REMARK VINA RESULT:    -6.332      5.337      8.900
REMARK INTER + INTRA:          -9.659
REMARK INTER:                  -8.477
REMARK INTRA:                  -1.182
REMARK UNBOUND:                -0.921
REMARK  Name = 
REMARK  8 active torsions:
REMARK  status: ('A' for Active; 'I' for Inactive)
REMARK    1  A    between atoms: C_1  and  O_2
REMARK    2  A    between atoms: O_2  and  C_3
REMARK    3  A    between atoms: C_5  and  C_6
REMARK    4  A    between atoms: C_6  and  C_7
REMARK    5  A    between atoms: C_7  and  C_8
REMARK    6  A    between atoms: C_13  and  C_14
REMARK    7  A    between atoms: C_23  and  C_24
REMARK    8  A    between atoms: C_24  and  O_26
REMARK                            x       y       z     vdW  Elec       q    Type
REMARK                         _______ _______ _______ _____ _____    ______ ____
ROOT
ATOM      1  C   UNL     1      49.162   6.974  12.715  0.00  0.00    +0.000 C 
ENDROOT
BRANCH   1   2
ATOM      2  C   UNL     1      47.715   7.365  12.557  0.00  0.00    +0.000 A 
ATOM      3  C   UNL     1      47.370   8.689  12.277  0.00  0.00    +0.000 A 
ATOM      4  C   UNL     1      46.037   9.034  12.128  0.00  0.00    +0.000 A 
ATOM      5  F   UNL     1      45.711  10.301  11.849  0.00  0.00    +0.000 F 
ATOM      6  C   UNL     1      45.033   8.083  12.266  0.00  0.00    +0.000 A 
ATOM      7  C   UNL     1      45.341   6.748  12.571  0.00  0.00    +0.000 A 
ATOM      8  C   UNL     1      46.698   6.405  12.703  0.00  0.00    +0.000 A 
BRANCH   7   9
ATOM      9  C   UNL     1      44.276   5.671  12.757  0.00  0.00    +0.000 C 
ATOM     10  C   UNL     1      44.844   4.249  12.612  0.00  0.00    +0.000 C 
ATOM     11  C   UNL     1      45.030   3.851  11.150  0.00  0.00    +0.000 C 
ATOM     12  C   UNL     1      43.778   4.111  10.310  0.00  0.00    +0.000 C 
ATOM     13  N   UNL     1      43.259   5.468  10.460  0.00  0.00    +0.000 NA
ATOM     14  C   UNL     1      43.027   5.827  11.861  0.00  0.00    +0.000 C 
ATOM     15  H   UNL     1      42.397   5.574   9.925  0.00  0.00    +0.000 HD
ENDBRANCH   7   9
ENDBRANCH   1   2
BRANCH   1  16
ATOM     16  C   UNL     1      49.804   7.646  13.932  0.00  0.00    +0.000 C 
BRANCH  16  19
ATOM     17  C   UNL     1      48.319   7.740  17.421  0.00  0.00    +0.000 A 
ATOM     18  C   UNL     1      48.864   8.156  16.202  0.00  0.00    +0.000 A 
ATOM     19  C   UNL     1      49.202   7.203  15.244  0.00  0.00    +0.000 A 
ATOM     20  N   UNL     1      49.018   5.881  15.452  0.00  0.00    +0.000 NA
ATOM     21  C   UNL     1      48.508   5.493  16.644  0.00  0.00    +0.000 A 
ATOM     22  C   UNL     1      48.153   6.369  17.662  0.00  0.00    +0.000 A 
BRANCH  17  24
ATOM     23  C   UNL     1      49.007   9.479  18.893  0.00  0.00    +0.000 C 
ATOM     24  O   UNL     1      47.973   8.612  18.425  0.00  0.00    +0.000 OA
ENDBRANCH  17  24
BRANCH  22  25
ATOM     25  C   UNL     1      47.614   5.760  18.904  0.00  0.00    +0.000 C 
ATOM     26  O   UNL     1      48.304   5.602  19.901  0.00  0.00    +0.000 OA
BRANCH  25  27
ATOM     27  O   UNL     1      46.319   5.397  18.865  0.00  0.00    +0.000 OA
ATOM     28  H   UNL     1      46.002   4.994  19.700  0.00  0.00    +0.000 HD
ENDBRANCH  25  27
ENDBRANCH  22  25
ENDBRANCH  16  19
ENDBRANCH   1  16
TORSDOF 7
ENDMDL
MODEL 9
REMARK VINA RESULT:    -6.332      5.185      8.888
REMARK INTER + INTRA:          -9.658
REMARK INTER:                  -8.492
REMARK INTRA:                  -1.166
REMARK UNBOUND:                -0.921
REMARK  Name = 
REMARK  8 active torsions:
REMARK  status: ('A' for Active; 'I' for Inactive)
REMARK    1  A    between atoms: C_1  and  O_2
REMARK    2  A    between atoms: O_2  and  C_3
REMARK    3  A    between atoms: C_5  and  C_6
REMARK    4  A    between atoms: C_6  and  C_7
REMARK    5  A    between atoms: C_7  and  C_8
REMARK    6  A    between atoms: C_13  and  C_14
REMARK    7  A    between atoms: C_23  and  C_24
REMARK    8  A    between atoms: C_24  and  O_26
REMARK                            x       y       z     vdW  Elec       q    Type
REMARK                         _______ _______ _______ _____ _____    ______ ____
ROOT
ATOM      1  C   UNL     1      48.674   6.652  14.027  0.00  0.00    +0.000 C 
ENDROOT
BRANCH   1   2
ATOM      2  C   UNL     1      47.388   7.034  13.340  0.00  0.00    +0.000 A 
ATOM      3  C   UNL     1      47.240   8.303  12.777  0.00  0.00    +0.000 A 
ATOM      4  C   UNL     1      46.055   8.639  12.143  0.00  0.00    +0.000 A 
ATOM      5  F   UNL     1      45.921   9.852  11.595  0.00  0.00    +0.000 F 
ATOM      6  C   UNL     1      45.003   7.734  12.069  0.00  0.00    +0.000 A 
ATOM      7  C   UNL     1      45.106   6.459  12.645  0.00  0.00    +0.000 A 
ATOM      8  C   UNL     1      46.320   6.121  13.271  0.00  0.00    +0.000 A 
BRANCH   7   9
ATOM      9  C   UNL     1      43.973   5.438  12.613  0.00  0.00    +0.000 C 
ATOM     10  C   UNL     1      44.481   3.990  12.712  0.00  0.00    +0.000 C 
ATOM     11  C   UNL     1      45.017   3.475  11.378  0.00  0.00    +0.000 C 
ATOM     12  C   UNL     1      44.041   3.717  10.225  0.00  0.00    +0.000 C 
ATOM     13  N   UNL     1      43.575   5.099  10.147  0.00  0.00    +0.000 NA
ATOM     14  C   UNL     1      43.009   5.571  11.413  0.00  0.00    +0.000 C 
ATOM     15  H   UNL     1      42.888   5.196   9.400  0.00  0.00    +0.000 HD
ENDBRANCH   7   9
ENDBRANCH   1   2
BRANCH   1  16
ATOM     16  C   UNL     1      48.951   7.534  15.247  0.00  0.00    +0.000 C 
BRANCH  16  19
ATOM     17  C   UNL     1      48.377   4.770  17.781  0.00  0.00    +0.000 A 
ATOM     18  C   UNL     1      48.566   5.432  16.564  0.00  0.00    +0.000 A 
ATOM     19  C   UNL     1      48.760   6.812  16.560  0.00  0.00    +0.000 A 
ATOM     20  N   UNL     1      48.774   7.536  17.699  0.00  0.00    +0.000 NA
ATOM     21  C   UNL     1      48.570   6.884  18.867  0.00  0.00    +0.000 A 
ATOM     22  C   UNL     1      48.357   5.515  18.968  0.00  0.00    +0.000 A 
BRANCH  17  24
ATOM     23  C   UNL     1      48.273   2.674  16.657  0.00  0.00    +0.000 C 
ATOM     24  O   UNL     1      48.162   3.415  17.872  0.00  0.00    +0.000 OA
ENDBRANCH  17  24
BRANCH  22  25
ATOM     25  C   UNL     1      48.145   4.974  20.334  0.00  0.00    +0.000 C 
ATOM     26  O   UNL     1      47.629   5.639  21.222  0.00  0.00    +0.000 OA
BRANCH  25  27
ATOM     27  O   UNL     1      48.553   3.707  20.533  0.00  0.00    +0.000 OA
ATOM     28  H   UNL     1      49.319   3.453  19.976  0.00  0.00    +0.000 HD
ENDBRANCH  25  27
ENDBRANCH  22  25
ENDBRANCH  16  19
ENDBRANCH   1  16
TORSDOF 7
ENDMDL
