MODEL 1
REMARK VINA RESULT:    -8.082      0.000      0.000
REMARK INTER + INTRA:         -12.119
REMARK INTER:                 -11.389
REMARK INTRA:                  -0.730
REMARK UNBOUND:                -0.730
REMARK  Name = 
REMARK  7 active torsions:
REMARK  status: ('A' for Active; 'I' for Inactive)
REMARK    1  A    between atoms: C_2  and  C_20
REMARK    2  A    between atoms: N_3  and  C_4
REMARK    3  A    between atoms: C_4  and  C_5
REMARK    4  A    between atoms: C_8  and  C_9
REMARK    5  A    between atoms: C_9  and  C_10
REMARK    6  A    between atoms: C_10  and  O_11
REMARK    7  A    between atoms: O_11  and  C_12
REMARK                            x       y       z     vdW  Elec       q    Type
REMARK                         _______ _______ _______ _____ _____    ______ ____
ROOT
ATOM      1  C   UNL     1      48.016   6.185  14.404  0.00  0.00    +0.000 C 
ENDROOT
BRANCH   1   2
ATOM      2  C   UNL     1      46.973   5.740  13.418  0.00  0.00    +0.000 A 
ATOM      3  C   UNL     1      46.154   4.646  13.714  0.00  0.00    +0.000 A 
ATOM      4  C   UNL     1      45.141   4.256  12.835  0.00  0.00    +0.000 A 
ATOM      5  C   UNL     1      44.928   4.939  11.629  0.00  0.00    +0.000 A 
ATOM      6  C   UNL     1      45.763   6.025  11.328  0.00  0.00    +0.000 A 
ATOM      7  C   UNL     1      46.778   6.417  12.209  0.00  0.00    +0.000 A 
BRANCH   5   8
ATOM      8  C   UNL     1      43.843   4.558  10.640  0.00  0.00    +0.000 C 
BRANCH   8   9
ATOM      9  C   UNL     1      44.340   4.103   9.267  0.00  0.00    +0.000 C 
BRANCH   9  10
ATOM     10  O   UNL     1      44.587   2.696   9.275  0.00  0.00    +0.000 OA
BRANCH  10  11
ATOM     11  C   UNL     1      45.632   2.390   8.425  0.00  0.00    +0.000 A 
ATOM     12  N   UNL     1      46.120   3.414   7.714  0.00  0.00    +0.000 NA
ATOM     13  C   UNL     1      47.120   3.112   6.864  0.00  0.00    +0.000 A 
ATOM     14  C   UNL     1      47.645   1.847   6.719  0.00  0.00    +0.000 A 
ATOM     15  C   UNL     1      47.079   0.877   7.511  0.00  0.00    +0.000 A 
ATOM     16  N   UNL     1      46.075   1.119   8.366  0.00  0.00    +0.000 NA
ENDBRANCH  10  11
ENDBRANCH   9  10
ENDBRANCH   8   9
ENDBRANCH   5   8
ENDBRANCH   1   2
BRANCH   1  19
ATOM     17  O   UNL     1      50.042   6.001  16.236  0.00  0.00    +0.000 OA
ATOM     18  C   UNL     1      48.959   5.513  16.541  0.00  0.00    +0.000 C 
ATOM     19  N   UNL     1      47.875   5.555  15.691  0.00  0.00    +0.000 N 
ATOM     20  H   UNL     1      46.970   5.226  15.988  0.00  0.00    +0.000 HD
BRANCH  18  21
ATOM     21  C   UNL     1      48.741   4.846  17.825  0.00  0.00    +0.000 A 
ATOM     22  C   UNL     1      48.588   3.487  18.067  0.00  0.00    +0.000 A 
ATOM     23  N   UNL     1      48.457   3.297  19.421  0.00  0.00    +0.000 N 
ATOM     24  C   UNL     1      48.496   4.500  20.065  0.00  0.00    +0.000 A 
ATOM     25  N   UNL     1      48.392   4.649  21.398  0.00  0.00    +0.000 NA
ATOM     26  C   UNL     1      48.463   5.944  21.788  0.00  0.00    +0.000 A 
ATOM     27  C   UNL     1      48.623   7.036  20.947  0.00  0.00    +0.000 A 
ATOM     28  C   UNL     1      48.728   6.819  19.573  0.00  0.00    +0.000 A 
ATOM     29  C   UNL     1      48.664   5.493  19.107  0.00  0.00    +0.000 A 
ATOM     30  H   UNL     1      48.353   2.415  19.898  0.00  0.00    +0.000 HD
ENDBRANCH  18  21
ENDBRANCH   1  19
TORSDOF 7
ENDMDL
MODEL 2
REMARK VINA RESULT:    -7.763      1.663      2.415
REMARK INTER + INTRA:         -11.670
REMARK INTER:                 -10.652
REMARK INTRA:                  -1.018
REMARK UNBOUND:                -0.730
REMARK  Name = 
REMARK  7 active torsions:
REMARK  status: ('A' for Active; 'I' for Inactive)
REMARK    1  A    between atoms: C_2  and  C_20
REMARK    2  A    between atoms: N_3  and  C_4
REMARK    3  A    between atoms: C_4  and  C_5
REMARK    4  A    between atoms: C_8  and  C_9
REMARK    5  A    between atoms: C_9  and  C_10
REMARK    6  A    between atoms: C_10  and  O_11
REMARK    7  A    between atoms: O_11  and  C_12
REMARK                            x       y       z     vdW  Elec       q    Type
REMARK                         _______ _______ _______ _____ _____    ______ ____
ROOT
ATOM      1  C   UNL     1      46.830   7.797  13.074  0.00  0.00    +0.000 C 
ENDROOT
BRANCH   1   2
ATOM      2  C   UNL     1      46.077   6.631  12.500  0.00  0.00    +0.000 A 
ATOM      3  C   UNL     1      45.398   5.753  13.349  0.00  0.00    +0.000 A 
ATOM      4  C   UNL     1      44.644   4.698  12.828  0.00  0.00    +0.000 A 
ATOM      5  C   UNL     1      44.562   4.483  11.445  0.00  0.00    +0.000 A 
ATOM      6  C   UNL     1      45.259   5.355  10.598  0.00  0.00    +0.000 A 
ATOM      7  C   UNL     1      46.014   6.414  11.119  0.00  0.00    +0.000 A 
BRANCH   5   8
ATOM      8  C   UNL     1      43.759   3.354  10.827  0.00  0.00    +0.000 C 
BRANCH   8   9
ATOM      9  C   UNL     1      44.154   2.976   9.399  0.00  0.00    +0.000 C 
BRANCH   9  10
ATOM     10  O   UNL     1      45.192   1.995   9.419  0.00  0.00    +0.000 OA
BRANCH  10  11
ATOM     11  C   UNL     1      45.982   2.113   8.292  0.00  0.00    +0.000 A 
ATOM     12  N   UNL     1      45.953   3.306   7.686  0.00  0.00    +0.000 NA
ATOM     13  C   UNL     1      46.701   3.414   6.571  0.00  0.00    +0.000 A 
ATOM     14  C   UNL     1      47.472   2.390   6.066  0.00  0.00    +0.000 A 
ATOM     15  C   UNL     1      47.439   1.217   6.779  0.00  0.00    +0.000 A 
ATOM     16  N   UNL     1      46.705   1.050   7.888  0.00  0.00    +0.000 NA
ENDBRANCH  10  11
ENDBRANCH   9  10
ENDBRANCH   8   9
ENDBRANCH   5   8
ENDBRANCH   1   2
BRANCH   1  19
ATOM     17  O   UNL     1      49.292   6.637  13.378  0.00  0.00    +0.000 OA
ATOM     18  C   UNL     1      48.669   6.918  14.397  0.00  0.00    +0.000 C 
ATOM     19  N   UNL     1      47.424   7.506  14.353  0.00  0.00    +0.000 N 
ATOM     20  H   UNL     1      46.963   7.808  15.196  0.00  0.00    +0.000 HD
BRANCH  18  21
ATOM     21  C   UNL     1      49.201   6.642  15.732  0.00  0.00    +0.000 A 
ATOM     22  C   UNL     1      50.155   7.363  16.438  0.00  0.00    +0.000 A 
ATOM     23  N   UNL     1      50.320   6.779  17.670  0.00  0.00    +0.000 N 
ATOM     24  C   UNL     1      49.515   5.682  17.776  0.00  0.00    +0.000 A 
ATOM     25  N   UNL     1      49.448   4.893  18.864  0.00  0.00    +0.000 NA
ATOM     26  C   UNL     1      48.572   3.872  18.719  0.00  0.00    +0.000 A 
ATOM     27  C   UNL     1      47.803   3.618  17.591  0.00  0.00    +0.000 A 
ATOM     28  C   UNL     1      47.912   4.472  16.495  0.00  0.00    +0.000 A 
ATOM     29  C   UNL     1      48.806   5.555  16.588  0.00  0.00    +0.000 A 
ATOM     30  H   UNL     1      50.929   7.094  18.409  0.00  0.00    +0.000 HD
ENDBRANCH  18  21
ENDBRANCH   1  19
TORSDOF 7
ENDMDL
MODEL 3
REMARK VINA RESULT:    -7.376      1.605      2.485
REMARK INTER + INTRA:         -11.124
REMARK INTER:                 -10.349
REMARK INTRA:                  -0.775
REMARK UNBOUND:                -0.730
REMARK  Name = 
REMARK  7 active torsions:
REMARK  status: ('A' for Active; 'I' for Inactive)
REMARK    1  A    between atoms: C_2  and  C_20
REMARK    2  A    between atoms: N_3  and  C_4
REMARK    3  A    between atoms: C_4  and  C_5
REMARK    4  A    between atoms: C_8  and  C_9
REMARK    5  A    between atoms: C_9  and  C_10
REMARK    6  A    between atoms: C_10  and  O_11
REMARK    7  A    between atoms: O_11  and  C_12
REMARK                            x       y       z     vdW  Elec       q    Type
REMARK                         _______ _______ _______ _____ _____    ______ ____
ROOT
ATOM      1  C   UNL     1      48.494   6.646  13.654  0.00  0.00    +0.000 C 
ENDROOT
BRANCH   1   2
ATOM      2  C   UNL     1      47.276   6.056  13.001  0.00  0.00    +0.000 A 
ATOM      3  C   UNL     1      46.818   6.570  11.784  0.00  0.00    +0.000 A 
ATOM      4  C   UNL     1      45.723   5.995  11.135  0.00  0.00    +0.000 A 
ATOM      5  C   UNL     1      45.045   4.901  11.692  0.00  0.00    +0.000 A 
ATOM      6  C   UNL     1      45.497   4.400  12.922  0.00  0.00    +0.000 A 
ATOM      7  C   UNL     1      46.595   4.975  13.573  0.00  0.00    +0.000 A 
BRANCH   5   8
ATOM      8  C   UNL     1      43.852   4.239  11.030  0.00  0.00    +0.000 C 
BRANCH   8   9
ATOM      9  C   UNL     1      44.070   3.794   9.584  0.00  0.00    +0.000 C 
BRANCH   9  10
ATOM     10  O   UNL     1      44.613   2.473   9.552  0.00  0.00    +0.000 OA
BRANCH  10  11
ATOM     11  C   UNL     1      45.556   2.368   8.549  0.00  0.00    +0.000 A 
ATOM     12  N   UNL     1      46.079   1.149   8.370  0.00  0.00    +0.000 NA
ATOM     13  C   UNL     1      47.019   1.051   7.410  0.00  0.00    +0.000 A 
ATOM     14  C   UNL     1      47.430   2.110   6.631  0.00  0.00    +0.000 A 
ATOM     15  C   UNL     1      46.814   3.310   6.890  0.00  0.00    +0.000 A 
ATOM     16  N   UNL     1      45.880   3.467   7.840  0.00  0.00    +0.000 NA
ENDBRANCH  10  11
ENDBRANCH   9  10
ENDBRANCH   8   9
ENDBRANCH   5   8
ENDBRANCH   1   2
BRANCH   1  19
ATOM     17  O   UNL     1      49.671   6.099  16.065  0.00  0.00    +0.000 OA
ATOM     18  C   UNL     1      48.838   6.999  16.034  0.00  0.00    +0.000 C 
ATOM     19  N   UNL     1      48.190   7.354  14.871  0.00  0.00    +0.000 N 
ATOM     20  H   UNL     1      47.573   8.149  14.843  0.00  0.00    +0.000 HD
BRANCH  18  21
ATOM     21  C   UNL     1      48.467   7.755  17.230  0.00  0.00    +0.000 A 
ATOM     22  C   UNL     1      48.314   9.130  17.359  0.00  0.00    +0.000 A 
ATOM     23  N   UNL     1      47.911   9.405  18.643  0.00  0.00    +0.000 N 
ATOM     24  C   UNL     1      47.822   8.247  19.361  0.00  0.00    +0.000 A 
ATOM     25  N   UNL     1      47.452   8.184  20.654  0.00  0.00    +0.000 NA
ATOM     26  C   UNL     1      47.440   6.918  21.134  0.00  0.00    +0.000 A 
ATOM     27  C   UNL     1      47.766   5.776  20.416  0.00  0.00    +0.000 A 
ATOM     28  C   UNL     1      48.138   5.903  19.078  0.00  0.00    +0.000 A 
ATOM     29  C   UNL     1      48.167   7.195  18.521  0.00  0.00    +0.000 A 
ATOM     30  H   UNL     1      47.698  10.313  19.026  0.00  0.00    +0.000 HD
ENDBRANCH  18  21
ENDBRANCH   1  19
TORSDOF 7
ENDMDL
MODEL 4
REMARK VINA RESULT:    -7.067      3.566      5.966
REMARK INTER + INTRA:         -10.688
REMARK INTER:                  -9.825
REMARK INTRA:                  -0.863
REMARK UNBOUND:                -0.730
REMARK  Name = 
REMARK  7 active torsions:
REMARK  status: ('A' for Active; 'I' for Inactive)
REMARK    1  A    between atoms: C_2  and  C_20
REMARK    2  A    between atoms: N_3  and  C_4
REMARK    3  A    between atoms: C_4  and  C_5
REMARK    4  A    between atoms: C_8  and  C_9
REMARK    5  A    between atoms: C_9  and  C_10
REMARK    6  A    between atoms: C_10  and  O_11
REMARK    7  A    between atoms: O_11  and  C_12
REMARK                            x       y       z     vdW  Elec       q    Type
REMARK                         _______ _______ _______ _____ _____    ______ ____
ROOT
ATOM      1  C   UNL     1      47.861   6.141  14.543  0.00  0.00    +0.000 C 
ENDROOT
BRANCH   1   2
ATOM      2  C   UNL     1      46.865   5.321  13.773  0.00  0.00    +0.000 A 
ATOM      3  C   UNL     1      45.874   5.955  13.018  0.00  0.00    +0.000 A 
ATOM      4  C   UNL     1      44.977   5.209  12.250  0.00  0.00    +0.000 A 
ATOM      5  C   UNL     1      45.036   3.808  12.228  0.00  0.00    +0.000 A 
ATOM      6  C   UNL     1      46.020   3.176  13.001  0.00  0.00    +0.000 A 
ATOM      7  C   UNL     1      46.920   3.923  13.771  0.00  0.00    +0.000 A 
BRANCH   5   8
ATOM      8  C   UNL     1      44.087   2.950  11.412  0.00  0.00    +0.000 C 
BRANCH   8   9
ATOM      9  C   UNL     1      44.182   3.131   9.897  0.00  0.00    +0.000 C 
BRANCH   9  10
ATOM     10  O   UNL     1      44.477   1.882   9.270  0.00  0.00    +0.000 OA
BRANCH  10  11
ATOM     11  C   UNL     1      45.519   2.031   8.376  0.00  0.00    +0.000 A 
ATOM     12  N   UNL     1      46.272   0.942   8.176  0.00  0.00    +0.000 NA
ATOM     13  C   UNL     1      47.305   1.094   7.326  0.00  0.00    +0.000 A 
ATOM     14  C   UNL     1      47.592   2.272   6.672  0.00  0.00    +0.000 A 
ATOM     15  C   UNL     1      46.743   3.319   6.939  0.00  0.00    +0.000 A 
ATOM     16  N   UNL     1      45.706   3.227   7.784  0.00  0.00    +0.000 NA
ENDBRANCH  10  11
ENDBRANCH   9  10
ENDBRANCH   8   9
ENDBRANCH   5   8
ENDBRANCH   1   2
BRANCH   1  19
ATOM     17  O   UNL     1      49.339   7.264  12.530  0.00  0.00    +0.000 OA
ATOM     18  C   UNL     1      48.603   8.006  13.173  0.00  0.00    +0.000 C 
ATOM     19  N   UNL     1      47.817   7.540  14.204  0.00  0.00    +0.000 N 
ATOM     20  H   UNL     1      47.156   8.143  14.665  0.00  0.00    +0.000 HD
BRANCH  18  21
ATOM     21  C   UNL     1      48.513   9.439  12.895  0.00  0.00    +0.000 A 
ATOM     22  C   UNL     1      49.513  10.397  13.007  0.00  0.00    +0.000 A 
ATOM     23  N   UNL     1      49.007  11.606  12.599  0.00  0.00    +0.000 N 
ATOM     24  C   UNL     1      47.696  11.467  12.248  0.00  0.00    +0.000 A 
ATOM     25  N   UNL     1      46.918  12.473  11.805  0.00  0.00    +0.000 NA
ATOM     26  C   UNL     1      45.656  12.074  11.521  0.00  0.00    +0.000 A 
ATOM     27  C   UNL     1      45.165  10.783  11.654  0.00  0.00    +0.000 A 
ATOM     28  C   UNL     1      46.018   9.781  12.114  0.00  0.00    +0.000 A 
ATOM     29  C   UNL     1      47.345  10.134  12.424  0.00  0.00    +0.000 A 
ATOM     30  H   UNL     1      49.505  12.482  12.548  0.00  0.00    +0.000 HD
ENDBRANCH  18  21
ENDBRANCH   1  19
TORSDOF 7
ENDMDL
MODEL 5
REMARK VINA RESULT:    -7.066      1.987      2.591
REMARK INTER + INTRA:         -10.687
REMARK INTER:                  -9.849
REMARK INTRA:                  -0.839
REMARK UNBOUND:                -0.730
REMARK  Name = 
REMARK  7 active torsions:
REMARK  status: ('A' for Active; 'I' for Inactive)
REMARK    1  A    between atoms: C_2  and  C_20
REMARK    2  A    between atoms: N_3  and  C_4
REMARK    3  A    between atoms: C_4  and  C_5
REMARK    4  A    between atoms: C_8  and  C_9
REMARK    5  A    between atoms: C_9  and  C_10
REMARK    6  A    between atoms: C_10  and  O_11
REMARK    7  A    between atoms: O_11  and  C_12
REMARK                            x       y       z     vdW  Elec       q    Type
REMARK                         _______ _______ _______ _____ _____    ______ ____
ROOT
ATOM      1  C   UNL     1      47.540   4.046  15.260  0.00  0.00    +0.000 C 
ENDROOT
BRANCH   1   2
ATOM      2  C   UNL     1      46.802   4.458  14.017  0.00  0.00    +0.000 A 
ATOM      3  C   UNL     1      47.005   5.731  13.475  0.00  0.00    +0.000 A 
ATOM      4  C   UNL     1      46.371   6.108  12.288  0.00  0.00    +0.000 A 
ATOM      5  C   UNL     1      45.506   5.230  11.620  0.00  0.00    +0.000 A 
ATOM      6  C   UNL     1      45.292   3.961  12.177  0.00  0.00    +0.000 A 
ATOM      7  C   UNL     1      45.927   3.581  13.366  0.00  0.00    +0.000 A 
BRANCH   5   8
ATOM      8  C   UNL     1      44.794   5.588  10.330  0.00  0.00    +0.000 C 
BRANCH   8   9
ATOM      9  C   UNL     1      44.619   4.437   9.338  0.00  0.00    +0.000 C 
BRANCH   9  10
ATOM     10  O   UNL     1      45.494   4.612   8.223  0.00  0.00    +0.000 OA
BRANCH  10  11
ATOM     11  C   UNL     1      46.097   3.413   7.897  0.00  0.00    +0.000 A 
ATOM     12  N   UNL     1      47.146   3.498   7.069  0.00  0.00    +0.000 NA
ATOM     13  C   UNL     1      47.718   2.327   6.728  0.00  0.00    +0.000 A 
ATOM     14  C   UNL     1      47.291   1.103   7.193  0.00  0.00    +0.000 A 
ATOM     15  C   UNL     1      46.218   1.137   8.050  0.00  0.00    +0.000 A 
ATOM     16  N   UNL     1      45.603   2.271   8.415  0.00  0.00    +0.000 NA
ENDBRANCH  10  11
ENDBRANCH   9  10
ENDBRANCH   8   9
ENDBRANCH   5   8
ENDBRANCH   1   2
BRANCH   1  19
ATOM     17  O   UNL     1      49.562   5.232  16.676  0.00  0.00    +0.000 OA
ATOM     18  C   UNL     1      48.411   5.487  17.013  0.00  0.00    +0.000 C 
ATOM     19  N   UNL     1      47.323   4.944  16.364  0.00  0.00    +0.000 N 
ATOM     20  H   UNL     1      46.386   5.229  16.597  0.00  0.00    +0.000 HD
BRANCH  18  21
ATOM     21  C   UNL     1      48.110   6.380  18.132  0.00  0.00    +0.000 A 
ATOM     22  C   UNL     1      47.820   6.036  19.446  0.00  0.00    +0.000 A 
ATOM     23  N   UNL     1      47.651   7.189  20.172  0.00  0.00    +0.000 N 
ATOM     24  C   UNL     1      47.798   8.276  19.359  0.00  0.00    +0.000 A 
ATOM     25  N   UNL     1      47.690   9.552  19.773  0.00  0.00    +0.000 NA
ATOM     26  C   UNL     1      47.883  10.445  18.774  0.00  0.00    +0.000 A 
ATOM     27  C   UNL     1      48.162  10.133  17.451  0.00  0.00    +0.000 A 
ATOM     28  C   UNL     1      48.266   8.793  17.081  0.00  0.00    +0.000 A 
ATOM     29  C   UNL     1      48.078   7.817  18.078  0.00  0.00    +0.000 A 
ATOM     30  H   UNL     1      47.453   7.257  21.158  0.00  0.00    +0.000 HD
ENDBRANCH  18  21
ENDBRANCH   1  19
TORSDOF 7
ENDMDL
MODEL 6
REMARK VINA RESULT:    -6.984      2.475      8.896
REMARK INTER + INTRA:         -10.573
REMARK INTER:                  -9.808
REMARK INTRA:                  -0.765
REMARK UNBOUND:                -0.730
REMARK  Name = 
REMARK  7 active torsions:
REMARK  status: ('A' for Active; 'I' for Inactive)
REMARK    1  A    between atoms: C_2  and  C_20
REMARK    2  A    between atoms: N_3  and  C_4
REMARK    3  A    between atoms: C_4  and  C_5
REMARK    4  A    between atoms: C_8  and  C_9
REMARK    5  A    between atoms: C_9  and  C_10
REMARK    6  A    between atoms: C_10  and  O_11
REMARK    7  A    between atoms: O_11  and  C_12
REMARK                            x       y       z     vdW  Elec       q    Type
REMARK                         _______ _______ _______ _____ _____    ______ ____
ROOT
ATOM      1  C   UNL     1      45.694   7.981  11.946  0.00  0.00    +0.000 C 
ENDROOT
BRANCH   1   2
ATOM      2  C   UNL     1      46.957   8.014  12.759  0.00  0.00    +0.000 A 
ATOM      3  C   UNL     1      47.015   8.779  13.927  0.00  0.00    +0.000 A 
ATOM      4  C   UNL     1      48.162   8.774  14.725  0.00  0.00    +0.000 A 
ATOM      5  C   UNL     1      49.287   8.016  14.369  0.00  0.00    +0.000 A 
ATOM      6  C   UNL     1      49.230   7.264  13.187  0.00  0.00    +0.000 A 
ATOM      7  C   UNL     1      48.081   7.267  12.387  0.00  0.00    +0.000 A 
BRANCH   5   8
ATOM      8  C   UNL     1      50.556   7.974  15.199  0.00  0.00    +0.000 C 
BRANCH   8   9
ATOM      9  C   UNL     1      50.745   6.712  16.041  0.00  0.00    +0.000 C 
BRANCH   9  10
ATOM     10  O   UNL     1      49.679   6.584  16.983  0.00  0.00    +0.000 OA
BRANCH  10  11
ATOM     11  C   UNL     1      49.196   5.290  16.983  0.00  0.00    +0.000 A 
ATOM     12  N   UNL     1      48.191   5.046  16.132  0.00  0.00    +0.000 NA
ATOM     13  C   UNL     1      47.700   3.792  16.151  0.00  0.00    +0.000 A 
ATOM     14  C   UNL     1      48.184   2.793  16.967  0.00  0.00    +0.000 A 
ATOM     15  C   UNL     1      49.227   3.151  17.786  0.00  0.00    +0.000 A 
ATOM     16  N   UNL     1      49.748   4.387  17.817  0.00  0.00    +0.000 NA
ENDBRANCH  10  11
ENDBRANCH   9  10
ENDBRANCH   8   9
ENDBRANCH   5   8
ENDBRANCH   1   2
BRANCH   1  19
ATOM     17  O   UNL     1      44.239   6.101  13.305  0.00  0.00    +0.000 OA
ATOM     18  C   UNL     1      44.657   5.797  12.192  0.00  0.00    +0.000 C 
ATOM     19  N   UNL     1      45.396   6.671  11.426  0.00  0.00    +0.000 N 
ATOM     20  H   UNL     1      45.658   6.439  10.482  0.00  0.00    +0.000 HD
BRANCH  18  21
ATOM     21  C   UNL     1      44.406   4.482  11.602  0.00  0.00    +0.000 A 
ATOM     22  C   UNL     1      43.747   3.400  12.173  0.00  0.00    +0.000 A 
ATOM     23  N   UNL     1      43.694   2.385  11.249  0.00  0.00    +0.000 N 
ATOM     24  C   UNL     1      44.323   2.769  10.100  0.00  0.00    +0.000 A 
ATOM     25  N   UNL     1      44.442   1.993   9.007  0.00  0.00    +0.000 NA
ATOM     26  C   UNL     1      45.107   2.606   7.999  0.00  0.00    +0.000 A 
ATOM     27  C   UNL     1      45.631   3.891   8.037  0.00  0.00    +0.000 A 
ATOM     28  C   UNL     1      45.473   4.649   9.197  0.00  0.00    +0.000 A 
ATOM     29  C   UNL     1      44.788   4.066  10.279  0.00  0.00    +0.000 A 
ATOM     30  H   UNL     1      43.258   1.484  11.369  0.00  0.00    +0.000 HD
ENDBRANCH  18  21
ENDBRANCH   1  19
TORSDOF 7
ENDMDL
MODEL 7
REMARK VINA RESULT:    -6.964      2.216      9.478
REMARK INTER + INTRA:         -10.544
REMARK INTER:                  -9.763
REMARK INTRA:                  -0.782
REMARK UNBOUND:                -0.730
REMARK  Name = 
REMARK  7 active torsions:
REMARK  status: ('A' for Active; 'I' for Inactive)
REMARK    1  A    between atoms: C_2  and  C_20
REMARK    2  A    between atoms: N_3  and  C_4
REMARK    3  A    between atoms: C_4  and  C_5
REMARK    4  A    between atoms: C_8  and  C_9
REMARK    5  A    between atoms: C_9  and  C_10
REMARK    6  A    between atoms: C_10  and  O_11
REMARK    7  A    between atoms: O_11  and  C_12
REMARK                            x       y       z     vdW  Elec       q    Type
REMARK                         _______ _______ _______ _____ _____    ______ ____
ROOT
ATOM      1  C   UNL     1      45.570   7.163  11.566  0.00  0.00    +0.000 C 
ENDROOT
BRANCH   1   2
ATOM      2  C   UNL     1      46.637   7.404  12.596  0.00  0.00    +0.000 A 
ATOM      3  C   UNL     1      47.734   6.541  12.680  0.00  0.00    +0.000 A 
ATOM      4  C   UNL     1      48.763   6.784  13.593  0.00  0.00    +0.000 A 
ATOM      5  C   UNL     1      48.718   7.888  14.456  0.00  0.00    +0.000 A 
ATOM      6  C   UNL     1      47.608   8.741  14.380  0.00  0.00    +0.000 A 
ATOM      7  C   UNL     1      46.575   8.499  13.466  0.00  0.00    +0.000 A 
BRANCH   5   8
ATOM      8  C   UNL     1      49.808   8.198  15.464  0.00  0.00    +0.000 C 
BRANCH   8   9
ATOM      9  C   UNL     1      49.762   7.374  16.751  0.00  0.00    +0.000 C 
BRANCH   9  10
ATOM     10  O   UNL     1      50.287   6.066  16.517  0.00  0.00    +0.000 OA
BRANCH  10  11
ATOM     11  C   UNL     1      49.379   5.108  16.923  0.00  0.00    +0.000 A 
ATOM     12  N   UNL     1      49.854   3.859  17.008  0.00  0.00    +0.000 NA
ATOM     13  C   UNL     1      48.963   2.919  17.378  0.00  0.00    +0.000 A 
ATOM     14  C   UNL     1      47.645   3.188  17.673  0.00  0.00    +0.000 A 
ATOM     15  C   UNL     1      47.272   4.506  17.570  0.00  0.00    +0.000 A 
ATOM     16  N   UNL     1      48.113   5.481  17.196  0.00  0.00    +0.000 NA
ENDBRANCH  10  11
ENDBRANCH   9  10
ENDBRANCH   8   9
ENDBRANCH   5   8
ENDBRANCH   1   2
BRANCH   1  19
ATOM     17  O   UNL     1      43.424   5.602  10.893  0.00  0.00    +0.000 OA
ATOM     18  C   UNL     1      44.542   5.168  10.634  0.00  0.00    +0.000 C 
ATOM     19  N   UNL     1      45.686   5.877  10.929  0.00  0.00    +0.000 N 
ATOM     20  H   UNL     1      46.591   5.547  10.634  0.00  0.00    +0.000 HD
BRANCH  18  21
ATOM     21  C   UNL     1      44.742   3.865   9.999  0.00  0.00    +0.000 A 
ATOM     22  C   UNL     1      44.202   2.641  10.372  0.00  0.00    +0.000 A 
ATOM     23  N   UNL     1      44.612   1.690   9.469  0.00  0.00    +0.000 N 
ATOM     24  C   UNL     1      45.425   2.259   8.532  0.00  0.00    +0.000 A 
ATOM     25  N   UNL     1      45.991   1.588   7.512  0.00  0.00    +0.000 NA
ATOM     26  C   UNL     1      46.751   2.380   6.720  0.00  0.00    +0.000 A 
ATOM     27  C   UNL     1      46.960   3.741   6.897  0.00  0.00    +0.000 A 
ATOM     28  C   UNL     1      46.345   4.384   7.971  0.00  0.00    +0.000 A 
ATOM     29  C   UNL     1      45.539   3.612   8.828  0.00  0.00    +0.000 A 
ATOM     30  H   UNL     1      44.362   0.713   9.468  0.00  0.00    +0.000 HD
ENDBRANCH  18  21
ENDBRANCH   1  19
TORSDOF 7
ENDMDL
MODEL 8
REMARK VINA RESULT:    -6.846      3.649      5.841
REMARK INTER + INTRA:         -10.377
REMARK INTER:                  -9.568
REMARK INTRA:                  -0.809
REMARK UNBOUND:                -0.730
REMARK  Name = 
REMARK  7 active torsions:
REMARK  status: ('A' for Active; 'I' for Inactive)
REMARK    1  A    between atoms: C_2  and  C_20
REMARK    2  A    between atoms: N_3  and  C_4
REMARK    3  A    between atoms: C_4  and  C_5
REMARK    4  A    between atoms: C_8  and  C_9
REMARK    5  A    between atoms: C_9  and  C_10
REMARK    6  A    between atoms: C_10  and  O_11
REMARK    7  A    between atoms: O_11  and  C_12
REMARK                            x       y       z     vdW  Elec       q    Type
REMARK                         _______ _______ _______ _____ _____    ______ ____
ROOT
ATOM      1  C   UNL     1      47.932   6.226  14.167  0.00  0.00    +0.000 C 
ENDROOT
BRANCH   1   2
ATOM      2  C   UNL     1      46.828   5.835  13.226  0.00  0.00    +0.000 A 
ATOM      3  C   UNL     1      46.751   6.421  11.959  0.00  0.00    +0.000 A 
ATOM      4  C   UNL     1      45.766   6.024  11.050  0.00  0.00    +0.000 A 
ATOM      5  C   UNL     1      44.823   5.044  11.388  0.00  0.00    +0.000 A 
ATOM      6  C   UNL     1      44.894   4.471  12.666  0.00  0.00    +0.000 A 
ATOM      7  C   UNL     1      45.880   4.867  13.578  0.00  0.00    +0.000 A 
BRANCH   5   8
ATOM      8  C   UNL     1      43.735   4.577  10.440  0.00  0.00    +0.000 C 
BRANCH   8   9
ATOM      9  C   UNL     1      44.226   4.028   9.100  0.00  0.00    +0.000 C 
BRANCH   9  10
ATOM     10  O   UNL     1      44.789   2.728   9.278  0.00  0.00    +0.000 OA
BRANCH  10  11
ATOM     11  C   UNL     1      45.701   2.461   8.276  0.00  0.00    +0.000 A 
ATOM     12  N   UNL     1      46.272   1.250   8.318  0.00  0.00    +0.000 NA
ATOM     13  C   UNL     1      47.181   0.999   7.358  0.00  0.00    +0.000 A 
ATOM     14  C   UNL     1      47.517   1.897   6.368  0.00  0.00    +0.000 A 
ATOM     15  C   UNL     1      46.857   3.100   6.412  0.00  0.00    +0.000 A 
ATOM     16  N   UNL     1      45.950   3.408   7.351  0.00  0.00    +0.000 NA
ENDBRANCH  10  11
ENDBRANCH   9  10
ENDBRANCH   8   9
ENDBRANCH   5   8
ENDBRANCH   1   2
BRANCH   1  19
ATOM     17  O   UNL     1      50.404   6.891  15.138  0.00  0.00    +0.000 OA
ATOM     18  C   UNL     1      49.937   7.596  14.249  0.00  0.00    +0.000 C 
ATOM     19  N   UNL     1      48.702   7.346  13.692  0.00  0.00    +0.000 N 
ATOM     20  H   UNL     1      48.370   7.881  12.907  0.00  0.00    +0.000 HD
BRANCH  18  21
ATOM     21  C   UNL     1      50.654   8.758  13.723  0.00  0.00    +0.000 A 
ATOM     22  C   UNL     1      50.890   9.974  14.352  0.00  0.00    +0.000 A 
ATOM     23  N   UNL     1      51.645  10.759  13.514  0.00  0.00    +0.000 N 
ATOM     24  C   UNL     1      51.885  10.095  12.346  0.00  0.00    +0.000 A 
ATOM     25  N   UNL     1      52.597  10.598  11.321  0.00  0.00    +0.000 NA
ATOM     26  C   UNL     1      52.693   9.741  10.278  0.00  0.00    +0.000 A 
ATOM     27  C   UNL     1      52.136   8.470  10.219  0.00  0.00    +0.000 A 
ATOM     28  C   UNL     1      51.412   8.000  11.314  0.00  0.00    +0.000 A 
ATOM     29  C   UNL     1      51.280   8.847  12.431  0.00  0.00    +0.000 A 
ATOM     30  H   UNL     1      51.990  11.686  13.707  0.00  0.00    +0.000 HD
ENDBRANCH  18  21
ENDBRANCH   1  19
TORSDOF 7
ENDMDL
MODEL 9
REMARK VINA RESULT:    -6.563      3.271      4.459
REMARK INTER + INTRA:          -9.978
REMARK INTER:                  -9.220
REMARK INTRA:                  -0.758
REMARK UNBOUND:                -0.730
REMARK  Name = 
REMARK  7 active torsions:
REMARK  status: ('A' for Active; 'I' for Inactive)
REMARK    1  A    between atoms: C_2  and  C_20
REMARK    2  A    between atoms: N_3  and  C_4
REMARK    3  A    between atoms: C_4  and  C_5
REMARK    4  A    between atoms: C_8  and  C_9
REMARK    5  A    between atoms: C_9  and  C_10
REMARK    6  A    between atoms: C_10  and  O_11
REMARK    7  A    between atoms: O_11  and  C_12
REMARK                            x       y       z     vdW  Elec       q    Type
REMARK                         _______ _______ _______ _____ _____    ______ ____
ROOT
ATOM      1  C   UNL     1      47.627   5.831  14.561  0.00  0.00    +0.000 C 
ENDROOT
BRANCH   1   2
ATOM      2  C   UNL     1      46.594   5.574  13.500  0.00  0.00    +0.000 A 
ATOM      3  C   UNL     1      46.688   6.221  12.264  0.00  0.00    +0.000 A 
ATOM      4  C   UNL     1      45.770   5.948  11.247  0.00  0.00    +0.000 A 
ATOM      5  C   UNL     1      44.724   5.035  11.443  0.00  0.00    +0.000 A 
ATOM      6  C   UNL     1      44.624   4.402  12.690  0.00  0.00    +0.000 A 
ATOM      7  C   UNL     1      45.544   4.673  13.710  0.00  0.00    +0.000 A 
BRANCH   5   8
ATOM      8  C   UNL     1      43.701   4.703  10.373  0.00  0.00    +0.000 C 
BRANCH   8   9
ATOM      9  C   UNL     1      44.278   4.184   9.055  0.00  0.00    +0.000 C 
BRANCH   9  10
ATOM     10  O   UNL     1      44.670   2.818   9.193  0.00  0.00    +0.000 OA
BRANCH  10  11
ATOM     11  C   UNL     1      45.617   2.494   8.241  0.00  0.00    +0.000 A 
ATOM     12  N   UNL     1      45.857   3.435   7.319  0.00  0.00    +0.000 NA
ATOM     13  C   UNL     1      46.759   3.110   6.374  0.00  0.00    +0.000 A 
ATOM     14  C   UNL     1      47.426   1.905   6.335  0.00  0.00    +0.000 A 
ATOM     15  C   UNL     1      47.115   1.023   7.340  0.00  0.00    +0.000 A 
ATOM     16  N   UNL     1      46.217   1.289   8.300  0.00  0.00    +0.000 NA
ENDBRANCH  10  11
ENDBRANCH   9  10
ENDBRANCH   8   9
ENDBRANCH   5   8
ENDBRANCH   1   2
BRANCH   1  19
ATOM     17  O   UNL     1      50.054   6.348  15.719  0.00  0.00    +0.000 OA
ATOM     18  C   UNL     1      49.597   7.197  14.960  0.00  0.00    +0.000 C 
ATOM     19  N   UNL     1      48.385   7.032  14.326  0.00  0.00    +0.000 N 
ATOM     20  H   UNL     1      48.063   7.698  13.642  0.00  0.00    +0.000 HD
BRANCH  18  21
ATOM     21  C   UNL     1      50.302   8.448  14.681  0.00  0.00    +0.000 A 
ATOM     22  C   UNL     1      51.401   8.644  13.853  0.00  0.00    +0.000 A 
ATOM     23  N   UNL     1      51.706   9.983  13.844  0.00  0.00    +0.000 N 
ATOM     24  C   UNL     1      50.851  10.661  14.663  0.00  0.00    +0.000 A 
ATOM     25  N   UNL     1      50.893  11.990  14.868  0.00  0.00    +0.000 NA
ATOM     26  C   UNL     1      49.934  12.419  15.723  0.00  0.00    +0.000 A 
ATOM     27  C   UNL     1      48.988  11.619  16.348  0.00  0.00    +0.000 A 
ATOM     28  C   UNL     1      48.992  10.248  16.094  0.00  0.00    +0.000 A 
ATOM     29  C   UNL     1      49.964   9.742  15.211  0.00  0.00    +0.000 A 
ATOM     30  H   UNL     1      52.441  10.429  13.317  0.00  0.00    +0.000 HD
ENDBRANCH  18  21
ENDBRANCH   1  19
TORSDOF 7
ENDMDL
