MODEL 1
REMARK VINA RESULT:    -6.873      0.000      0.000
REMARK INTER + INTRA:          -8.327
REMARK INTER:                  -8.078
REMARK INTRA:                  -0.249
REMARK UNBOUND:                -0.249
REMARK  Name = 
REMARK  3 active torsions:
REMARK  status: ('A' for Active; 'I' for Inactive)
REMARK    1  A    between atoms: C_2  and  C_4
REMARK    2  A    between atoms: C_8  and  C_9
REMARK    3  A    between atoms: C_10  and  C_11
REMARK                            x       y       z     vdW  Elec       q    Type
REMARK                         _______ _______ _______ _____ _____    ______ ____
ROOT
ATOM      1  C   UNL     1      45.966   4.545  13.862  0.00  0.00    +0.000 C 
ATOM      2  C   UNL     1      46.707   4.349  14.800  0.00  0.00    +0.000 C 
ENDROOT
BRANCH   2   3
ATOM      3  C   UNL     1      47.576   4.048  15.911  0.00  0.00    +0.000 A 
ATOM      4  C   UNL     1      48.164   2.798  16.036  0.00  0.00    +0.000 A 
ATOM      5  C   UNL     1      48.977   2.572  17.135  0.00  0.00    +0.000 A 
ATOM      6  N   UNL     1      49.222   3.483  18.106  0.00  0.00    +0.000 NA
ATOM      7  C   UNL     1      48.616   4.686  18.020  0.00  0.00    +0.000 A 
ATOM      8  N   UNL     1      48.779   5.604  19.042  0.00  0.00    +0.000 N 
ATOM      9  C   UNL     1      50.004   5.635  19.835  0.00  0.00    +0.000 C 
ATOM     10  C   UNL     1      49.735   5.355  21.314  0.00  0.00    +0.000 C 
ATOM     11  C   UNL     1      48.593   6.210  21.859  0.00  0.00    +0.000 C 
ATOM     12  C   UNL     1      47.348   6.059  20.992  0.00  0.00    +0.000 C 
ATOM     13  C   UNL     1      47.637   6.372  19.523  0.00  0.00    +0.000 C 
ATOM     14  C   UNL     1      47.816   4.996  16.910  0.00  0.00    +0.000 A 
ENDBRANCH   2   3
BRANCH   1  19
ATOM     15  C   UNL     1      44.585   4.671  10.411  0.00  0.00    +0.000 A 
ATOM     16  C   UNL     1      43.330   5.210  10.682  0.00  0.00    +0.000 A 
ATOM     17  C   UNL     1      43.013   5.447  12.005  0.00  0.00    +0.000 A 
ATOM     18  N   UNL     1      43.858   5.218  13.039  0.00  0.00    +0.000 NA
ATOM     19  C   UNL     1      45.069   4.688  12.748  0.00  0.00    +0.000 A 
ATOM     20  C   UNL     1      45.463   4.372  11.459  0.00  0.00    +0.000 A 
BRANCH  15  22
ATOM     21  N   UNL     1      44.329   3.431   8.337  0.00  0.00    +0.000 N 
ATOM     22  C   UNL     1      45.010   4.402   9.017  0.00  0.00    +0.000 C 
ATOM     23  O   UNL     1      45.901   5.050   8.488  0.00  0.00    +0.000 OA
ATOM     24  H   UNL     1      44.548   3.332   7.353  0.00  0.00    +0.000 HD
ATOM     25  H   UNL     1      43.442   3.064   8.651  0.00  0.00    +0.000 HD
ENDBRANCH  15  22
ENDBRANCH   1  19
TORSDOF 3
ENDMDL
MODEL 2
REMARK VINA RESULT:    -6.651      1.688      1.848
REMARK INTER + INTRA:          -8.067
REMARK INTER:                  -7.809
REMARK INTRA:                  -0.258
REMARK UNBOUND:                -0.249
REMARK  Name = 
REMARK  3 active torsions:
REMARK  status: ('A' for Active; 'I' for Inactive)
REMARK    1  A    between atoms: C_2  and  C_4
REMARK    2  A    between atoms: C_8  and  C_9
REMARK    3  A    between atoms: C_10  and  C_11
REMARK                            x       y       z     vdW  Elec       q    Type
REMARK                         _______ _______ _______ _____ _____    ______ ____
ROOT
ATOM      1  C   UNL     1      46.789   4.610  14.254  0.00  0.00    +0.000 C 
ATOM      2  C   UNL     1      47.277   4.487  15.356  0.00  0.00    +0.000 C 
ENDROOT
BRANCH   2   3
ATOM      3  C   UNL     1      47.811   4.386  16.692  0.00  0.00    +0.000 A 
ATOM      4  C   UNL     1      47.929   3.156  17.320  0.00  0.00    +0.000 A 
ATOM      5  C   UNL     1      48.439   3.133  18.609  0.00  0.00    +0.000 A 
ATOM      6  N   UNL     1      48.812   4.234  19.304  0.00  0.00    +0.000 NA
ATOM      7  C   UNL     1      48.655   5.441  18.720  0.00  0.00    +0.000 A 
ATOM      8  N   UNL     1      48.946   6.587  19.438  0.00  0.00    +0.000 N 
ATOM      9  C   UNL     1      49.971   6.582  20.477  0.00  0.00    +0.000 C 
ATOM     10  C   UNL     1      49.395   6.923  21.852  0.00  0.00    +0.000 C 
ATOM     11  C   UNL     1      48.525   8.177  21.812  0.00  0.00    +0.000 C 
ATOM     12  C   UNL     1      47.454   8.053  20.734  0.00  0.00    +0.000 C 
ATOM     13  C   UNL     1      48.057   7.741  19.364  0.00  0.00    +0.000 C 
ATOM     14  C   UNL     1      48.187   5.531  17.400  0.00  0.00    +0.000 A 
ENDBRANCH   2   3
BRANCH   1  19
ATOM     15  C   UNL     1      44.850   4.086  11.125  0.00  0.00    +0.000 A 
ATOM     16  C   UNL     1      45.181   5.256  10.446  0.00  0.00    +0.000 A 
ATOM     17  C   UNL     1      45.989   6.164  11.103  0.00  0.00    +0.000 A 
ATOM     18  N   UNL     1      46.499   5.966  12.342  0.00  0.00    +0.000 NA
ATOM     19  C   UNL     1      46.156   4.822  12.981  0.00  0.00    +0.000 A 
ATOM     20  C   UNL     1      45.315   3.872  12.426  0.00  0.00    +0.000 A 
BRANCH  15  22
ATOM     21  N   UNL     1      44.232   2.792   9.163  0.00  0.00    +0.000 N 
ATOM     22  C   UNL     1      44.001   3.053  10.485  0.00  0.00    +0.000 C 
ATOM     23  O   UNL     1      43.163   2.434  11.123  0.00  0.00    +0.000 OA
ATOM     24  H   UNL     1      43.728   2.008   8.764  0.00  0.00    +0.000 HD
ATOM     25  H   UNL     1      45.068   3.095   8.684  0.00  0.00    +0.000 HD
ENDBRANCH  15  22
ENDBRANCH   1  19
TORSDOF 3
ENDMDL
MODEL 3
REMARK VINA RESULT:    -6.164      3.890      8.854
REMARK INTER + INTRA:          -7.494
REMARK INTER:                  -7.238
REMARK INTRA:                  -0.257
REMARK UNBOUND:                -0.249
REMARK  Name = 
REMARK  3 active torsions:
REMARK  status: ('A' for Active; 'I' for Inactive)
REMARK    1  A    between atoms: C_2  and  C_4
REMARK    2  A    between atoms: C_8  and  C_9
REMARK    3  A    between atoms: C_10  and  C_11
REMARK                            x       y       z     vdW  Elec       q    Type
REMARK                         _______ _______ _______ _____ _____    ______ ____
ROOT
ATOM      1  C   UNL     1      46.980   4.370  14.914  0.00  0.00    +0.000 C 
ATOM      2  C   UNL     1      46.401   4.884  13.982  0.00  0.00    +0.000 C 
ENDROOT
BRANCH   2   3
ATOM      3  C   UNL     1      45.768   5.537  12.862  0.00  0.00    +0.000 A 
ATOM      4  C   UNL     1      45.449   4.830  11.714  0.00  0.00    +0.000 A 
ATOM      5  C   UNL     1      44.855   5.522  10.671  0.00  0.00    +0.000 A 
ATOM      6  N   UNL     1      44.580   6.848  10.691  0.00  0.00    +0.000 NA
ATOM      7  C   UNL     1      44.932   7.556  11.785  0.00  0.00    +0.000 A 
ATOM      8  N   UNL     1      44.743   8.926  11.798  0.00  0.00    +0.000 N 
ATOM      9  C   UNL     1      43.658   9.542  11.041  0.00  0.00    +0.000 C 
ATOM     10  C   UNL     1      44.178  10.506   9.975  0.00  0.00    +0.000 C 
ATOM     11  C   UNL     1      45.203  11.485  10.542  0.00  0.00    +0.000 C 
ATOM     12  C   UNL     1      46.321  10.737  11.260  0.00  0.00    +0.000 C 
ATOM     13  C   UNL     1      45.777   9.801  12.340  0.00  0.00    +0.000 C 
ATOM     14  C   UNL     1      45.496   6.907  12.894  0.00  0.00    +0.000 A 
ENDBRANCH   2   3
BRANCH   1  19
ATOM     15  C   UNL     1      48.672   3.936  18.197  0.00  0.00    +0.000 A 
ATOM     16  C   UNL     1      49.388   2.769  17.938  0.00  0.00    +0.000 A 
ATOM     17  C   UNL     1      49.215   2.180  16.701  0.00  0.00    +0.000 A 
ATOM     18  N   UNL     1      48.424   2.686  15.724  0.00  0.00    +0.000 NA
ATOM     19  C   UNL     1      47.736   3.818  16.005  0.00  0.00    +0.000 A 
ATOM     20  C   UNL     1      47.805   4.458  17.231  0.00  0.00    +0.000 A 
BRANCH  15  22
ATOM     21  N   UNL     1      48.543   3.920  20.623  0.00  0.00    +0.000 N 
ATOM     22  C   UNL     1      48.813   4.640  19.493  0.00  0.00    +0.000 C 
ATOM     23  O   UNL     1      49.195   5.800  19.549  0.00  0.00    +0.000 OA
ATOM     24  H   UNL     1      48.750   4.372  21.506  0.00  0.00    +0.000 HD
ATOM     25  H   UNL     1      48.475   2.912  20.625  0.00  0.00    +0.000 HD
ENDBRANCH  15  22
ENDBRANCH   1  19
TORSDOF 3
ENDMDL
MODEL 4
REMARK VINA RESULT:    -6.106      2.280      3.019
REMARK INTER + INTRA:          -7.426
REMARK INTER:                  -7.178
REMARK INTRA:                  -0.248
REMARK UNBOUND:                -0.249
REMARK  Name = 
REMARK  3 active torsions:
REMARK  status: ('A' for Active; 'I' for Inactive)
REMARK    1  A    between atoms: C_2  and  C_4
REMARK    2  A    between atoms: C_8  and  C_9
REMARK    3  A    between atoms: C_10  and  C_11
REMARK                            x       y       z     vdW  Elec       q    Type
REMARK                         _______ _______ _______ _____ _____    ______ ____
ROOT
ATOM      1  C   UNL     1      46.293   5.461  13.613  0.00  0.00    +0.000 C 
ATOM      2  C   UNL     1      47.283   5.824  14.209  0.00  0.00    +0.000 C 
ENDROOT
BRANCH   2   3
ATOM      3  C   UNL     1      48.481   6.293  14.861  0.00  0.00    +0.000 A 
ATOM      4  C   UNL     1      49.280   7.261  14.271  0.00  0.00    +0.000 A 
ATOM      5  C   UNL     1      50.423   7.657  14.946  0.00  0.00    +0.000 A 
ATOM      6  N   UNL     1      50.824   7.149  16.136  0.00  0.00    +0.000 NA
ATOM      7  C   UNL     1      50.080   6.171  16.695  0.00  0.00    +0.000 A 
ATOM      8  N   UNL     1      50.513   5.573  17.865  0.00  0.00    +0.000 N 
ATOM      9  C   UNL     1      51.309   6.314  18.838  0.00  0.00    +0.000 C 
ATOM     10  C   UNL     1      52.689   5.689  19.043  0.00  0.00    +0.000 C 
ATOM     11  C   UNL     1      52.605   4.186  19.293  0.00  0.00    +0.000 C 
ATOM     12  C   UNL     1      51.803   3.502  18.191  0.00  0.00    +0.000 C 
ATOM     13  C   UNL     1      50.416   4.126  18.025  0.00  0.00    +0.000 C 
ATOM     14  C   UNL     1      48.886   5.756  16.085  0.00  0.00    +0.000 A 
ENDBRANCH   2   3
BRANCH   1  19
ATOM     15  C   UNL     1      44.142   4.147  10.879  0.00  0.00    +0.000 A 
ATOM     16  C   UNL     1      42.899   4.586  11.329  0.00  0.00    +0.000 A 
ATOM     17  C   UNL     1      42.860   5.247  12.541  0.00  0.00    +0.000 A 
ATOM     18  N   UNL     1      43.954   5.518  13.292  0.00  0.00    +0.000 NA
ATOM     19  C   UNL     1      45.149   5.074  12.833  0.00  0.00    +0.000 A 
ATOM     20  C   UNL     1      45.286   4.363  11.654  0.00  0.00    +0.000 A 
BRANCH  15  22
ATOM     21  N   UNL     1      44.188   4.209   8.450  0.00  0.00    +0.000 N 
ATOM     22  C   UNL     1      44.273   3.445   9.581  0.00  0.00    +0.000 C 
ATOM     23  O   UNL     1      44.491   2.243   9.526  0.00  0.00    +0.000 OA
ATOM     24  H   UNL     1      44.392   3.742   7.574  0.00  0.00    +0.000 HD
ATOM     25  H   UNL     1      44.263   5.216   8.465  0.00  0.00    +0.000 HD
ENDBRANCH  15  22
ENDBRANCH   1  19
TORSDOF 3
ENDMDL
MODEL 5
REMARK VINA RESULT:    -5.969      6.203      7.641
REMARK INTER + INTRA:          -7.265
REMARK INTER:                  -7.007
REMARK INTRA:                  -0.258
REMARK UNBOUND:                -0.249
REMARK  Name = 
REMARK  3 active torsions:
REMARK  status: ('A' for Active; 'I' for Inactive)
REMARK    1  A    between atoms: C_2  and  C_4
REMARK    2  A    between atoms: C_8  and  C_9
REMARK    3  A    between atoms: C_10  and  C_11
REMARK                            x       y       z     vdW  Elec       q    Type
REMARK                         _______ _______ _______ _____ _____    ______ ____
ROOT
ATOM      1  C   UNL     1      46.991   6.922  11.908  0.00  0.00    +0.000 C 
ATOM      2  C   UNL     1      47.990   7.605  11.855  0.00  0.00    +0.000 C 
ENDROOT
BRANCH   2   3
ATOM      3  C   UNL     1      49.200   8.381  11.736  0.00  0.00    +0.000 A 
ATOM      4  C   UNL     1      49.186   9.754  11.924  0.00  0.00    +0.000 A 
ATOM      5  C   UNL     1      50.382  10.440  11.782  0.00  0.00    +0.000 A 
ATOM      6  N   UNL     1      51.562   9.860  11.454  0.00  0.00    +0.000 NA
ATOM      7  C   UNL     1      51.577   8.531  11.221  0.00  0.00    +0.000 A 
ATOM      8  N   UNL     1      52.749   7.928  10.800  0.00  0.00    +0.000 N 
ATOM      9  C   UNL     1      54.050   8.455  11.199  0.00  0.00    +0.000 C 
ATOM     10  C   UNL     1      54.880   8.902   9.995  0.00  0.00    +0.000 C 
ATOM     11  C   UNL     1      54.925   7.835   8.905  0.00  0.00    +0.000 C 
ATOM     12  C   UNL     1      53.515   7.398   8.522  0.00  0.00    +0.000 C 
ATOM     13  C   UNL     1      52.715   6.929   9.738  0.00  0.00    +0.000 C 
ATOM     14  C   UNL     1      50.409   7.771  11.392  0.00  0.00    +0.000 A 
ENDBRANCH   2   3
BRANCH   1  19
ATOM     15  C   UNL     1      44.402   4.465  10.864  0.00  0.00    +0.000 A 
ATOM     16  C   UNL     1      43.491   4.629  11.906  0.00  0.00    +0.000 A 
ATOM     17  C   UNL     1      43.831   5.511  12.912  0.00  0.00    +0.000 A 
ATOM     18  N   UNL     1      44.971   6.244  12.925  0.00  0.00    +0.000 NA
ATOM     19  C   UNL     1      45.840   6.061  11.902  0.00  0.00    +0.000 A 
ATOM     20  C   UNL     1      45.612   5.166  10.871  0.00  0.00    +0.000 A 
BRANCH  15  22
ATOM     21  N   UNL     1      44.000   4.109   8.494  0.00  0.00    +0.000 N 
ATOM     22  C   UNL     1      44.107   3.550   9.737  0.00  0.00    +0.000 C 
ATOM     23  O   UNL     1      44.006   2.343   9.906  0.00  0.00    +0.000 OA
ATOM     24  H   UNL     1      43.912   3.466   7.716  0.00  0.00    +0.000 HD
ATOM     25  H   UNL     1      44.324   5.043   8.286  0.00  0.00    +0.000 HD
ENDBRANCH  15  22
ENDBRANCH   1  19
TORSDOF 3
ENDMDL
MODEL 6
REMARK VINA RESULT:    -5.872      2.480      3.596
REMARK INTER + INTRA:          -7.152
REMARK INTER:                  -6.898
REMARK INTRA:                  -0.254
REMARK UNBOUND:                -0.249
REMARK  Name = 
REMARK  3 active torsions:
REMARK  status: ('A' for Active; 'I' for Inactive)
REMARK    1  A    between atoms: C_2  and  C_4
REMARK    2  A    between atoms: C_8  and  C_9
REMARK    3  A    between atoms: C_10  and  C_11
REMARK                            x       y       z     vdW  Elec       q    Type
REMARK                         _______ _______ _______ _____ _____    ______ ____
ROOT
ATOM      1  C   UNL     1      46.983   4.545  15.132  0.00  0.00    +0.000 C 
ATOM      2  C   UNL     1      47.615   4.562  16.165  0.00  0.00    +0.000 C 
ENDROOT
BRANCH   2   3
ATOM      3  C   UNL     1      48.423   4.607  17.359  0.00  0.00    +0.000 A 
ATOM      4  C   UNL     1      47.848   4.839  18.599  0.00  0.00    +0.000 A 
ATOM      5  C   UNL     1      48.684   4.882  19.703  0.00  0.00    +0.000 A 
ATOM      6  N   UNL     1      50.029   4.731  19.650  0.00  0.00    +0.000 NA
ATOM      7  C   UNL     1      50.605   4.554  18.442  0.00  0.00    +0.000 A 
ATOM      8  N   UNL     1      51.983   4.484  18.350  0.00  0.00    +0.000 N 
ATOM      9  C   UNL     1      52.784   3.955  19.449  0.00  0.00    +0.000 C 
ATOM     10  C   UNL     1      53.752   4.999  20.007  0.00  0.00    +0.000 C 
ATOM     11  C   UNL     1      54.551   5.685  18.901  0.00  0.00    +0.000 C 
ATOM     12  C   UNL     1      53.618   6.251  17.837  0.00  0.00    +0.000 C 
ATOM     13  C   UNL     1      52.679   5.182  17.275  0.00  0.00    +0.000 C 
ATOM     14  C   UNL     1      49.811   4.455  17.290  0.00  0.00    +0.000 A 
ENDBRANCH   2   3
BRANCH   1  19
ATOM     15  C   UNL     1      45.059   5.633  12.141  0.00  0.00    +0.000 A 
ATOM     16  C   UNL     1      44.849   4.396  11.536  0.00  0.00    +0.000 A 
ATOM     17  C   UNL     1      45.410   3.289  12.143  0.00  0.00    +0.000 A 
ATOM     18  N   UNL     1      46.116   3.335  13.299  0.00  0.00    +0.000 NA
ATOM     19  C   UNL     1      46.308   4.552  13.862  0.00  0.00    +0.000 A 
ATOM     20  C   UNL     1      45.826   5.724  13.307  0.00  0.00    +0.000 A 
BRANCH  15  22
ATOM     21  N   UNL     1      43.164   6.818  11.186  0.00  0.00    +0.000 N 
ATOM     22  C   UNL     1      44.477   6.867  11.563  0.00  0.00    +0.000 C 
ATOM     23  O   UNL     1      45.132   7.895  11.469  0.00  0.00    +0.000 OA
ATOM     24  H   UNL     1      42.744   7.694  10.899  0.00  0.00    +0.000 HD
ATOM     25  H   UNL     1      42.539   6.080  11.480  0.00  0.00    +0.000 HD
ENDBRANCH  15  22
ENDBRANCH   1  19
TORSDOF 3
ENDMDL
MODEL 7
REMARK VINA RESULT:    -5.845      4.462      5.132
REMARK INTER + INTRA:          -7.120
REMARK INTER:                  -6.860
REMARK INTRA:                  -0.260
REMARK UNBOUND:                -0.249
REMARK  Name = 
REMARK  3 active torsions:
REMARK  status: ('A' for Active; 'I' for Inactive)
REMARK    1  A    between atoms: C_2  and  C_4
REMARK    2  A    between atoms: C_8  and  C_9
REMARK    3  A    between atoms: C_10  and  C_11
REMARK                            x       y       z     vdW  Elec       q    Type
REMARK                         _______ _______ _______ _____ _____    ______ ____
ROOT
ATOM      1  C   UNL     1      46.804   6.794  11.856  0.00  0.00    +0.000 C 
ATOM      2  C   UNL     1      47.926   7.215  12.035  0.00  0.00    +0.000 C 
ENDROOT
BRANCH   2   3
ATOM      3  C   UNL     1      49.284   7.650  12.252  0.00  0.00    +0.000 A 
ATOM      4  C   UNL     1      50.126   7.912  11.183  0.00  0.00    +0.000 A 
ATOM      5  C   UNL     1      51.423   8.313  11.463  0.00  0.00    +0.000 A 
ATOM      6  N   UNL     1      51.928   8.450  12.712  0.00  0.00    +0.000 NA
ATOM      7  C   UNL     1      51.132   8.150  13.759  0.00  0.00    +0.000 A 
ATOM      8  N   UNL     1      51.649   8.196  15.042  0.00  0.00    +0.000 N 
ATOM      9  C   UNL     1      52.723   9.122  15.386  0.00  0.00    +0.000 C 
ATOM     10  C   UNL     1      53.984   8.390  15.848  0.00  0.00    +0.000 C 
ATOM     11  C   UNL     1      53.676   7.338  16.910  0.00  0.00    +0.000 C 
ATOM     12  C   UNL     1      52.585   6.390  16.427  0.00  0.00    +0.000 C 
ATOM     13  C   UNL     1      51.325   7.143  15.998  0.00  0.00    +0.000 C 
ATOM     14  C   UNL     1      49.795   7.781  13.546  0.00  0.00    +0.000 A 
ENDBRANCH   2   3
BRANCH   1  19
ATOM     15  C   UNL     1      44.073   4.365  11.171  0.00  0.00    +0.000 A 
ATOM     16  C   UNL     1      42.999   5.246  11.064  0.00  0.00    +0.000 A 
ATOM     17  C   UNL     1      43.254   6.586  11.279  0.00  0.00    +0.000 A 
ATOM     18  N   UNL     1      44.481   7.090  11.552  0.00  0.00    +0.000 NA
ATOM     19  C   UNL     1      45.506   6.210  11.656  0.00  0.00    +0.000 A 
ATOM     20  C   UNL     1      45.344   4.844  11.503  0.00  0.00    +0.000 A 
BRANCH  15  22
ATOM     21  N   UNL     1      44.789   2.297  10.114  0.00  0.00    +0.000 N 
ATOM     22  C   UNL     1      43.889   2.913  10.938  0.00  0.00    +0.000 C 
ATOM     23  O   UNL     1      42.997   2.288  11.494  0.00  0.00    +0.000 OA
ATOM     24  H   UNL     1      44.725   1.288  10.051  0.00  0.00    +0.000 HD
ATOM     25  H   UNL     1      45.666   2.722   9.850  0.00  0.00    +0.000 HD
ENDBRANCH  15  22
ENDBRANCH   1  19
TORSDOF 3
ENDMDL
MODEL 8
REMARK VINA RESULT:    -5.807      6.142      8.764
REMARK INTER + INTRA:          -7.074
REMARK INTER:                  -6.805
REMARK INTRA:                  -0.270
REMARK UNBOUND:                -0.249
REMARK  Name = 
REMARK  3 active torsions:
REMARK  status: ('A' for Active; 'I' for Inactive)
REMARK    1  A    between atoms: C_2  and  C_4
REMARK    2  A    between atoms: C_8  and  C_9
REMARK    3  A    between atoms: C_10  and  C_11
REMARK                            x       y       z     vdW  Elec       q    Type
REMARK                         _______ _______ _______ _____ _____    ______ ____
ROOT
ATOM      1  C   UNL     1      50.695   7.707  11.104  0.00  0.00    +0.000 C 
ATOM      2  C   UNL     1      49.563   7.759  11.532  0.00  0.00    +0.000 C 
ENDROOT
BRANCH   2   3
ATOM      3  C   UNL     1      48.193   7.791  11.980  0.00  0.00    +0.000 A 
ATOM      4  C   UNL     1      47.777   8.709  12.932  0.00  0.00    +0.000 A 
ATOM      5  C   UNL     1      46.450   8.677  13.328  0.00  0.00    +0.000 A 
ATOM      6  N   UNL     1      45.534   7.796  12.861  0.00  0.00    +0.000 NA
ATOM      7  C   UNL     1      45.939   6.865  11.971  0.00  0.00    +0.000 A 
ATOM      8  N   UNL     1      45.046   5.899  11.544  0.00  0.00    +0.000 N 
ATOM      9  C   UNL     1      43.616   6.178  11.470  0.00  0.00    +0.000 C 
ATOM     10  C   UNL     1      42.806   5.266  12.392  0.00  0.00    +0.000 C 
ATOM     11  C   UNL     1      43.184   3.798  12.219  0.00  0.00    +0.000 C 
ATOM     12  C   UNL     1      44.690   3.609  12.372  0.00  0.00    +0.000 C 
ATOM     13  C   UNL     1      45.476   4.511  11.420  0.00  0.00    +0.000 C 
ATOM     14  C   UNL     1      47.259   6.872  11.495  0.00  0.00    +0.000 A 
ENDBRANCH   2   3
BRANCH   1  19
ATOM     15  C   UNL     1      53.508   6.891   8.812  0.00  0.00    +0.000 A 
ATOM     16  C   UNL     1      54.580   7.293   9.605  0.00  0.00    +0.000 A 
ATOM     17  C   UNL     1      54.285   7.857  10.831  0.00  0.00    +0.000 A 
ATOM     18  N   UNL     1      53.028   8.007  11.314  0.00  0.00    +0.000 NA
ATOM     19  C   UNL     1      52.005   7.613  10.519  0.00  0.00    +0.000 A 
ATOM     20  C   UNL     1      52.195   7.080   9.256  0.00  0.00    +0.000 A 
BRANCH  15  22
ATOM     21  N   UNL     1      55.036   6.094   7.099  0.00  0.00    +0.000 N 
ATOM     22  C   UNL     1      53.737   6.262   7.490  0.00  0.00    +0.000 C 
ATOM     23  O   UNL     1      52.806   5.871   6.800  0.00  0.00    +0.000 OA
ATOM     24  H   UNL     1      55.187   5.563   6.249  0.00  0.00    +0.000 HD
ATOM     25  H   UNL     1      55.813   6.170   7.740  0.00  0.00    +0.000 HD
ENDBRANCH  15  22
ENDBRANCH   1  19
TORSDOF 3
ENDMDL
MODEL 9
REMARK VINA RESULT:    -5.788      2.410      2.882
REMARK INTER + INTRA:          -7.052
REMARK INTER:                  -6.790
REMARK INTRA:                  -0.261
REMARK UNBOUND:                -0.249
REMARK  Name = 
REMARK  3 active torsions:
REMARK  status: ('A' for Active; 'I' for Inactive)
REMARK    1  A    between atoms: C_2  and  C_4
REMARK    2  A    between atoms: C_8  and  C_9
REMARK    3  A    between atoms: C_10  and  C_11
REMARK                            x       y       z     vdW  Elec       q    Type
REMARK                         _______ _______ _______ _____ _____    ______ ____
ROOT
ATOM      1  C   UNL     1      47.615   6.036  13.878  0.00  0.00    +0.000 C 
ATOM      2  C   UNL     1      48.328   6.312  14.818  0.00  0.00    +0.000 C 
ENDROOT
BRANCH   2   3
ATOM      3  C   UNL     1      49.119   6.656  15.974  0.00  0.00    +0.000 A 
ATOM      4  C   UNL     1      50.438   7.060  15.838  0.00  0.00    +0.000 A 
ATOM      5  C   UNL     1      51.144   7.364  16.991  0.00  0.00    +0.000 A 
ATOM      6  N   UNL     1      50.638   7.275  18.244  0.00  0.00    +0.000 NA
ATOM      7  C   UNL     1      49.370   6.836  18.390  0.00  0.00    +0.000 A 
ATOM      8  N   UNL     1      48.857   6.652  19.662  0.00  0.00    +0.000 N 
ATOM      9  C   UNL     1      49.312   7.470  20.781  0.00  0.00    +0.000 C 
ATOM     10  C   UNL     1      49.968   6.629  21.876  0.00  0.00    +0.000 C 
ATOM     11  C   UNL     1      49.109   5.428  22.265  0.00  0.00    +0.000 C 
ATOM     12  C   UNL     1      48.738   4.611  21.032  0.00  0.00    +0.000 C 
ATOM     13  C   UNL     1      48.059   5.469  19.964  0.00  0.00    +0.000 C 
ATOM     14  C   UNL     1      48.586   6.555  17.261  0.00  0.00    +0.000 A 
ENDBRANCH   2   3
BRANCH   1  19
ATOM     15  C   UNL     1      45.078   4.341  11.752  0.00  0.00    +0.000 A 
ATOM     16  C   UNL     1      45.149   5.145  10.618  0.00  0.00    +0.000 A 
ATOM     17  C   UNL     1      46.004   6.230  10.661  0.00  0.00    +0.000 A 
ATOM     18  N   UNL     1      46.792   6.531  11.721  0.00  0.00    +0.000 NA
ATOM     19  C   UNL     1      46.698   5.735  12.813  0.00  0.00    +0.000 A 
ATOM     20  C   UNL     1      45.839   4.653  12.884  0.00  0.00    +0.000 A 
BRANCH  15  22
ATOM     21  N   UNL     1      44.114   2.411  10.634  0.00  0.00    +0.000 N 
ATOM     22  C   UNL     1      44.199   3.148  11.782  0.00  0.00    +0.000 C 
ATOM     23  O   UNL     1      43.610   2.817  12.801  0.00  0.00    +0.000 OA
ATOM     24  H   UNL     1      43.603   1.538  10.696  0.00  0.00    +0.000 HD
ATOM     25  H   UNL     1      44.770   2.509   9.872  0.00  0.00    +0.000 HD
ENDBRANCH  15  22
ENDBRANCH   1  19
TORSDOF 3
ENDMDL
