MODEL 1
REMARK VINA RESULT:    -8.510      0.000      0.000
REMARK INTER + INTRA:         -13.638
REMARK INTER:                 -12.241
REMARK INTRA:                  -1.397
REMARK UNBOUND:                -1.397
REMARK  Name = 
REMARK  9 active torsions:
REMARK  status: ('A' for Active; 'I' for Inactive)
REMARK    1  A    between atoms: C_1  and  N_2
REMARK    2  A    between atoms: C_4  and  C_5
REMARK    3  A    between atoms: N_7  and  C_8
REMARK    4  A    between atoms: C_8  and  C_9
REMARK    5  A    between atoms: C_12  and  N_13
REMARK    6  A    between atoms: N_13  and  C_14
REMARK    7  A    between atoms: C_14  and  C_15
REMARK    8  A    between atoms: C_15  and  C_16
REMARK    9  A    between atoms: C_25  and  O_26
REMARK                            x       y       z     vdW  Elec       q    Type
REMARK                         _______ _______ _______ _____ _____    ______ ____
ROOT
ATOM      1  C   UNL     1      47.100   8.135  13.368  0.00  0.00    +0.000 C 
ENDROOT
BRANCH   1   2
ATOM      2  C   UNL     1      46.273   7.226  12.510  0.00  0.00    +0.000 A 
ATOM      3  C   UNL     1      46.809   6.680  11.339  0.00  0.00    +0.000 A 
ATOM      4  C   UNL     1      46.067   5.774  10.579  0.00  0.00    +0.000 A 
ATOM      5  C   UNL     1      44.787   5.380  10.980  0.00  0.00    +0.000 A 
ATOM      6  C   UNL     1      44.217   6.020  12.087  0.00  0.00    +0.000 A 
ATOM      7  C   UNL     1      44.953   6.922  12.852  0.00  0.00    +0.000 A 
BRANCH   5   8
ATOM      8  N   UNL     1      43.999   4.452  10.296  0.00  0.00    +0.000 N 
ATOM      9  H   UNL     1      43.967   4.676   9.303  0.00  0.00    +0.000 HD
BRANCH   8  10
ATOM     10  C   UNL     1      44.223   3.032  10.540  0.00  0.00    +0.000 C 
BRANCH  10  11
ATOM     11  C   UNL     1      44.283   2.268   9.214  0.00  0.00    +0.000 C 
BRANCH  11  12
ATOM     12  C   UNL     1      45.643   2.438   8.511  0.00  0.00    +0.000 C 
ATOM     13  C   UNL     1      45.547   3.425   7.335  0.00  0.00    +0.000 C 
ATOM     14  C   UNL     1      46.876   3.581   6.611  0.00  0.00    +0.000 C 
ATOM     15  C   UNL     1      47.413   2.235   6.141  0.00  0.00    +0.000 C 
ATOM     16  C   UNL     1      47.525   1.248   7.298  0.00  0.00    +0.000 C 
ATOM     17  C   UNL     1      46.194   1.084   8.034  0.00  0.00    +0.000 C 
ENDBRANCH  11  12
ENDBRANCH  10  11
ENDBRANCH   8  10
ENDBRANCH   5   8
ENDBRANCH   1   2
BRANCH   1  20
ATOM     18  C   UNL     1      48.766   6.869  14.619  0.00  0.00    +0.000 C 
ATOM     19  O   UNL     1      49.543   6.862  13.667  0.00  0.00    +0.000 OA
ATOM     20  N   UNL     1      47.536   7.473  14.571  0.00  0.00    +0.000 N 
ATOM     21  H   UNL     1      46.916   7.448  15.364  0.00  0.00    +0.000 HD
BRANCH  18  25
ATOM     22  C   UNL     1      51.047   5.666  18.907  0.00  0.00    +0.000 C 
ATOM     23  N   UNL     1      50.122   5.674  17.798  0.00  0.00    +0.000 N 
ATOM     24  C   UNL     1      50.171   6.530  16.726  0.00  0.00    +0.000 A 
ATOM     25  C   UNL     1      49.115   6.226  15.878  0.00  0.00    +0.000 A 
ATOM     26  C   UNL     1      48.406   5.132  16.481  0.00  0.00    +0.000 A 
ATOM     27  C   UNL     1      47.286   4.346  16.189  0.00  0.00    +0.000 A 
ATOM     28  N   UNL     1      46.903   3.366  17.026  0.00  0.00    +0.000 NA
ATOM     29  C   UNL     1      47.633   3.178  18.137  0.00  0.00    +0.000 A 
ATOM     30  N   UNL     1      48.725   3.855  18.539  0.00  0.00    +0.000 NA
ATOM     31  C   UNL     1      49.061   4.820  17.665  0.00  0.00    +0.000 A 
BRANCH  27  32
ATOM     32  O   UNL     1      46.507   4.496  15.068  0.00  0.00    +0.000 OA
ATOM     33  H   UNL     1      47.047   4.244  14.292  0.00  0.00    +0.000 HD
ENDBRANCH  27  32
ENDBRANCH  18  25
ENDBRANCH   1  20
TORSDOF 8
ENDMDL
MODEL 2
REMARK VINA RESULT:    -8.063      2.451      3.270
REMARK INTER + INTRA:         -12.995
REMARK INTER:                 -12.019
REMARK INTRA:                  -0.976
REMARK UNBOUND:                -1.397
REMARK  Name = 
REMARK  9 active torsions:
REMARK  status: ('A' for Active; 'I' for Inactive)
REMARK    1  A    between atoms: C_1  and  N_2
REMARK    2  A    between atoms: C_4  and  C_5
REMARK    3  A    between atoms: N_7  and  C_8
REMARK    4  A    between atoms: C_8  and  C_9
REMARK    5  A    between atoms: C_12  and  N_13
REMARK    6  A    between atoms: N_13  and  C_14
REMARK    7  A    between atoms: C_14  and  C_15
REMARK    8  A    between atoms: C_15  and  C_16
REMARK    9  A    between atoms: C_25  and  O_26
REMARK                            x       y       z     vdW  Elec       q    Type
REMARK                         _______ _______ _______ _____ _____    ______ ____
ROOT
ATOM      1  C   UNL     1      47.357   3.789  15.162  0.00  0.00    +0.000 C 
ENDROOT
BRANCH   1   2
ATOM      2  C   UNL     1      46.709   4.348  13.931  0.00  0.00    +0.000 A 
ATOM      3  C   UNL     1      46.934   5.677  13.557  0.00  0.00    +0.000 A 
ATOM      4  C   UNL     1      46.392   6.177  12.371  0.00  0.00    +0.000 A 
ATOM      5  C   UNL     1      45.634   5.360  11.528  0.00  0.00    +0.000 A 
ATOM      6  C   UNL     1      45.317   4.070  11.970  0.00  0.00    +0.000 A 
ATOM      7  C   UNL     1      45.857   3.563  13.149  0.00  0.00    +0.000 A 
BRANCH   5   8
ATOM      8  N   UNL     1      45.092   5.776  10.310  0.00  0.00    +0.000 N 
ATOM      9  H   UNL     1      45.057   6.792  10.264  0.00  0.00    +0.000 HD
BRANCH   8  10
ATOM     10  C   UNL     1      45.599   5.178   9.081  0.00  0.00    +0.000 C 
BRANCH  10  11
ATOM     11  C   UNL     1      44.631   4.107   8.572  0.00  0.00    +0.000 C 
BRANCH  11  12
ATOM     12  C   UNL     1      45.345   3.043   7.716  0.00  0.00    +0.000 C 
ATOM     13  C   UNL     1      45.840   1.869   8.577  0.00  0.00    +0.000 C 
ATOM     14  C   UNL     1      46.573   0.825   7.750  0.00  0.00    +0.000 C 
ATOM     15  C   UNL     1      47.727   1.443   6.971  0.00  0.00    +0.000 C 
ATOM     16  C   UNL     1      47.250   2.603   6.102  0.00  0.00    +0.000 C 
ATOM     17  C   UNL     1      46.510   3.659   6.923  0.00  0.00    +0.000 C 
ENDBRANCH  11  12
ENDBRANCH  10  11
ENDBRANCH   8  10
ENDBRANCH   5   8
ENDBRANCH   1   2
BRANCH   1  20
ATOM     18  C   UNL     1      48.495   4.747  17.093  0.00  0.00    +0.000 C 
ATOM     19  O   UNL     1      49.381   3.898  17.050  0.00  0.00    +0.000 OA
ATOM     20  N   UNL     1      47.452   4.779  16.204  0.00  0.00    +0.000 N 
ATOM     21  H   UNL     1      46.733   5.480  16.274  0.00  0.00    +0.000 HD
BRANCH  18  25
ATOM     22  C   UNL     1      48.520   9.197  19.380  0.00  0.00    +0.000 C 
ATOM     23  N   UNL     1      48.515   7.772  19.147  0.00  0.00    +0.000 N 
ATOM     24  C   UNL     1      48.510   7.166  17.916  0.00  0.00    +0.000 A 
ATOM     25  C   UNL     1      48.503   5.791  18.109  0.00  0.00    +0.000 A 
ATOM     26  C   UNL     1      48.504   5.575  19.528  0.00  0.00    +0.000 A 
ATOM     27  C   UNL     1      48.501   4.483  20.402  0.00  0.00    +0.000 A 
ATOM     28  N   UNL     1      48.505   4.674  21.734  0.00  0.00    +0.000 NA
ATOM     29  C   UNL     1      48.513   5.941  22.178  0.00  0.00    +0.000 A 
ATOM     30  N   UNL     1      48.517   7.076  21.456  0.00  0.00    +0.000 NA
ATOM     31  C   UNL     1      48.512   6.824  20.134  0.00  0.00    +0.000 A 
BRANCH  27  32
ATOM     32  O   UNL     1      48.494   3.170  20.000  0.00  0.00    +0.000 OA
ATOM     33  H   UNL     1      48.660   2.614  20.787  0.00  0.00    +0.000 HD
ENDBRANCH  27  32
ENDBRANCH  18  25
ENDBRANCH   1  20
TORSDOF 8
ENDMDL
MODEL 3
REMARK VINA RESULT:    -7.597      2.494      3.524
REMARK INTER + INTRA:         -12.325
REMARK INTER:                 -11.274
REMARK INTRA:                  -1.051
REMARK UNBOUND:                -1.397
REMARK  Name = 
REMARK  9 active torsions:
REMARK  status: ('A' for Active; 'I' for Inactive)
REMARK    1  A    between atoms: C_1  and  N_2
REMARK    2  A    between atoms: C_4  and  C_5
REMARK    3  A    between atoms: N_7  and  C_8
REMARK    4  A    between atoms: C_8  and  C_9
REMARK    5  A    between atoms: C_12  and  N_13
REMARK    6  A    between atoms: N_13  and  C_14
REMARK    7  A    between atoms: C_14  and  C_15
REMARK    8  A    between atoms: C_15  and  C_16
REMARK    9  A    between atoms: C_25  and  O_26
REMARK                            x       y       z     vdW  Elec       q    Type
REMARK                         _______ _______ _______ _____ _____    ______ ____
ROOT
ATOM      1  C   UNL     1      47.363   3.990  15.284  0.00  0.00    +0.000 C 
ENDROOT
BRANCH   1   2
ATOM      2  C   UNL     1      46.755   4.531  14.025  0.00  0.00    +0.000 A 
ATOM      3  C   UNL     1      47.197   5.747  13.493  0.00  0.00    +0.000 A 
ATOM      4  C   UNL     1      46.685   6.214  12.281  0.00  0.00    +0.000 A 
ATOM      5  C   UNL     1      45.739   5.472  11.567  0.00  0.00    +0.000 A 
ATOM      6  C   UNL     1      45.219   4.319  12.165  0.00  0.00    +0.000 A 
ATOM      7  C   UNL     1      45.728   3.844  13.372  0.00  0.00    +0.000 A 
BRANCH   5   8
ATOM      8  N   UNL     1      45.209   5.854  10.332  0.00  0.00    +0.000 N 
ATOM      9  H   UNL     1      45.190   6.869  10.252  0.00  0.00    +0.000 HD
BRANCH   8  10
ATOM     10  C   UNL     1      45.714   5.208   9.127  0.00  0.00    +0.000 C 
BRANCH  10  11
ATOM     11  C   UNL     1      44.708   4.170   8.621  0.00  0.00    +0.000 C 
BRANCH  11  12
ATOM     12  C   UNL     1      45.381   3.091   7.751  0.00  0.00    +0.000 C 
ATOM     13  C   UNL     1      45.886   1.916   8.605  0.00  0.00    +0.000 C 
ATOM     14  C   UNL     1      46.579   0.855   7.764  0.00  0.00    +0.000 C 
ATOM     15  C   UNL     1      47.717   1.452   6.947  0.00  0.00    +0.000 C 
ATOM     16  C   UNL     1      47.230   2.612   6.083  0.00  0.00    +0.000 C 
ATOM     17  C   UNL     1      46.530   3.685   6.919  0.00  0.00    +0.000 C 
ENDBRANCH  11  12
ENDBRANCH  10  11
ENDBRANCH   8  10
ENDBRANCH   5   8
ENDBRANCH   1   2
BRANCH   1  20
ATOM     18  C   UNL     1      48.343   5.134  17.201  0.00  0.00    +0.000 C 
ATOM     19  O   UNL     1      49.403   4.525  17.080  0.00  0.00    +0.000 OA
ATOM     20  N   UNL     1      47.275   4.941  16.362  0.00  0.00    +0.000 N 
ATOM     21  H   UNL     1      46.414   5.446  16.495  0.00  0.00    +0.000 HD
BRANCH  18  25
ATOM     22  C   UNL     1      47.685   7.287  21.669  0.00  0.00    +0.000 C 
ATOM     23  N   UNL     1      47.860   7.096  20.249  0.00  0.00    +0.000 N 
ATOM     24  C   UNL     1      48.012   5.886  19.620  0.00  0.00    +0.000 A 
ATOM     25  C   UNL     1      48.155   6.117  18.259  0.00  0.00    +0.000 A 
ATOM     26  C   UNL     1      48.083   7.539  18.074  0.00  0.00    +0.000 A 
ATOM     27  C   UNL     1      48.146   8.442  17.008  0.00  0.00    +0.000 A 
ATOM     28  N   UNL     1      48.032   9.765  17.226  0.00  0.00    +0.000 NA
ATOM     29  C   UNL     1      47.858  10.171  18.493  0.00  0.00    +0.000 A 
ATOM     30  N   UNL     1      47.780   9.418  19.605  0.00  0.00    +0.000 NA
ATOM     31  C   UNL     1      47.899   8.108  19.328  0.00  0.00    +0.000 A 
BRANCH  27  32
ATOM     32  O   UNL     1      48.321   8.079  15.695  0.00  0.00    +0.000 OA
ATOM     33  H   UNL     1      47.529   7.578  15.414  0.00  0.00    +0.000 HD
ENDBRANCH  27  32
ENDBRANCH  18  25
ENDBRANCH   1  20
TORSDOF 8
ENDMDL
MODEL 4
REMARK VINA RESULT:    -7.570      2.595      3.259
REMARK INTER + INTRA:         -12.286
REMARK INTER:                 -11.113
REMARK INTRA:                  -1.173
REMARK UNBOUND:                -1.397
REMARK  Name = 
REMARK  9 active torsions:
REMARK  status: ('A' for Active; 'I' for Inactive)
REMARK    1  A    between atoms: C_1  and  N_2
REMARK    2  A    between atoms: C_4  and  C_5
REMARK    3  A    between atoms: N_7  and  C_8
REMARK    4  A    between atoms: C_8  and  C_9
REMARK    5  A    between atoms: C_12  and  N_13
REMARK    6  A    between atoms: N_13  and  C_14
REMARK    7  A    between atoms: C_14  and  C_15
REMARK    8  A    between atoms: C_15  and  C_16
REMARK    9  A    between atoms: C_25  and  O_26
REMARK                            x       y       z     vdW  Elec       q    Type
REMARK                         _______ _______ _______ _____ _____    ______ ____
ROOT
ATOM      1  C   UNL     1      48.518   7.282  13.740  0.00  0.00    +0.000 C 
ENDROOT
BRANCH   1   2
ATOM      2  C   UNL     1      47.510   6.464  12.989  0.00  0.00    +0.000 A 
ATOM      3  C   UNL     1      47.002   5.285  13.545  0.00  0.00    +0.000 A 
ATOM      4  C   UNL     1      46.008   4.563  12.882  0.00  0.00    +0.000 A 
ATOM      5  C   UNL     1      45.489   5.010  11.663  0.00  0.00    +0.000 A 
ATOM      6  C   UNL     1      46.086   6.123  11.061  0.00  0.00    +0.000 A 
ATOM      7  C   UNL     1      47.075   6.851  11.719  0.00  0.00    +0.000 A 
BRANCH   5   8
ATOM      8  N   UNL     1      44.470   4.365  10.959  0.00  0.00    +0.000 N 
ATOM      9  H   UNL     1      44.387   4.751  10.020  0.00  0.00    +0.000 HD
BRANCH   8  10
ATOM     10  C   UNL     1      44.430   2.908  10.969  0.00  0.00    +0.000 C 
BRANCH  10  11
ATOM     11  C   UNL     1      44.302   2.371   9.540  0.00  0.00    +0.000 C 
BRANCH  11  12
ATOM     12  C   UNL     1      45.627   2.480   8.761  0.00  0.00    +0.000 C 
ATOM     13  C   UNL     1      45.555   3.572   7.681  0.00  0.00    +0.000 C 
ATOM     14  C   UNL     1      46.846   3.672   6.883  0.00  0.00    +0.000 C 
ATOM     15  C   UNL     1      47.222   2.331   6.266  0.00  0.00    +0.000 C 
ATOM     16  C   UNL     1      47.309   1.238   7.327  0.00  0.00    +0.000 C 
ATOM     17  C   UNL     1      46.016   1.129   8.137  0.00  0.00    +0.000 C 
ENDBRANCH  11  12
ENDBRANCH  10  11
ENDBRANCH   8  10
ENDBRANCH   5   8
ENDBRANCH   1   2
BRANCH   1  20
ATOM     18  C   UNL     1      48.949   6.975  16.119  0.00  0.00    +0.000 C 
ATOM     19  O   UNL     1      50.013   6.402  15.900  0.00  0.00    +0.000 OA
ATOM     20  N   UNL     1      48.139   7.448  15.119  0.00  0.00    +0.000 N 
ATOM     21  H   UNL     1      47.264   7.900  15.332  0.00  0.00    +0.000 HD
BRANCH  18  25
ATOM     22  C   UNL     1      47.600   6.267  20.886  0.00  0.00    +0.000 C 
ATOM     23  N   UNL     1      47.870   6.893  19.613  0.00  0.00    +0.000 N 
ATOM     24  C   UNL     1      48.349   6.254  18.496  0.00  0.00    +0.000 A 
ATOM     25  C   UNL     1      48.478   7.192  17.480  0.00  0.00    +0.000 A 
ATOM     26  C   UNL     1      48.051   8.449  18.026  0.00  0.00    +0.000 A 
ATOM     27  C   UNL     1      47.920   9.770  17.585  0.00  0.00    +0.000 A 
ATOM     28  N   UNL     1      47.464  10.726  18.414  0.00  0.00    +0.000 NA
ATOM     29  C   UNL     1      47.146  10.359  19.666  0.00  0.00    +0.000 A 
ATOM     30  N   UNL     1      47.222   9.135  20.219  0.00  0.00    +0.000 NA
ATOM     31  C   UNL     1      47.683   8.222  19.345  0.00  0.00    +0.000 A 
BRANCH  27  32
ATOM     32  O   UNL     1      48.230  10.197  16.316  0.00  0.00    +0.000 OA
ATOM     33  H   UNL     1      47.451  10.669  15.960  0.00  0.00    +0.000 HD
ENDBRANCH  27  32
ENDBRANCH  18  25
ENDBRANCH   1  20
TORSDOF 8
ENDMDL
MODEL 5
REMARK VINA RESULT:    -7.316      3.037      5.543
REMARK INTER + INTRA:         -11.921
REMARK INTER:                 -11.184
REMARK INTRA:                  -0.737
REMARK UNBOUND:                -1.397
REMARK  Name = 
REMARK  9 active torsions:
REMARK  status: ('A' for Active; 'I' for Inactive)
REMARK    1  A    between atoms: C_1  and  N_2
REMARK    2  A    between atoms: C_4  and  C_5
REMARK    3  A    between atoms: N_7  and  C_8
REMARK    4  A    between atoms: C_8  and  C_9
REMARK    5  A    between atoms: C_12  and  N_13
REMARK    6  A    between atoms: N_13  and  C_14
REMARK    7  A    between atoms: C_14  and  C_15
REMARK    8  A    between atoms: C_15  and  C_16
REMARK    9  A    between atoms: C_25  and  O_26
REMARK                            x       y       z     vdW  Elec       q    Type
REMARK                         _______ _______ _______ _____ _____    ______ ____
ROOT
ATOM      1  C   UNL     1      47.403   6.316  14.092  0.00  0.00    +0.000 C 
ENDROOT
BRANCH   1   2
ATOM      2  C   UNL     1      46.362   5.439  13.463  0.00  0.00    +0.000 A 
ATOM      3  C   UNL     1      45.141   5.980  13.048  0.00  0.00    +0.000 A 
ATOM      4  C   UNL     1      44.201   5.181  12.394  0.00  0.00    +0.000 A 
ATOM      5  C   UNL     1      44.467   3.835  12.124  0.00  0.00    +0.000 A 
ATOM      6  C   UNL     1      45.640   3.277  12.647  0.00  0.00    +0.000 A 
ATOM      7  C   UNL     1      46.583   4.069  13.297  0.00  0.00    +0.000 A 
BRANCH   5   8
ATOM      8  N   UNL     1      43.596   2.982  11.442  0.00  0.00    +0.000 N 
ATOM      9  H   UNL     1      42.680   3.417  11.341  0.00  0.00    +0.000 HD
BRANCH   8  10
ATOM     10  C   UNL     1      44.056   2.355  10.209  0.00  0.00    +0.000 C 
BRANCH  10  11
ATOM     11  C   UNL     1      44.563   3.419   9.231  0.00  0.00    +0.000 C 
BRANCH  11  12
ATOM     12  C   UNL     1      45.280   2.793   8.019  0.00  0.00    +0.000 C 
ATOM     13  C   UNL     1      46.111   1.566   8.430  0.00  0.00    +0.000 C 
ATOM     14  C   UNL     1      46.848   0.955   7.249  0.00  0.00    +0.000 C 
ATOM     15  C   UNL     1      47.724   1.985   6.548  0.00  0.00    +0.000 C 
ATOM     16  C   UNL     1      46.912   3.205   6.122  0.00  0.00    +0.000 C 
ATOM     17  C   UNL     1      46.165   3.827   7.303  0.00  0.00    +0.000 C 
ENDBRANCH  11  12
ENDBRANCH  10  11
ENDBRANCH   8  10
ENDBRANCH   5   8
ENDBRANCH   1   2
BRANCH   1  20
ATOM     18  C   UNL     1      47.943   8.023  12.438  0.00  0.00    +0.000 C 
ATOM     19  O   UNL     1      48.591   7.228  11.762  0.00  0.00    +0.000 OA
ATOM     20  N   UNL     1      47.317   7.668  13.605  0.00  0.00    +0.000 N 
ATOM     21  H   UNL     1      46.805   8.347  14.145  0.00  0.00    +0.000 HD
BRANCH  18  25
ATOM     22  C   UNL     1      48.912  12.694  10.929  0.00  0.00    +0.000 C 
ATOM     23  N   UNL     1      48.212  11.506  11.357  0.00  0.00    +0.000 N 
ATOM     24  C   UNL     1      48.798  10.304  11.668  0.00  0.00    +0.000 A 
ATOM     25  C   UNL     1      47.797   9.413  12.030  0.00  0.00    +0.000 A 
ATOM     26  C   UNL     1      46.556  10.128  11.931  0.00  0.00    +0.000 A 
ATOM     27  C   UNL     1      45.198   9.864  12.139  0.00  0.00    +0.000 A 
ATOM     28  N   UNL     1      44.277  10.823  11.936  0.00  0.00    +0.000 NA
ATOM     29  C   UNL     1      44.714  12.026  11.531  0.00  0.00    +0.000 A 
ATOM     30  N   UNL     1      45.980  12.415  11.293  0.00  0.00    +0.000 NA
ATOM     31  C   UNL     1      46.855  11.417  11.513  0.00  0.00    +0.000 A 
BRANCH  27  32
ATOM     32  O   UNL     1      44.699   8.654  12.554  0.00  0.00    +0.000 OA
ATOM     33  H   UNL     1      44.470   8.732  13.502  0.00  0.00    +0.000 HD
ENDBRANCH  27  32
ENDBRANCH  18  25
ENDBRANCH   1  20
TORSDOF 8
ENDMDL
MODEL 6
REMARK VINA RESULT:    -7.192      2.250      8.004
REMARK INTER + INTRA:         -11.743
REMARK INTER:                 -10.092
REMARK INTRA:                  -1.651
REMARK UNBOUND:                -1.397
REMARK  Name = 
REMARK  9 active torsions:
REMARK  status: ('A' for Active; 'I' for Inactive)
REMARK    1  A    between atoms: C_1  and  N_2
REMARK    2  A    between atoms: C_4  and  C_5
REMARK    3  A    between atoms: N_7  and  C_8
REMARK    4  A    between atoms: C_8  and  C_9
REMARK    5  A    between atoms: C_12  and  N_13
REMARK    6  A    between atoms: N_13  and  C_14
REMARK    7  A    between atoms: C_14  and  C_15
REMARK    8  A    between atoms: C_15  and  C_16
REMARK    9  A    between atoms: C_25  and  O_26
REMARK                            x       y       z     vdW  Elec       q    Type
REMARK                         _______ _______ _______ _____ _____    ______ ____
ROOT
ATOM      1  C   UNL     1      48.420   8.095  12.022  0.00  0.00    +0.000 C 
ENDROOT
BRANCH   1   2
ATOM      2  C   UNL     1      48.478   7.960  13.514  0.00  0.00    +0.000 A 
ATOM      3  C   UNL     1      48.709   6.712  14.102  0.00  0.00    +0.000 A 
ATOM      4  C   UNL     1      48.839   6.597  15.487  0.00  0.00    +0.000 A 
ATOM      5  C   UNL     1      48.760   7.724  16.311  0.00  0.00    +0.000 A 
ATOM      6  C   UNL     1      48.412   8.946  15.724  0.00  0.00    +0.000 A 
ATOM      7  C   UNL     1      48.285   9.069  14.342  0.00  0.00    +0.000 A 
BRANCH   5   8
ATOM      8  N   UNL     1      48.917   7.696  17.698  0.00  0.00    +0.000 N 
ATOM      9  H   UNL     1      48.009   7.668  18.158  0.00  0.00    +0.000 HD
BRANCH   8  10
ATOM     10  C   UNL     1      49.864   6.749  18.274  0.00  0.00    +0.000 C 
BRANCH  10  11
ATOM     11  C   UNL     1      49.163   5.856  19.302  0.00  0.00    +0.000 C 
BRANCH  11  12
ATOM     12  C   UNL     1      48.946   4.426  18.772  0.00  0.00    +0.000 C 
ATOM     13  C   UNL     1      50.098   3.988  17.852  0.00  0.00    +0.000 C 
ATOM     14  C   UNL     1      49.883   2.588  17.297  0.00  0.00    +0.000 C 
ATOM     15  C   UNL     1      48.548   2.477  16.574  0.00  0.00    +0.000 C 
ATOM     16  C   UNL     1      47.392   2.897  17.477  0.00  0.00    +0.000 C 
ATOM     17  C   UNL     1      47.598   4.303  18.043  0.00  0.00    +0.000 C 
ENDBRANCH  11  12
ENDBRANCH  10  11
ENDBRANCH   8  10
ENDBRANCH   5   8
ENDBRANCH   1   2
BRANCH   1  20
ATOM     18  C   UNL     1      46.349   6.961  11.412  0.00  0.00    +0.000 C 
ATOM     19  O   UNL     1      45.662   7.854  11.901  0.00  0.00    +0.000 OA
ATOM     20  N   UNL     1      47.720   6.989  11.420  0.00  0.00    +0.000 N 
ATOM     21  H   UNL     1      48.256   6.234  11.023  0.00  0.00    +0.000 HD
BRANCH  18  25
ATOM     22  C   UNL     1      44.923   3.537   8.054  0.00  0.00    +0.000 C 
ATOM     23  N   UNL     1      45.089   4.261   9.292  0.00  0.00    +0.000 N 
ATOM     24  C   UNL     1      45.815   5.415   9.449  0.00  0.00    +0.000 A 
ATOM     25  C   UNL     1      45.736   5.801  10.780  0.00  0.00    +0.000 A 
ATOM     26  C   UNL     1      44.918   4.825  11.443  0.00  0.00    +0.000 A 
ATOM     27  C   UNL     1      44.435   4.594  12.735  0.00  0.00    +0.000 A 
ATOM     28  N   UNL     1      43.658   3.527  12.994  0.00  0.00    +0.000 NA
ATOM     29  C   UNL     1      43.371   2.707  11.970  0.00  0.00    +0.000 A 
ATOM     30  N   UNL     1      43.765   2.808  10.688  0.00  0.00    +0.000 NA
ATOM     31  C   UNL     1      44.537   3.891  10.488  0.00  0.00    +0.000 A 
BRANCH  27  32
ATOM     32  O   UNL     1      44.698   5.401  13.815  0.00  0.00    +0.000 OA
ATOM     33  H   UNL     1      43.904   5.406  14.386  0.00  0.00    +0.000 HD
ENDBRANCH  27  32
ENDBRANCH  18  25
ENDBRANCH   1  20
TORSDOF 8
ENDMDL
MODEL 7
REMARK VINA RESULT:    -7.062      2.315      3.808
REMARK INTER + INTRA:         -11.555
REMARK INTER:                 -10.201
REMARK INTRA:                  -1.354
REMARK UNBOUND:                -1.397
REMARK  Name = 
REMARK  9 active torsions:
REMARK  status: ('A' for Active; 'I' for Inactive)
REMARK    1  A    between atoms: C_1  and  N_2
REMARK    2  A    between atoms: C_4  and  C_5
REMARK    3  A    between atoms: N_7  and  C_8
REMARK    4  A    between atoms: C_8  and  C_9
REMARK    5  A    between atoms: C_12  and  N_13
REMARK    6  A    between atoms: N_13  and  C_14
REMARK    7  A    between atoms: C_14  and  C_15
REMARK    8  A    between atoms: C_15  and  C_16
REMARK    9  A    between atoms: C_25  and  O_26
REMARK                            x       y       z     vdW  Elec       q    Type
REMARK                         _______ _______ _______ _____ _____    ______ ____
ROOT
ATOM      1  C   UNL     1      47.185   4.823  14.882  0.00  0.00    +0.000 C 
ENDROOT
BRANCH   1   2
ATOM      2  C   UNL     1      46.371   4.802  13.624  0.00  0.00    +0.000 A 
ATOM      3  C   UNL     1      45.926   3.587  13.091  0.00  0.00    +0.000 A 
ATOM      4  C   UNL     1      45.105   3.571  11.962  0.00  0.00    +0.000 A 
ATOM      5  C   UNL     1      44.696   4.761  11.354  0.00  0.00    +0.000 A 
ATOM      6  C   UNL     1      45.242   5.962  11.823  0.00  0.00    +0.000 A 
ATOM      7  C   UNL     1      46.058   5.986  12.952  0.00  0.00    +0.000 A 
BRANCH   5   8
ATOM      8  N   UNL     1      43.847   4.828  10.247  0.00  0.00    +0.000 N 
ATOM      9  H   UNL     1      43.655   5.798  10.004  0.00  0.00    +0.000 HD
BRANCH   8  10
ATOM     10  C   UNL     1      44.157   4.011   9.081  0.00  0.00    +0.000 C 
BRANCH  10  11
ATOM     11  C   UNL     1      45.415   4.537   8.384  0.00  0.00    +0.000 C 
BRANCH  11  12
ATOM     12  C   UNL     1      46.386   3.401   8.009  0.00  0.00    +0.000 C 
ATOM     13  C   UNL     1      46.795   3.477   6.529  0.00  0.00    +0.000 C 
ATOM     14  C   UNL     1      47.730   2.344   6.136  0.00  0.00    +0.000 C 
ATOM     15  C   UNL     1      47.120   0.986   6.454  0.00  0.00    +0.000 C 
ATOM     16  C   UNL     1      46.719   0.888   7.923  0.00  0.00    +0.000 C 
ATOM     17  C   UNL     1      45.779   2.025   8.330  0.00  0.00    +0.000 C 
ENDBRANCH  11  12
ENDBRANCH  10  11
ENDBRANCH   8  10
ENDBRANCH   5   8
ENDBRANCH   1   2
BRANCH   1  20
ATOM     18  C   UNL     1      48.899   6.192  15.945  0.00  0.00    +0.000 C 
ATOM     19  O   UNL     1      49.282   5.255  16.640  0.00  0.00    +0.000 OA
ATOM     20  N   UNL     1      47.871   6.079  15.045  0.00  0.00    +0.000 N 
ATOM     21  H   UNL     1      47.570   6.871  14.500  0.00  0.00    +0.000 HD
BRANCH  18  25
ATOM     22  C   UNL     1      50.680  10.535  17.678  0.00  0.00    +0.000 C 
ATOM     23  N   UNL     1      50.329   9.449  16.793  0.00  0.00    +0.000 N 
ATOM     24  C   UNL     1      49.680   8.298  17.163  0.00  0.00    +0.000 A 
ATOM     25  C   UNL     1      49.528   7.503  16.036  0.00  0.00    +0.000 A 
ATOM     26  C   UNL     1      50.118   8.223  14.943  0.00  0.00    +0.000 A 
ATOM     27  C   UNL     1      50.315   8.031  13.571  0.00  0.00    +0.000 A 
ATOM     28  N   UNL     1      50.935   8.968  12.832  0.00  0.00    +0.000 NA
ATOM     29  C   UNL     1      51.350  10.079  13.462  0.00  0.00    +0.000 A 
ATOM     30  N   UNL     1      51.227  10.392  14.764  0.00  0.00    +0.000 NA
ATOM     31  C   UNL     1      50.601   9.421  15.452  0.00  0.00    +0.000 A 
BRANCH  27  32
ATOM     32  O   UNL     1      49.909   6.915  12.880  0.00  0.00    +0.000 OA
ATOM     33  H   UNL     1      49.000   6.697  13.170  0.00  0.00    +0.000 HD
ENDBRANCH  27  32
ENDBRANCH  18  25
ENDBRANCH   1  20
TORSDOF 8
ENDMDL
MODEL 8
REMARK VINA RESULT:    -6.999      3.233      9.142
REMARK INTER + INTRA:         -11.464
REMARK INTER:                  -9.448
REMARK INTRA:                  -2.016
REMARK UNBOUND:                -1.397
REMARK  Name = 
REMARK  9 active torsions:
REMARK  status: ('A' for Active; 'I' for Inactive)
REMARK    1  A    between atoms: C_1  and  N_2
REMARK    2  A    between atoms: C_4  and  C_5
REMARK    3  A    between atoms: N_7  and  C_8
REMARK    4  A    between atoms: C_8  and  C_9
REMARK    5  A    between atoms: C_12  and  N_13
REMARK    6  A    between atoms: N_13  and  C_14
REMARK    7  A    between atoms: C_14  and  C_15
REMARK    8  A    between atoms: C_15  and  C_16
REMARK    9  A    between atoms: C_25  and  O_26
REMARK                            x       y       z     vdW  Elec       q    Type
REMARK                         _______ _______ _______ _____ _____    ______ ____
ROOT
ATOM      1  C   UNL     1      47.716   3.733  16.605  0.00  0.00    +0.000 C 
ENDROOT
BRANCH   1   2
ATOM      2  C   UNL     1      47.913   4.383  17.941  0.00  0.00    +0.000 A 
ATOM      3  C   UNL     1      48.991   4.014  18.754  0.00  0.00    +0.000 A 
ATOM      4  C   UNL     1      49.218   4.670  19.965  0.00  0.00    +0.000 A 
ATOM      5  C   UNL     1      48.391   5.718  20.380  0.00  0.00    +0.000 A 
ATOM      6  C   UNL     1      47.250   5.998  19.618  0.00  0.00    +0.000 A 
ATOM      7  C   UNL     1      47.019   5.350  18.407  0.00  0.00    +0.000 A 
BRANCH   5   8
ATOM      8  N   UNL     1      48.576   6.447  21.557  0.00  0.00    +0.000 N 
ATOM      9  H   UNL     1      49.316   6.032  22.120  0.00  0.00    +0.000 HD
BRANCH   8  10
ATOM     10  C   UNL     1      48.689   7.897  21.468  0.00  0.00    +0.000 C 
BRANCH  10  11
ATOM     11  C   UNL     1      49.965   8.285  20.714  0.00  0.00    +0.000 C 
BRANCH  11  12
ATOM     12  C   UNL     1      49.655   8.964  19.366  0.00  0.00    +0.000 C 
ATOM     13  C   UNL     1      48.183   9.403  19.284  0.00  0.00    +0.000 C 
ATOM     14  C   UNL     1      47.854  10.049  17.948  0.00  0.00    +0.000 C 
ATOM     15  C   UNL     1      48.205   9.130  16.785  0.00  0.00    +0.000 C 
ATOM     16  C   UNL     1      49.666   8.695  16.845  0.00  0.00    +0.000 C 
ATOM     17  C   UNL     1      50.009   8.044  18.186  0.00  0.00    +0.000 C 
ENDBRANCH  11  12
ENDBRANCH  10  11
ENDBRANCH   8  10
ENDBRANCH   5   8
ENDBRANCH   1   2
BRANCH   1  20
ATOM     18  C   UNL     1      46.891   4.255  14.371  0.00  0.00    +0.000 C 
ATOM     19  O   UNL     1      47.312   3.193  13.917  0.00  0.00    +0.000 OA
ATOM     20  N   UNL     1      47.040   4.613  15.686  0.00  0.00    +0.000 N 
ATOM     21  H   UNL     1      46.697   5.497  16.024  0.00  0.00    +0.000 HD
BRANCH  18  25
ATOM     22  C   UNL     1      45.459   8.471  12.089  0.00  0.00    +0.000 C 
ATOM     23  N   UNL     1      45.540   7.087  12.494  0.00  0.00    +0.000 N 
ATOM     24  C   UNL     1      46.428   6.575  13.407  0.00  0.00    +0.000 A 
ATOM     25  C   UNL     1      46.194   5.211  13.522  0.00  0.00    +0.000 A 
ATOM     26  C   UNL     1      45.111   4.904  12.632  0.00  0.00    +0.000 A 
ATOM     27  C   UNL     1      44.381   3.772  12.253  0.00  0.00    +0.000 A 
ATOM     28  N   UNL     1      43.390   3.870  11.349  0.00  0.00    +0.000 NA
ATOM     29  C   UNL     1      43.137   5.084  10.835  0.00  0.00    +0.000 A 
ATOM     30  N   UNL     1      43.756   6.248  11.107  0.00  0.00    +0.000 NA
ATOM     31  C   UNL     1      44.735   6.090  12.016  0.00  0.00    +0.000 A 
BRANCH  27  32
ATOM     32  O   UNL     1      44.598   2.510  12.748  0.00  0.00    +0.000 OA
ATOM     33  H   UNL     1      44.068   1.883  12.216  0.00  0.00    +0.000 HD
ENDBRANCH  27  32
ENDBRANCH  18  25
ENDBRANCH   1  20
TORSDOF 8
ENDMDL
MODEL 9
REMARK VINA RESULT:    -6.997      3.453      5.542
REMARK INTER + INTRA:         -11.463
REMARK INTER:                 -10.367
REMARK INTRA:                  -1.096
REMARK UNBOUND:                -1.397
REMARK  Name = 
REMARK  9 active torsions:
REMARK  status: ('A' for Active; 'I' for Inactive)
REMARK    1  A    between atoms: C_1  and  N_2
REMARK    2  A    between atoms: C_4  and  C_5
REMARK    3  A    between atoms: N_7  and  C_8
REMARK    4  A    between atoms: C_8  and  C_9
REMARK    5  A    between atoms: C_12  and  N_13
REMARK    6  A    between atoms: N_13  and  C_14
REMARK    7  A    between atoms: C_14  and  C_15
REMARK    8  A    between atoms: C_15  and  C_16
REMARK    9  A    between atoms: C_25  and  O_26
REMARK                            x       y       z     vdW  Elec       q    Type
REMARK                         _______ _______ _______ _____ _____    ______ ____
ROOT
ATOM      1  C   UNL     1      48.196   6.499  13.743  0.00  0.00    +0.000 C 
ENDROOT
BRANCH   1   2
ATOM      2  C   UNL     1      46.962   5.976  13.070  0.00  0.00    +0.000 A 
ATOM      3  C   UNL     1      46.315   6.738  12.091  0.00  0.00    +0.000 A 
ATOM      4  C   UNL     1      45.211   6.222  11.411  0.00  0.00    +0.000 A 
ATOM      5  C   UNL     1      44.743   4.931  11.678  0.00  0.00    +0.000 A 
ATOM      6  C   UNL     1      45.323   4.226  12.738  0.00  0.00    +0.000 A 
ATOM      7  C   UNL     1      46.428   4.734  13.419  0.00  0.00    +0.000 A 
BRANCH   5   8
ATOM      8  N   UNL     1      43.670   4.331  11.014  0.00  0.00    +0.000 N 
ATOM      9  H   UNL     1      42.985   5.033  10.739  0.00  0.00    +0.000 HD
BRANCH   8  10
ATOM     10  C   UNL     1      43.954   3.380   9.947  0.00  0.00    +0.000 C 
BRANCH  10  11
ATOM     11  C   UNL     1      44.684   4.078   8.795  0.00  0.00    +0.000 C 
BRANCH  11  12
ATOM     12  C   UNL     1      45.369   3.071   7.852  0.00  0.00    +0.000 C 
ATOM     13  C   UNL     1      45.891   1.846   8.622  0.00  0.00    +0.000 C 
ATOM     14  C   UNL     1      46.596   0.856   7.708  0.00  0.00    +0.000 C 
ATOM     15  C   UNL     1      47.725   1.523   6.933  0.00  0.00    +0.000 C 
ATOM     16  C   UNL     1      47.221   2.734   6.153  0.00  0.00    +0.000 C 
ATOM     17  C   UNL     1      46.508   3.736   7.062  0.00  0.00    +0.000 C 
ENDBRANCH  11  12
ENDBRANCH  10  11
ENDBRANCH   8  10
ENDBRANCH   5   8
ENDBRANCH   1   2
BRANCH   1  20
ATOM     18  C   UNL     1      50.078   7.988  13.310  0.00  0.00    +0.000 C 
ATOM     19  O   UNL     1      50.430   7.959  14.486  0.00  0.00    +0.000 OA
ATOM     20  N   UNL     1      48.987   7.299  12.843  0.00  0.00    +0.000 N 
ATOM     21  H   UNL     1      48.715   7.355  11.875  0.00  0.00    +0.000 HD
BRANCH  18  25
ATOM     22  C   UNL     1      53.713   9.820  10.400  0.00  0.00    +0.000 C 
ATOM     23  N   UNL     1      52.425   9.599  11.015  0.00  0.00    +0.000 N 
ATOM     24  C   UNL     1      52.158   8.678  11.997  0.00  0.00    +0.000 A 
ATOM     25  C   UNL     1      50.812   8.768  12.323  0.00  0.00    +0.000 A 
ATOM     26  C   UNL     1      50.256   9.797  11.491  0.00  0.00    +0.000 A 
ATOM     27  C   UNL     1      49.007  10.396  11.291  0.00  0.00    +0.000 A 
ATOM     28  N   UNL     1      48.857  11.377  10.383  0.00  0.00    +0.000 NA
ATOM     29  C   UNL     1      49.943  11.748   9.687  0.00  0.00    +0.000 A 
ATOM     30  N   UNL     1      51.195  11.261   9.775  0.00  0.00    +0.000 NA
ATOM     31  C   UNL     1      51.285  10.286  10.697  0.00  0.00    +0.000 A 
BRANCH  27  32
ATOM     32  O   UNL     1      47.867  10.055  11.977  0.00  0.00    +0.000 OA
ATOM     33  H   UNL     1      47.137  10.614  11.643  0.00  0.00    +0.000 HD
ENDBRANCH  27  32
ENDBRANCH  18  25
ENDBRANCH   1  20
TORSDOF 8
ENDMDL
