MODEL 1
REMARK VINA RESULT:    -7.969      0.000      0.000
REMARK INTER + INTRA:         -10.986
REMARK INTER:                 -10.531
REMARK INTRA:                  -0.455
REMARK UNBOUND:                -0.455
REMARK  Name = 
REMARK  6 active torsions:
REMARK  status: ('A' for Active; 'I' for Inactive)
REMARK    1  A    between atoms: N_1  and  C_2
REMARK    2  A    between atoms: C_2  and  C_3
REMARK    3  A    between atoms: C_7  and  C_8
REMARK    4  A    between atoms: C_8  and  C_9
REMARK    5  A    between atoms: C_9  and  N_10
REMARK    6  A    between atoms: C_14  and  C_15
REMARK                            x       y       z     vdW  Elec       q    Type
REMARK                         _______ _______ _______ _____ _____    ______ ____
ROOT
ATOM      1  N   UNL     1      43.955   4.932  10.076  0.00  0.00    +0.000 N 
ATOM      2  C   UNL     1      44.766   4.058   9.322  0.00  0.00    +0.000 A 
ATOM      3  C   UNL     1      45.590   4.588   8.334  0.00  0.00    +0.000 A 
ATOM      4  C   UNL     1      46.410   3.734   7.589  0.00  0.00    +0.000 A 
ATOM      5  C   UNL     1      46.392   2.360   7.840  0.00  0.00    +0.000 A 
ATOM      6  C   UNL     1      45.523   1.918   8.820  0.00  0.00    +0.000 A 
ATOM      7  N   UNL     1      44.718   2.729   9.550  0.00  0.00    +0.000 NA
ATOM      8  H   UNL     1      44.551   5.646  10.484  0.00  0.00    +0.000 HD
ENDROOT
BRANCH   5   9
ATOM      9  C   UNL     1      47.285   1.461   7.073  0.00  0.00    +0.000 C 
ATOM     10  N   UNL     1      48.423   1.973   6.510  0.00  0.00    +0.000 N 
ATOM     11  O   UNL     1      47.016   0.274   6.930  0.00  0.00    +0.000 OA
ATOM     12  H   UNL     1      48.734   2.930   6.555  0.00  0.00    +0.000 HD
ATOM     13  H   UNL     1      48.994   1.325   5.981  0.00  0.00    +0.000 HD
ENDBRANCH   5   9
BRANCH   1  14
ATOM     14  C   UNL     1      43.161   4.226  11.090  0.00  0.00    +0.000 C 
BRANCH  14  15
ATOM     15  C   UNL     1      43.258   4.913  12.456  0.00  0.00    +0.000 C 
BRANCH  15  20
ATOM     16  C   UNL     1      46.367   7.045  13.096  0.00  0.00    +0.000 A 
ATOM     17  C   UNL     1      47.279   6.063  13.505  0.00  0.00    +0.000 A 
ATOM     18  C   UNL     1      46.915   4.717  13.520  0.00  0.00    +0.000 A 
ATOM     19  C   UNL     1      45.626   4.337  13.147  0.00  0.00    +0.000 A 
ATOM     20  C   UNL     1      44.692   5.300  12.745  0.00  0.00    +0.000 A 
ATOM     21  C   UNL     1      45.077   6.651  12.712  0.00  0.00    +0.000 A 
BRANCH  16  22
ATOM     22  C   UNL     1      46.741   8.507  13.136  0.00  0.00    +0.000 C 
BRANCH  22  23
ATOM     23  N   UNL     1      46.957   8.982  14.498  0.00  0.00    +0.000 NA
ATOM     24  H   UNL     1      47.866   8.657  14.820  0.00  0.00    +0.000 HD
ATOM     25  H   UNL     1      46.264   8.548  15.106  0.00  0.00    +0.000 HD
ENDBRANCH  22  23
ENDBRANCH  16  22
ENDBRANCH  15  20
ENDBRANCH  14  15
ENDBRANCH   1  14
TORSDOF 6
ENDMDL
MODEL 2
REMARK VINA RESULT:    -7.965      1.765      2.364
REMARK INTER + INTRA:         -10.980
REMARK INTER:                 -10.352
REMARK INTRA:                  -0.628
REMARK UNBOUND:                -0.455
REMARK  Name = 
REMARK  6 active torsions:
REMARK  status: ('A' for Active; 'I' for Inactive)
REMARK    1  A    between atoms: N_1  and  C_2
REMARK    2  A    between atoms: C_2  and  C_3
REMARK    3  A    between atoms: C_7  and  C_8
REMARK    4  A    between atoms: C_8  and  C_9
REMARK    5  A    between atoms: C_9  and  N_10
REMARK    6  A    between atoms: C_14  and  C_15
REMARK                            x       y       z     vdW  Elec       q    Type
REMARK                         _______ _______ _______ _____ _____    ______ ____
ROOT
ATOM      1  N   UNL     1      43.637   3.705  10.553  0.00  0.00    +0.000 N 
ATOM      2  C   UNL     1      44.578   3.385   9.553  0.00  0.00    +0.000 A 
ATOM      3  C   UNL     1      44.925   2.051   9.355  0.00  0.00    +0.000 A 
ATOM      4  C   UNL     1      45.847   1.719   8.357  0.00  0.00    +0.000 A 
ATOM      5  C   UNL     1      46.414   2.727   7.573  0.00  0.00    +0.000 A 
ATOM      6  C   UNL     1      46.034   4.025   7.857  0.00  0.00    +0.000 A 
ATOM      7  N   UNL     1      45.145   4.367   8.821  0.00  0.00    +0.000 NA
ATOM      8  H   UNL     1      42.795   3.161  10.382  0.00  0.00    +0.000 HD
ENDROOT
BRANCH   5   9
ATOM      9  C   UNL     1      47.365   2.371   6.493  0.00  0.00    +0.000 C 
ATOM     10  N   UNL     1      47.395   3.130   5.355  0.00  0.00    +0.000 N 
ATOM     11  O   UNL     1      48.112   1.406   6.602  0.00  0.00    +0.000 OA
ATOM     12  H   UNL     1      46.821   3.933   5.156  0.00  0.00    +0.000 HD
ATOM     13  H   UNL     1      48.048   2.839   4.637  0.00  0.00    +0.000 HD
ENDBRANCH   5   9
BRANCH   1  14
ATOM     14  C   UNL     1      43.362   5.145  10.625  0.00  0.00    +0.000 C 
BRANCH  14  15
ATOM     15  C   UNL     1      43.445   5.661  12.066  0.00  0.00    +0.000 C 
BRANCH  15  20
ATOM     16  C   UNL     1      46.733   5.182  13.956  0.00  0.00    +0.000 A 
ATOM     17  C   UNL     1      47.615   5.900  13.136  0.00  0.00    +0.000 A 
ATOM     18  C   UNL     1      47.145   6.581  12.014  0.00  0.00    +0.000 A 
ATOM     19  C   UNL     1      45.790   6.536  11.684  0.00  0.00    +0.000 A 
ATOM     20  C   UNL     1      44.891   5.817  12.481  0.00  0.00    +0.000 A 
ATOM     21  C   UNL     1      45.371   5.153  13.621  0.00  0.00    +0.000 A 
BRANCH  16  22
ATOM     22  C   UNL     1      47.249   4.395  15.137  0.00  0.00    +0.000 C 
BRANCH  22  23
ATOM     23  N   UNL     1      47.630   3.037  14.767  0.00  0.00    +0.000 NA
ATOM     24  H   UNL     1      48.089   2.596  15.561  0.00  0.00    +0.000 HD
ATOM     25  H   UNL     1      48.325   3.087  14.024  0.00  0.00    +0.000 HD
ENDBRANCH  22  23
ENDBRANCH  16  22
ENDBRANCH  15  20
ENDBRANCH  14  15
ENDBRANCH   1  14
TORSDOF 6
ENDMDL
MODEL 3
REMARK VINA RESULT:    -7.436      0.944      1.325
REMARK INTER + INTRA:         -10.282
REMARK INTER:                  -9.892
REMARK INTRA:                  -0.390
REMARK UNBOUND:                -0.455
REMARK  Name = 
REMARK  6 active torsions:
REMARK  status: ('A' for Active; 'I' for Inactive)
REMARK    1  A    between atoms: N_1  and  C_2
REMARK    2  A    between atoms: C_2  and  C_3
REMARK    3  A    between atoms: C_7  and  C_8
REMARK    4  A    between atoms: C_8  and  C_9
REMARK    5  A    between atoms: C_9  and  N_10
REMARK    6  A    between atoms: C_14  and  C_15
REMARK                            x       y       z     vdW  Elec       q    Type
REMARK                         _______ _______ _______ _____ _____    ______ ____
ROOT
ATOM      1  N   UNL     1      43.614   3.677  10.602  0.00  0.00    +0.000 N 
ATOM      2  C   UNL     1      44.560   3.376   9.601  0.00  0.00    +0.000 A 
ATOM      3  C   UNL     1      44.874   2.043   9.349  0.00  0.00    +0.000 A 
ATOM      4  C   UNL     1      45.801   1.730   8.348  0.00  0.00    +0.000 A 
ATOM      5  C   UNL     1      46.403   2.755   7.615  0.00  0.00    +0.000 A 
ATOM      6  C   UNL     1      46.053   4.049   7.951  0.00  0.00    +0.000 A 
ATOM      7  N   UNL     1      45.161   4.374   8.918  0.00  0.00    +0.000 NA
ATOM      8  H   UNL     1      42.761   3.164  10.398  0.00  0.00    +0.000 HD
ENDROOT
BRANCH   5   9
ATOM      9  C   UNL     1      47.358   2.421   6.533  0.00  0.00    +0.000 C 
ATOM     10  N   UNL     1      47.427   3.231   5.431  0.00  0.00    +0.000 N 
ATOM     11  O   UNL     1      48.074   1.430   6.605  0.00  0.00    +0.000 OA
ATOM     12  H   UNL     1      46.881   4.060   5.263  0.00  0.00    +0.000 HD
ATOM     13  H   UNL     1      48.082   2.954   4.709  0.00  0.00    +0.000 HD
ENDBRANCH   5   9
BRANCH   1  14
ATOM     14  C   UNL     1      43.376   5.120  10.733  0.00  0.00    +0.000 C 
BRANCH  14  15
ATOM     15  C   UNL     1      43.444   5.569  12.197  0.00  0.00    +0.000 C 
BRANCH  15  20
ATOM     16  C   UNL     1      46.810   7.052  13.238  0.00  0.00    +0.000 A 
ATOM     17  C   UNL     1      47.473   5.905  13.695  0.00  0.00    +0.000 A 
ATOM     18  C   UNL     1      46.862   4.653  13.617  0.00  0.00    +0.000 A 
ATOM     19  C   UNL     1      45.572   4.536  13.099  0.00  0.00    +0.000 A 
ATOM     20  C   UNL     1      44.886   5.668  12.645  0.00  0.00    +0.000 A 
ATOM     21  C   UNL     1      45.518   6.920  12.709  0.00  0.00    +0.000 A 
BRANCH  16  22
ATOM     22  C   UNL     1      47.446   8.414  13.378  0.00  0.00    +0.000 C 
BRANCH  22  23
ATOM     23  N   UNL     1      47.190   9.008  14.685  0.00  0.00    +0.000 NA
ATOM     24  H   UNL     1      47.743   9.857  14.775  0.00  0.00    +0.000 HD
ATOM     25  H   UNL     1      47.525   8.368  15.403  0.00  0.00    +0.000 HD
ENDBRANCH  22  23
ENDBRANCH  16  22
ENDBRANCH  15  20
ENDBRANCH  14  15
ENDBRANCH   1  14
TORSDOF 6
ENDMDL
MODEL 4
REMARK VINA RESULT:    -6.867      1.902      2.608
REMARK INTER + INTRA:          -9.530
REMARK INTER:                  -9.125
REMARK INTRA:                  -0.405
REMARK UNBOUND:                -0.455
REMARK  Name = 
REMARK  6 active torsions:
REMARK  status: ('A' for Active; 'I' for Inactive)
REMARK    1  A    between atoms: N_1  and  C_2
REMARK    2  A    between atoms: C_2  and  C_3
REMARK    3  A    between atoms: C_7  and  C_8
REMARK    4  A    between atoms: C_8  and  C_9
REMARK    5  A    between atoms: C_9  and  N_10
REMARK    6  A    between atoms: C_14  and  C_15
REMARK                            x       y       z     vdW  Elec       q    Type
REMARK                         _______ _______ _______ _____ _____    ______ ____
ROOT
ATOM      1  N   UNL     1      43.726   3.622  10.643  0.00  0.00    +0.000 N 
ATOM      2  C   UNL     1      44.644   3.337   9.611  0.00  0.00    +0.000 A 
ATOM      3  C   UNL     1      44.945   2.008   9.324  0.00  0.00    +0.000 A 
ATOM      4  C   UNL     1      45.843   1.712   8.294  0.00  0.00    +0.000 A 
ATOM      5  C   UNL     1      46.432   2.748   7.566  0.00  0.00    +0.000 A 
ATOM      6  C   UNL     1      46.097   4.037   7.937  0.00  0.00    +0.000 A 
ATOM      7  N   UNL     1      45.232   4.346   8.934  0.00  0.00    +0.000 NA
ATOM      8  H   UNL     1      42.865   3.117  10.451  0.00  0.00    +0.000 HD
ENDROOT
BRANCH   5   9
ATOM      9  C   UNL     1      47.357   2.432   6.453  0.00  0.00    +0.000 C 
ATOM     10  N   UNL     1      47.347   3.221   5.334  0.00  0.00    +0.000 N 
ATOM     11  O   UNL     1      48.118   1.474   6.516  0.00  0.00    +0.000 OA
ATOM     12  H   UNL     1      46.758   4.021   5.172  0.00  0.00    +0.000 HD
ATOM     13  H   UNL     1      47.984   2.956   4.592  0.00  0.00    +0.000 HD
ENDBRANCH   5   9
BRANCH   1  14
ATOM     14  C   UNL     1      43.498   5.063  10.809  0.00  0.00    +0.000 C 
BRANCH  14  15
ATOM     15  C   UNL     1      43.876   5.532  12.219  0.00  0.00    +0.000 C 
BRANCH  15  20
ATOM     16  C   UNL     1      44.854   9.148  11.453  0.00  0.00    +0.000 A 
ATOM     17  C   UNL     1      46.041   9.260  12.189  0.00  0.00    +0.000 A 
ATOM     18  C   UNL     1      46.555   8.164  12.881  0.00  0.00    +0.000 A 
ATOM     19  C   UNL     1      45.876   6.946  12.864  0.00  0.00    +0.000 A 
ATOM     20  C   UNL     1      44.682   6.810  12.144  0.00  0.00    +0.000 A 
ATOM     21  C   UNL     1      44.186   7.914  11.433  0.00  0.00    +0.000 A 
BRANCH  16  22
ATOM     22  C   UNL     1      44.266  10.349  10.752  0.00  0.00    +0.000 C 
BRANCH  22  23
ATOM     23  N   UNL     1      43.468   9.971   9.592  0.00  0.00    +0.000 NA
ATOM     24  H   UNL     1      43.621  10.651   8.850  0.00  0.00    +0.000 HD
ATOM     25  H   UNL     1      42.483  10.036   9.842  0.00  0.00    +0.000 HD
ENDBRANCH  22  23
ENDBRANCH  16  22
ENDBRANCH  15  20
ENDBRANCH  14  15
ENDBRANCH   1  14
TORSDOF 6
ENDMDL
MODEL 5
REMARK VINA RESULT:    -6.445      3.004      6.929
REMARK INTER + INTRA:          -8.972
REMARK INTER:                  -8.657
REMARK INTRA:                  -0.315
REMARK UNBOUND:                -0.455
REMARK  Name = 
REMARK  6 active torsions:
REMARK  status: ('A' for Active; 'I' for Inactive)
REMARK    1  A    between atoms: N_1  and  C_2
REMARK    2  A    between atoms: C_2  and  C_3
REMARK    3  A    between atoms: C_7  and  C_8
REMARK    4  A    between atoms: C_8  and  C_9
REMARK    5  A    between atoms: C_9  and  N_10
REMARK    6  A    between atoms: C_14  and  C_15
REMARK                            x       y       z     vdW  Elec       q    Type
REMARK                         _______ _______ _______ _____ _____    ______ ____
ROOT
ATOM      1  N   UNL     1      43.630   5.547  10.910  0.00  0.00    +0.000 N 
ATOM      2  C   UNL     1      44.731   6.316  11.340  0.00  0.00    +0.000 A 
ATOM      3  C   UNL     1      44.499   7.556  11.928  0.00  0.00    +0.000 A 
ATOM      4  C   UNL     1      45.582   8.323  12.371  0.00  0.00    +0.000 A 
ATOM      5  C   UNL     1      46.884   7.839  12.217  0.00  0.00    +0.000 A 
ATOM      6  C   UNL     1      47.023   6.612  11.598  0.00  0.00    +0.000 A 
ATOM      7  N   UNL     1      45.987   5.855  11.159  0.00  0.00    +0.000 NA
ATOM      8  H   UNL     1      42.996   5.432  11.697  0.00  0.00    +0.000 HD
ENDROOT
BRANCH   5   9
ATOM      9  C   UNL     1      48.028   8.637  12.718  0.00  0.00    +0.000 C 
ATOM     10  N   UNL     1      48.617   9.552  11.888  0.00  0.00    +0.000 N 
ATOM     11  O   UNL     1      48.458   8.480  13.855  0.00  0.00    +0.000 OA
ATOM     12  H   UNL     1      48.353   9.753  10.937  0.00  0.00    +0.000 HD
ATOM     13  H   UNL     1      49.406  10.061  12.267  0.00  0.00    +0.000 HD
ENDBRANCH   5   9
BRANCH   1  14
ATOM     14  C   UNL     1      44.036   4.259  10.333  0.00  0.00    +0.000 C 
BRANCH  14  15
ATOM     15  C   UNL     1      44.079   4.320   8.802  0.00  0.00    +0.000 C 
BRANCH  15  20
ATOM     16  C   UNL     1      46.638   2.437   6.675  0.00  0.00    +0.000 A 
ATOM     17  C   UNL     1      46.726   1.228   7.378  0.00  0.00    +0.000 A 
ATOM     18  C   UNL     1      45.926   0.997   8.497  0.00  0.00    +0.000 A 
ATOM     19  C   UNL     1      45.042   1.981   8.939  0.00  0.00    +0.000 A 
ATOM     20  C   UNL     1      44.943   3.201   8.260  0.00  0.00    +0.000 A 
ATOM     21  C   UNL     1      45.737   3.415   7.122  0.00  0.00    +0.000 A 
BRANCH  16  22
ATOM     22  C   UNL     1      47.546   2.711   5.500  0.00  0.00    +0.000 C 
BRANCH  22  23
ATOM     23  N   UNL     1      48.662   1.774   5.438  0.00  0.00    +0.000 NA
ATOM     24  H   UNL     1      48.296   0.832   5.321  0.00  0.00    +0.000 HD
ATOM     25  H   UNL     1      49.145   1.786   6.335  0.00  0.00    +0.000 HD
ENDBRANCH  22  23
ENDBRANCH  16  22
ENDBRANCH  15  20
ENDBRANCH  14  15
ENDBRANCH   1  14
TORSDOF 6
ENDMDL
MODEL 6
REMARK VINA RESULT:    -6.438      4.619      6.246
REMARK INTER + INTRA:          -8.963
REMARK INTER:                  -8.647
REMARK INTRA:                  -0.316
REMARK UNBOUND:                -0.455
REMARK  Name = 
REMARK  6 active torsions:
REMARK  status: ('A' for Active; 'I' for Inactive)
REMARK    1  A    between atoms: N_1  and  C_2
REMARK    2  A    between atoms: C_2  and  C_3
REMARK    3  A    between atoms: C_7  and  C_8
REMARK    4  A    between atoms: C_8  and  C_9
REMARK    5  A    between atoms: C_9  and  N_10
REMARK    6  A    between atoms: C_14  and  C_15
REMARK                            x       y       z     vdW  Elec       q    Type
REMARK                         _______ _______ _______ _____ _____    ______ ____
ROOT
ATOM      1  N   UNL     1      47.008   5.354  14.767  0.00  0.00    +0.000 N 
ATOM      2  C   UNL     1      46.316   4.930  13.615  0.00  0.00    +0.000 A 
ATOM      3  C   UNL     1      46.011   5.864  12.629  0.00  0.00    +0.000 A 
ATOM      4  C   UNL     1      45.336   5.453  11.474  0.00  0.00    +0.000 A 
ATOM      5  C   UNL     1      44.973   4.113  11.322  0.00  0.00    +0.000 A 
ATOM      6  C   UNL     1      45.291   3.260  12.362  0.00  0.00    +0.000 A 
ATOM      7  N   UNL     1      45.940   3.639  13.490  0.00  0.00    +0.000 NA
ATOM      8  H   UNL     1      47.862   5.821  14.471  0.00  0.00    +0.000 HD
ENDROOT
BRANCH   5   9
ATOM      9  C   UNL     1      44.289   3.672  10.084  0.00  0.00    +0.000 C 
ATOM     10  N   UNL     1      44.032   4.591   9.102  0.00  0.00    +0.000 N 
ATOM     11  O   UNL     1      43.944   2.506   9.933  0.00  0.00    +0.000 OA
ATOM     12  H   UNL     1      44.260   5.571   9.125  0.00  0.00    +0.000 HD
ATOM     13  H   UNL     1      43.547   4.247   8.281  0.00  0.00    +0.000 HD
ENDBRANCH   5   9
BRANCH   1  14
ATOM     14  C   UNL     1      47.274   4.252  15.700  0.00  0.00    +0.000 C 
BRANCH  14  15
ATOM     15  C   UNL     1      47.598   4.772  17.105  0.00  0.00    +0.000 C 
BRANCH  15  20
ATOM     16  C   UNL     1      50.745   2.633  17.475  0.00  0.00    +0.000 A 
ATOM     17  C   UNL     1      51.621   3.554  18.066  0.00  0.00    +0.000 A 
ATOM     18  C   UNL     1      51.186   4.837  18.396  0.00  0.00    +0.000 A 
ATOM     19  C   UNL     1      49.874   5.223  18.120  0.00  0.00    +0.000 A 
ATOM     20  C   UNL     1      48.983   4.325  17.520  0.00  0.00    +0.000 A 
ATOM     21  C   UNL     1      49.425   3.029  17.212  0.00  0.00    +0.000 A 
BRANCH  16  22
ATOM     22  C   UNL     1      51.231   1.264  17.063  0.00  0.00    +0.000 C 
BRANCH  22  23
ATOM     23  N   UNL     1      51.838   0.540  18.173  0.00  0.00    +0.000 NA
ATOM     24  H   UNL     1      52.548   1.129  18.602  0.00  0.00    +0.000 HD
ATOM     25  H   UNL     1      52.325  -0.274  17.801  0.00  0.00    +0.000 HD
ENDBRANCH  22  23
ENDBRANCH  16  22
ENDBRANCH  15  20
ENDBRANCH  14  15
ENDBRANCH   1  14
TORSDOF 6
ENDMDL
MODEL 7
REMARK VINA RESULT:    -6.110      3.834      7.176
REMARK INTER + INTRA:          -8.529
REMARK INTER:                  -8.109
REMARK INTRA:                  -0.420
REMARK UNBOUND:                -0.455
REMARK  Name = 
REMARK  6 active torsions:
REMARK  status: ('A' for Active; 'I' for Inactive)
REMARK    1  A    between atoms: N_1  and  C_2
REMARK    2  A    between atoms: C_2  and  C_3
REMARK    3  A    between atoms: C_7  and  C_8
REMARK    4  A    between atoms: C_8  and  C_9
REMARK    5  A    between atoms: C_9  and  N_10
REMARK    6  A    between atoms: C_14  and  C_15
REMARK                            x       y       z     vdW  Elec       q    Type
REMARK                         _______ _______ _______ _____ _____    ______ ____
ROOT
ATOM      1  N   UNL     1      48.121   7.106  13.163  0.00  0.00    +0.000 N 
ATOM      2  C   UNL     1      48.038   6.261  14.288  0.00  0.00    +0.000 A 
ATOM      3  C   UNL     1      48.694   6.630  15.459  0.00  0.00    +0.000 A 
ATOM      4  C   UNL     1      48.607   5.807  16.587  0.00  0.00    +0.000 A 
ATOM      5  C   UNL     1      47.869   4.623  16.528  0.00  0.00    +0.000 A 
ATOM      6  C   UNL     1      47.274   4.321  15.317  0.00  0.00    +0.000 A 
ATOM      7  N   UNL     1      47.348   5.103  14.213  0.00  0.00    +0.000 NA
ATOM      8  H   UNL     1      47.815   8.035  13.440  0.00  0.00    +0.000 HD
ENDROOT
BRANCH   5   9
ATOM      9  C   UNL     1      47.750   3.770  17.733  0.00  0.00    +0.000 C 
ATOM     10  N   UNL     1      46.908   2.690  17.705  0.00  0.00    +0.000 N 
ATOM     11  O   UNL     1      48.383   4.022  18.751  0.00  0.00    +0.000 OA
ATOM     12  H   UNL     1      46.336   2.399  16.930  0.00  0.00    +0.000 HD
ATOM     13  H   UNL     1      46.846   2.146  18.557  0.00  0.00    +0.000 HD
ENDBRANCH   5   9
BRANCH   1  14
ATOM     14  C   UNL     1      47.361   6.591  12.016  0.00  0.00    +0.000 C 
BRANCH  14  15
ATOM     15  C   UNL     1      45.934   7.148  11.994  0.00  0.00    +0.000 C 
BRANCH  15  20
ATOM     16  C   UNL     1      44.212   4.016  10.636  0.00  0.00    +0.000 A 
ATOM     17  C   UNL     1      43.252   3.791  11.632  0.00  0.00    +0.000 A 
ATOM     18  C   UNL     1      43.121   4.673  12.704  0.00  0.00    +0.000 A 
ATOM     19  C   UNL     1      43.963   5.781  12.806  0.00  0.00    +0.000 A 
ATOM     20  C   UNL     1      44.937   6.021  11.829  0.00  0.00    +0.000 A 
ATOM     21  C   UNL     1      45.046   5.139  10.742  0.00  0.00    +0.000 A 
BRANCH  16  22
ATOM     22  C   UNL     1      44.395   3.030   9.507  0.00  0.00    +0.000 C 
BRANCH  22  23
ATOM     23  N   UNL     1      44.337   3.675   8.201  0.00  0.00    +0.000 NA
ATOM     24  H   UNL     1      44.933   3.164   7.554  0.00  0.00    +0.000 HD
ATOM     25  H   UNL     1      44.735   4.609   8.282  0.00  0.00    +0.000 HD
ENDBRANCH  22  23
ENDBRANCH  16  22
ENDBRANCH  15  20
ENDBRANCH  14  15
ENDBRANCH   1  14
TORSDOF 6
ENDMDL
MODEL 8
REMARK VINA RESULT:    -6.028      3.758      6.032
REMARK INTER + INTRA:          -8.421
REMARK INTER:                  -7.910
REMARK INTRA:                  -0.512
REMARK UNBOUND:                -0.455
REMARK  Name = 
REMARK  6 active torsions:
REMARK  status: ('A' for Active; 'I' for Inactive)
REMARK    1  A    between atoms: N_1  and  C_2
REMARK    2  A    between atoms: C_2  and  C_3
REMARK    3  A    between atoms: C_7  and  C_8
REMARK    4  A    between atoms: C_8  and  C_9
REMARK    5  A    between atoms: C_9  and  N_10
REMARK    6  A    between atoms: C_14  and  C_15
REMARK                            x       y       z     vdW  Elec       q    Type
REMARK                         _______ _______ _______ _____ _____    ______ ____
ROOT
ATOM      1  N   UNL     1      47.634   7.548  13.441  0.00  0.00    +0.000 N 
ATOM      2  C   UNL     1      46.688   6.564  13.088  0.00  0.00    +0.000 A 
ATOM      3  C   UNL     1      45.526   6.952  12.428  0.00  0.00    +0.000 A 
ATOM      4  C   UNL     1      44.586   5.983  12.060  0.00  0.00    +0.000 A 
ATOM      5  C   UNL     1      44.820   4.640  12.361  0.00  0.00    +0.000 A 
ATOM      6  C   UNL     1      45.986   4.348  13.042  0.00  0.00    +0.000 A 
ATOM      7  N   UNL     1      46.907   5.272  13.411  0.00  0.00    +0.000 NA
ATOM      8  H   UNL     1      47.882   8.066  12.601  0.00  0.00    +0.000 HD
ENDROOT
BRANCH   5   9
ATOM      9  C   UNL     1      43.839   3.611  11.940  0.00  0.00    +0.000 C 
ATOM     10  N   UNL     1      43.774   2.431  12.632  0.00  0.00    +0.000 N 
ATOM     11  O   UNL     1      43.099   3.797  10.982  0.00  0.00    +0.000 OA
ATOM     12  H   UNL     1      44.339   2.169  13.423  0.00  0.00    +0.000 HD
ATOM     13  H   UNL     1      43.101   1.751  12.298  0.00  0.00    +0.000 HD
ENDBRANCH   5   9
BRANCH   1  14
ATOM     14  C   UNL     1      48.812   6.981  14.110  0.00  0.00    +0.000 C 
BRANCH  14  15
ATOM     15  C   UNL     1      48.833   7.331  15.602  0.00  0.00    +0.000 C 
BRANCH  15  20
ATOM     16  C   UNL     1      48.930   3.962  17.408  0.00  0.00    +0.000 A 
ATOM     17  C   UNL     1      50.299   3.855  17.689  0.00  0.00    +0.000 A 
ATOM     18  C   UNL     1      51.177   4.884  17.351  0.00  0.00    +0.000 A 
ATOM     19  C   UNL     1      50.700   6.027  16.708  0.00  0.00    +0.000 A 
ATOM     20  C   UNL     1      49.339   6.154  16.407  0.00  0.00    +0.000 A 
ATOM     21  C   UNL     1      48.461   5.121  16.771  0.00  0.00    +0.000 A 
BRANCH  16  22
ATOM     22  C   UNL     1      47.989   2.824  17.719  0.00  0.00    +0.000 C 
BRANCH  22  23
ATOM     23  N   UNL     1      46.595   3.187  17.494  0.00  0.00    +0.000 NA
ATOM     24  H   UNL     1      45.998   2.515  17.972  0.00  0.00    +0.000 HD
ATOM     25  H   UNL     1      46.393   3.096  16.500  0.00  0.00    +0.000 HD
ENDBRANCH  22  23
ENDBRANCH  16  22
ENDBRANCH  15  20
ENDBRANCH  14  15
ENDBRANCH   1  14
TORSDOF 6
ENDMDL
MODEL 9
REMARK VINA RESULT:    -5.575      2.929      5.362
REMARK INTER + INTRA:          -7.823
REMARK INTER:                  -7.230
REMARK INTRA:                  -0.593
REMARK UNBOUND:                -0.455
REMARK  Name = 
REMARK  6 active torsions:
REMARK  status: ('A' for Active; 'I' for Inactive)
REMARK    1  A    between atoms: N_1  and  C_2
REMARK    2  A    between atoms: C_2  and  C_3
REMARK    3  A    between atoms: C_7  and  C_8
REMARK    4  A    between atoms: C_8  and  C_9
REMARK    5  A    between atoms: C_9  and  N_10
REMARK    6  A    between atoms: C_14  and  C_15
REMARK                            x       y       z     vdW  Elec       q    Type
REMARK                         _______ _______ _______ _____ _____    ______ ____
ROOT
ATOM      1  N   UNL     1      47.540   6.393  14.048  0.00  0.00    +0.000 N 
ATOM      2  C   UNL     1      46.669   5.769  13.130  0.00  0.00    +0.000 A 
ATOM      3  C   UNL     1      45.876   4.711  13.565  0.00  0.00    +0.000 A 
ATOM      4  C   UNL     1      44.998   4.093  12.667  0.00  0.00    +0.000 A 
ATOM      5  C   UNL     1      44.929   4.540  11.346  0.00  0.00    +0.000 A 
ATOM      6  C   UNL     1      45.772   5.577  10.994  0.00  0.00    +0.000 A 
ATOM      7  N   UNL     1      46.631   6.186  11.847  0.00  0.00    +0.000 NA
ATOM      8  H   UNL     1      46.993   6.692  14.851  0.00  0.00    +0.000 HD
ENDROOT
BRANCH   5   9
ATOM      9  C   UNL     1      43.974   3.907  10.406  0.00  0.00    +0.000 C 
ATOM     10  N   UNL     1      43.920   4.350   9.112  0.00  0.00    +0.000 N 
ATOM     11  O   UNL     1      43.229   3.006  10.772  0.00  0.00    +0.000 OA
ATOM     12  H   UNL     1      44.475   5.088   8.709  0.00  0.00    +0.000 HD
ATOM     13  H   UNL     1      43.241   3.900   8.510  0.00  0.00    +0.000 HD
ENDBRANCH   5   9
BRANCH   1  14
ATOM     14  C   UNL     1      48.291   7.501  13.445  0.00  0.00    +0.000 C 
BRANCH  14  15
ATOM     15  C   UNL     1      47.808   8.857  13.972  0.00  0.00    +0.000 C 
BRANCH  15  20
ATOM     16  C   UNL     1      45.252  10.346  11.549  0.00  0.00    +0.000 A 
ATOM     17  C   UNL     1      46.026  11.334  10.925  0.00  0.00    +0.000 A 
ATOM     18  C   UNL     1      47.376  11.484  11.240  0.00  0.00    +0.000 A 
ATOM     19  C   UNL     1      47.966  10.660  12.199  0.00  0.00    +0.000 A 
ATOM     20  C   UNL     1      47.211   9.672  12.844  0.00  0.00    +0.000 A 
ATOM     21  C   UNL     1      45.858   9.516  12.504  0.00  0.00    +0.000 A 
BRANCH  16  22
ATOM     22  C   UNL     1      43.777  10.223  11.253  0.00  0.00    +0.000 C 
BRANCH  22  23
ATOM     23  N   UNL     1      43.527   9.725   9.905  0.00  0.00    +0.000 NA
ATOM     24  H   UNL     1      42.820   8.994   9.949  0.00  0.00    +0.000 HD
ATOM     25  H   UNL     1      44.378   9.282   9.561  0.00  0.00    +0.000 HD
ENDBRANCH  22  23
ENDBRANCH  16  22
ENDBRANCH  15  20
ENDBRANCH  14  15
ENDBRANCH   1  14
TORSDOF 6
ENDMDL
