MODEL 1
REMARK VINA RESULT:    -8.014      0.000      0.000
REMARK INTER + INTRA:         -12.299
REMARK INTER:                 -11.293
REMARK INTRA:                  -1.006
REMARK UNBOUND:                -1.006
REMARK  Name = 
REMARK  8 active torsions:
REMARK  status: ('A' for Active; 'I' for Inactive)
REMARK    1  A    between atoms: C_1  and  C_2
REMARK    2  A    between atoms: C_2  and  C_3
REMARK    3  A    between atoms: C_3  and  N_4
REMARK    4  A    between atoms: N_4  and  C_5
REMARK    5  A    between atoms: C_5  and  C_6
REMARK    6  A    between atoms: C_6  and  C_7
REMARK    7  A    between atoms: C_11  and  C_12
REMARK    8  A    between atoms: C_22  and  C_23
REMARK                            x       y       z     vdW  Elec       q    Type
REMARK                         _______ _______ _______ _____ _____    ______ ____
ROOT
ATOM      1  N   UNL     1      48.214   7.337  13.392  0.00  0.00    +0.000 N 
ATOM      2  C   UNL     1      48.106   6.371  14.408  0.00  0.00    +0.000 A 
ATOM      3  C   UNL     1      48.789   6.475  15.622  0.00  0.00    +0.000 A 
ATOM      4  C   UNL     1      48.594   5.536  16.645  0.00  0.00    +0.000 A 
ATOM      5  C   UNL     1      47.703   4.486  16.458  0.00  0.00    +0.000 A 
ATOM      6  C   UNL     1      47.080   4.422  15.229  0.00  0.00    +0.000 A 
ATOM      7  N   UNL     1      47.274   5.318  14.223  0.00  0.00    +0.000 NA
ENDROOT
BRANCH   5   8
ATOM      8  C   UNL     1      47.480   3.526  17.568  0.00  0.00    +0.000 C 
ATOM      9  N   UNL     1      48.304   3.558  18.658  0.00  0.00    +0.000 N 
ATOM     10  O   UNL     1      46.570   2.708  17.514  0.00  0.00    +0.000 OA
ATOM     11  H   UNL     1      49.099   4.169  18.780  0.00  0.00    +0.000 HD
ATOM     12  H   UNL     1      48.133   2.869  19.374  0.00  0.00    +0.000 HD
ENDBRANCH   5   8
BRANCH   1  13
ATOM     13  C   UNL     1      49.189   8.421  13.569  0.00  0.00    +0.000 C 
BRANCH  13  15
ATOM     14  C   UNL     1      49.325  10.182  11.702  0.00  0.00    +0.000 C 
ATOM     15  C   UNL     1      49.930   8.941  12.337  0.00  0.00    +0.000 C 
ENDBRANCH  13  15
ENDBRANCH   1  13
BRANCH   1  16
ATOM     16  C   UNL     1      47.758   6.897  12.055  0.00  0.00    +0.000 C 
BRANCH  16  17
ATOM     17  C   UNL     1      46.318   7.379  11.787  0.00  0.00    +0.000 C 
BRANCH  17  18
ATOM     18  C   UNL     1      45.319   6.403  11.202  0.00  0.00    +0.000 A 
ATOM     19  C   UNL     1      43.962   6.377  11.520  0.00  0.00    +0.000 A 
ATOM     20  C   UNL     1      43.145   5.368  11.000  0.00  0.00    +0.000 A 
ATOM     21  C   UNL     1      43.672   4.391  10.146  0.00  0.00    +0.000 A 
ATOM     22  C   UNL     1      45.022   4.409   9.766  0.00  0.00    +0.000 A 
ATOM     23  C   UNL     1      45.826   5.411  10.339  0.00  0.00    +0.000 A 
BRANCH  22  24
ATOM     24  C   UNL     1      45.576   3.488   8.742  0.00  0.00    +0.000 A 
ATOM     25  C   UNL     1      46.236   3.989   7.603  0.00  0.00    +0.000 A 
ATOM     26  C   UNL     1      46.882   3.140   6.699  0.00  0.00    +0.000 A 
ATOM     27  C   UNL     1      46.887   1.767   6.912  0.00  0.00    +0.000 A 
ATOM     28  C   UNL     1      46.219   1.239   8.012  0.00  0.00    +0.000 A 
ATOM     29  C   UNL     1      45.561   2.090   8.907  0.00  0.00    +0.000 A 
ENDBRANCH  22  24
ENDBRANCH  17  18
ENDBRANCH  16  17
ENDBRANCH   1  16
TORSDOF 7
ENDMDL
MODEL 2
REMARK VINA RESULT:    -7.683      3.170      5.068
REMARK INTER + INTRA:         -11.834
REMARK INTER:                 -10.066
REMARK INTRA:                  -1.768
REMARK UNBOUND:                -1.006
REMARK  Name = 
REMARK  8 active torsions:
REMARK  status: ('A' for Active; 'I' for Inactive)
REMARK    1  A    between atoms: C_1  and  C_2
REMARK    2  A    between atoms: C_2  and  C_3
REMARK    3  A    between atoms: C_3  and  N_4
REMARK    4  A    between atoms: N_4  and  C_5
REMARK    5  A    between atoms: C_5  and  C_6
REMARK    6  A    between atoms: C_6  and  C_7
REMARK    7  A    between atoms: C_11  and  C_12
REMARK    8  A    between atoms: C_22  and  C_23
REMARK                            x       y       z     vdW  Elec       q    Type
REMARK                         _______ _______ _______ _____ _____    ______ ____
ROOT
ATOM      1  N   UNL     1      47.122   7.086  12.597  0.00  0.00    +0.000 N 
ATOM      2  C   UNL     1      48.037   8.107  12.283  0.00  0.00    +0.000 A 
ATOM      3  C   UNL     1      49.419   7.932  12.369  0.00  0.00    +0.000 A 
ATOM      4  C   UNL     1      50.303   8.945  11.969  0.00  0.00    +0.000 A 
ATOM      5  C   UNL     1      49.803  10.142  11.471  0.00  0.00    +0.000 A 
ATOM      6  C   UNL     1      48.430  10.264  11.437  0.00  0.00    +0.000 A 
ATOM      7  N   UNL     1      47.562   9.295  11.838  0.00  0.00    +0.000 NA
ENDROOT
BRANCH   5   8
ATOM      8  C   UNL     1      50.755  11.185  11.015  0.00  0.00    +0.000 C 
ATOM      9  N   UNL     1      52.085  11.046  11.293  0.00  0.00    +0.000 N 
ATOM     10  O   UNL     1      50.359  12.166  10.397  0.00  0.00    +0.000 OA
ATOM     11  H   UNL     1      52.503  10.295  11.824  0.00  0.00    +0.000 HD
ATOM     12  H   UNL     1      52.691  11.793  10.989  0.00  0.00    +0.000 HD
ENDBRANCH   5   8
BRANCH   1  13
ATOM     13  C   UNL     1      47.648   5.838  13.167  0.00  0.00    +0.000 C 
BRANCH  13  15
ATOM     14  C   UNL     1      46.560   3.516  13.344  0.00  0.00    +0.000 C 
ATOM     15  C   UNL     1      46.684   4.918  13.917  0.00  0.00    +0.000 C 
ENDBRANCH  13  15
ENDBRANCH   1  13
BRANCH   1  16
ATOM     16  C   UNL     1      45.733   7.537  12.833  0.00  0.00    +0.000 C 
BRANCH  16  17
ATOM     17  C   UNL     1      44.859   7.275  11.589  0.00  0.00    +0.000 C 
BRANCH  17  18
ATOM     18  C   UNL     1      44.412   5.857  11.299  0.00  0.00    +0.000 A 
ATOM     19  C   UNL     1      43.419   5.183  12.007  0.00  0.00    +0.000 A 
ATOM     20  C   UNL     1      43.153   3.839  11.724  0.00  0.00    +0.000 A 
ATOM     21  C   UNL     1      43.863   3.167  10.721  0.00  0.00    +0.000 A 
ATOM     22  C   UNL     1      44.837   3.823   9.954  0.00  0.00    +0.000 A 
ATOM     23  C   UNL     1      45.110   5.161  10.292  0.00  0.00    +0.000 A 
BRANCH  22  24
ATOM     24  C   UNL     1      45.492   3.189   8.783  0.00  0.00    +0.000 A 
ATOM     25  C   UNL     1      45.963   3.971   7.711  0.00  0.00    +0.000 A 
ATOM     26  C   UNL     1      46.702   3.410   6.665  0.00  0.00    +0.000 A 
ATOM     27  C   UNL     1      46.992   2.051   6.665  0.00  0.00    +0.000 A 
ATOM     28  C   UNL     1      46.516   1.247   7.696  0.00  0.00    +0.000 A 
ATOM     29  C   UNL     1      45.763   1.809   8.733  0.00  0.00    +0.000 A 
ENDBRANCH  22  24
ENDBRANCH  17  18
ENDBRANCH  16  17
ENDBRANCH   1  16
TORSDOF 7
ENDMDL
MODEL 3
REMARK VINA RESULT:    -7.471      3.411      7.965
REMARK INTER + INTRA:         -11.534
REMARK INTER:                 -10.594
REMARK INTRA:                  -0.940
REMARK UNBOUND:                -1.006
REMARK  Name = 
REMARK  8 active torsions:
REMARK  status: ('A' for Active; 'I' for Inactive)
REMARK    1  A    between atoms: C_1  and  C_2
REMARK    2  A    between atoms: C_2  and  C_3
REMARK    3  A    between atoms: C_3  and  N_4
REMARK    4  A    between atoms: N_4  and  C_5
REMARK    5  A    between atoms: C_5  and  C_6
REMARK    6  A    between atoms: C_6  and  C_7
REMARK    7  A    between atoms: C_11  and  C_12
REMARK    8  A    between atoms: C_22  and  C_23
REMARK                            x       y       z     vdW  Elec       q    Type
REMARK                         _______ _______ _______ _____ _____    ______ ____
ROOT
ATOM      1  N   UNL     1      44.056   4.778  10.118  0.00  0.00    +0.000 N 
ATOM      2  C   UNL     1      44.935   4.013   9.329  0.00  0.00    +0.000 A 
ATOM      3  C   UNL     1      44.938   2.617   9.342  0.00  0.00    +0.000 A 
ATOM      4  C   UNL     1      45.770   1.887   8.482  0.00  0.00    +0.000 A 
ATOM      5  C   UNL     1      46.603   2.556   7.594  0.00  0.00    +0.000 A 
ATOM      6  C   UNL     1      46.574   3.934   7.647  0.00  0.00    +0.000 A 
ATOM      7  N   UNL     1      45.783   4.654   8.490  0.00  0.00    +0.000 NA
ENDROOT
BRANCH   5   8
ATOM      8  C   UNL     1      47.446   1.765   6.662  0.00  0.00    +0.000 C 
ATOM      9  N   UNL     1      48.453   2.386   5.979  0.00  0.00    +0.000 N 
ATOM     10  O   UNL     1      47.245   0.568   6.501  0.00  0.00    +0.000 OA
ATOM     11  H   UNL     1      48.674   3.370   6.017  0.00  0.00    +0.000 HD
ATOM     12  H   UNL     1      48.980   1.816   5.335  0.00  0.00    +0.000 HD
ENDBRANCH   5   8
BRANCH   1  13
ATOM     13  C   UNL     1      43.210   4.073  11.090  0.00  0.00    +0.000 C 
BRANCH  13  15
ATOM     14  C   UNL     1      43.425   3.873  13.644  0.00  0.00    +0.000 C 
ATOM     15  C   UNL     1      43.884   3.387  12.279  0.00  0.00    +0.000 C 
ENDBRANCH  13  15
ENDBRANCH   1  13
BRANCH   1  16
ATOM     16  C   UNL     1      44.436   6.198  10.286  0.00  0.00    +0.000 C 
BRANCH  16  17
ATOM     17  C   UNL     1      44.650   6.530  11.776  0.00  0.00    +0.000 C 
BRANCH  17  18
ATOM     18  C   UNL     1      46.066   6.653  12.299  0.00  0.00    +0.000 A 
ATOM     19  C   UNL     1      47.089   7.341  11.650  0.00  0.00    +0.000 A 
ATOM     20  C   UNL     1      48.388   7.308  12.169  0.00  0.00    +0.000 A 
ATOM     21  C   UNL     1      48.668   6.605  13.347  0.00  0.00    +0.000 A 
ATOM     22  C   UNL     1      47.657   5.940  14.056  0.00  0.00    +0.000 A 
ATOM     23  C   UNL     1      46.371   5.956  13.485  0.00  0.00    +0.000 A 
BRANCH  22  24
ATOM     24  C   UNL     1      47.887   5.322  15.386  0.00  0.00    +0.000 A 
ATOM     25  C   UNL     1      48.746   5.928  16.322  0.00  0.00    +0.000 A 
ATOM     26  C   UNL     1      48.871   5.438  17.626  0.00  0.00    +0.000 A 
ATOM     27  C   UNL     1      48.136   4.329  18.028  0.00  0.00    +0.000 A 
ATOM     28  C   UNL     1      47.300   3.691  17.117  0.00  0.00    +0.000 A 
ATOM     29  C   UNL     1      47.189   4.175  15.809  0.00  0.00    +0.000 A 
ENDBRANCH  22  24
ENDBRANCH  17  18
ENDBRANCH  16  17
ENDBRANCH   1  16
TORSDOF 7
ENDMDL
MODEL 4
REMARK VINA RESULT:    -7.304      1.731      2.258
REMARK INTER + INTRA:         -11.299
REMARK INTER:                 -10.027
REMARK INTRA:                  -1.273
REMARK UNBOUND:                -1.006
REMARK  Name = 
REMARK  8 active torsions:
REMARK  status: ('A' for Active; 'I' for Inactive)
REMARK    1  A    between atoms: C_1  and  C_2
REMARK    2  A    between atoms: C_2  and  C_3
REMARK    3  A    between atoms: C_3  and  N_4
REMARK    4  A    between atoms: N_4  and  C_5
REMARK    5  A    between atoms: C_5  and  C_6
REMARK    6  A    between atoms: C_6  and  C_7
REMARK    7  A    between atoms: C_11  and  C_12
REMARK    8  A    between atoms: C_22  and  C_23
REMARK                            x       y       z     vdW  Elec       q    Type
REMARK                         _______ _______ _______ _____ _____    ______ ____
ROOT
ATOM      1  N   UNL     1      47.739   5.713  14.612  0.00  0.00    +0.000 N 
ATOM      2  C   UNL     1      48.144   5.487  15.940  0.00  0.00    +0.000 A 
ATOM      3  C   UNL     1      49.033   6.329  16.611  0.00  0.00    +0.000 A 
ATOM      4  C   UNL     1      49.351   6.119  17.960  0.00  0.00    +0.000 A 
ATOM      5  C   UNL     1      48.771   5.062  18.650  0.00  0.00    +0.000 A 
ATOM      6  C   UNL     1      47.923   4.250  17.926  0.00  0.00    +0.000 A 
ATOM      7  N   UNL     1      47.620   4.434  16.611  0.00  0.00    +0.000 NA
ENDROOT
BRANCH   5   8
ATOM      8  C   UNL     1      49.088   4.881  20.089  0.00  0.00    +0.000 C 
ATOM      9  N   UNL     1      48.069   4.704  20.982  0.00  0.00    +0.000 N 
ATOM     10  O   UNL     1      50.249   4.893  20.479  0.00  0.00    +0.000 OA
ATOM     11  H   UNL     1      47.084   4.715  20.764  0.00  0.00    +0.000 HD
ATOM     12  H   UNL     1      48.330   4.615  21.953  0.00  0.00    +0.000 HD
ENDBRANCH   5   8
BRANCH   1  13
ATOM     13  C   UNL     1      48.387   6.802  13.869  0.00  0.00    +0.000 C 
BRANCH  13  15
ATOM     14  C   UNL     1      46.664   7.811  12.250  0.00  0.00    +0.000 C 
ATOM     15  C   UNL     1      47.965   7.044  12.419  0.00  0.00    +0.000 C 
ENDBRANCH  13  15
ENDBRANCH   1  13
BRANCH   1  16
ATOM     16  C   UNL     1      47.127   4.550  13.934  0.00  0.00    +0.000 C 
BRANCH  16  17
ATOM     17  C   UNL     1      45.589   4.619  14.021  0.00  0.00    +0.000 C 
BRANCH  17  18
ATOM     18  C   UNL     1      44.791   4.724  12.738  0.00  0.00    +0.000 A 
ATOM     19  C   UNL     1      43.564   5.375  12.624  0.00  0.00    +0.000 A 
ATOM     20  C   UNL     1      42.860   5.326  11.416  0.00  0.00    +0.000 A 
ATOM     21  C   UNL     1      43.384   4.644  10.312  0.00  0.00    +0.000 A 
ATOM     22  C   UNL     1      44.637   4.016  10.372  0.00  0.00    +0.000 A 
ATOM     23  C   UNL     1      45.300   4.047  11.612  0.00  0.00    +0.000 A 
BRANCH  22  24
ATOM     24  C   UNL     1      45.292   3.424   9.178  0.00  0.00    +0.000 A 
ATOM     25  C   UNL     1      45.843   4.245   8.177  0.00  0.00    +0.000 A 
ATOM     26  C   UNL     1      46.581   3.711   7.116  0.00  0.00    +0.000 A 
ATOM     27  C   UNL     1      46.790   2.340   7.032  0.00  0.00    +0.000 A 
ATOM     28  C   UNL     1      46.234   1.499   7.990  0.00  0.00    +0.000 A 
ATOM     29  C   UNL     1      45.483   2.036   9.042  0.00  0.00    +0.000 A 
ENDBRANCH  22  24
ENDBRANCH  17  18
ENDBRANCH  16  17
ENDBRANCH   1  16
TORSDOF 7
ENDMDL
MODEL 5
REMARK VINA RESULT:    -6.927      1.416      2.590
REMARK INTER + INTRA:         -10.768
REMARK INTER:                  -9.339
REMARK INTRA:                  -1.429
REMARK UNBOUND:                -1.006
REMARK  Name = 
REMARK  8 active torsions:
REMARK  status: ('A' for Active; 'I' for Inactive)
REMARK    1  A    between atoms: C_1  and  C_2
REMARK    2  A    between atoms: C_2  and  C_3
REMARK    3  A    between atoms: C_3  and  N_4
REMARK    4  A    between atoms: N_4  and  C_5
REMARK    5  A    between atoms: C_5  and  C_6
REMARK    6  A    between atoms: C_6  and  C_7
REMARK    7  A    between atoms: C_11  and  C_12
REMARK    8  A    between atoms: C_22  and  C_23
REMARK                            x       y       z     vdW  Elec       q    Type
REMARK                         _______ _______ _______ _____ _____    ______ ____
ROOT
ATOM      1  N   UNL     1      49.369   7.941  14.529  0.00  0.00    +0.000 N 
ATOM      2  C   UNL     1      48.949   6.863  15.329  0.00  0.00    +0.000 A 
ATOM      3  C   UNL     1      49.032   6.882  16.723  0.00  0.00    +0.000 A 
ATOM      4  C   UNL     1      48.529   5.824  17.492  0.00  0.00    +0.000 A 
ATOM      5  C   UNL     1      47.929   4.739  16.866  0.00  0.00    +0.000 A 
ATOM      6  C   UNL     1      47.901   4.766  15.487  0.00  0.00    +0.000 A 
ATOM      7  N   UNL     1      48.402   5.779  14.729  0.00  0.00    +0.000 NA
ENDROOT
BRANCH   5   8
ATOM      8  C   UNL     1      47.365   3.648  17.700  0.00  0.00    +0.000 C 
ATOM      9  N   UNL     1      47.967   3.330  18.884  0.00  0.00    +0.000 N 
ATOM     10  O   UNL     1      46.370   3.033  17.335  0.00  0.00    +0.000 OA
ATOM     11  H   UNL     1      48.807   3.753  19.253  0.00  0.00    +0.000 HD
ATOM     12  H   UNL     1      47.567   2.563  19.403  0.00  0.00    +0.000 HD
ENDBRANCH   5   8
BRANCH   1  13
ATOM     13  C   UNL     1      50.045   9.067  15.187  0.00  0.00    +0.000 C 
BRANCH  13  15
ATOM     14  C   UNL     1      48.534  10.443  16.747  0.00  0.00    +0.000 C 
ATOM     15  C   UNL     1      49.256  10.358  15.412  0.00  0.00    +0.000 C 
ENDBRANCH  13  15
ENDBRANCH   1  13
BRANCH   1  16
ATOM     16  C   UNL     1      49.580   7.619  13.101  0.00  0.00    +0.000 C 
BRANCH  16  17
ATOM     17  C   UNL     1      48.670   8.487  12.209  0.00  0.00    +0.000 C 
BRANCH  17  18
ATOM     18  C   UNL     1      47.217   8.089  12.045  0.00  0.00    +0.000 A 
ATOM     19  C   UNL     1      46.140   8.810  12.557  0.00  0.00    +0.000 A 
ATOM     20  C   UNL     1      44.843   8.300  12.437  0.00  0.00    +0.000 A 
ATOM     21  C   UNL     1      44.612   7.081  11.789  0.00  0.00    +0.000 A 
ATOM     22  C   UNL     1      45.664   6.349  11.218  0.00  0.00    +0.000 A 
ATOM     23  C   UNL     1      46.960   6.867  11.394  0.00  0.00    +0.000 A 
BRANCH  22  24
ATOM     24  C   UNL     1      45.438   5.139  10.389  0.00  0.00    +0.000 A 
ATOM     25  C   UNL     1      44.738   4.032  10.906  0.00  0.00    +0.000 A 
ATOM     26  C   UNL     1      44.397   2.940  10.102  0.00  0.00    +0.000 A 
ATOM     27  C   UNL     1      44.745   2.929   8.756  0.00  0.00    +0.000 A 
ATOM     28  C   UNL     1      45.461   3.995   8.222  0.00  0.00    +0.000 A 
ATOM     29  C   UNL     1      45.814   5.079   9.034  0.00  0.00    +0.000 A 
ENDBRANCH  22  24
ENDBRANCH  17  18
ENDBRANCH  16  17
ENDBRANCH   1  16
TORSDOF 7
ENDMDL
MODEL 6
REMARK VINA RESULT:    -6.794      3.999      7.954
REMARK INTER + INTRA:         -10.580
REMARK INTER:                  -9.774
REMARK INTRA:                  -0.806
REMARK UNBOUND:                -1.006
REMARK  Name = 
REMARK  8 active torsions:
REMARK  status: ('A' for Active; 'I' for Inactive)
REMARK    1  A    between atoms: C_1  and  C_2
REMARK    2  A    between atoms: C_2  and  C_3
REMARK    3  A    between atoms: C_3  and  N_4
REMARK    4  A    between atoms: N_4  and  C_5
REMARK    5  A    between atoms: C_5  and  C_6
REMARK    6  A    between atoms: C_6  and  C_7
REMARK    7  A    between atoms: C_11  and  C_12
REMARK    8  A    between atoms: C_22  and  C_23
REMARK                            x       y       z     vdW  Elec       q    Type
REMARK                         _______ _______ _______ _____ _____    ______ ____
ROOT
ATOM      1  N   UNL     1      44.780   4.943  10.647  0.00  0.00    +0.000 N 
ATOM      2  C   UNL     1      45.428   4.335   9.556  0.00  0.00    +0.000 A 
ATOM      3  C   UNL     1      45.410   2.955   9.343  0.00  0.00    +0.000 A 
ATOM      4  C   UNL     1      45.998   2.392   8.202  0.00  0.00    +0.000 A 
ATOM      5  C   UNL     1      46.603   3.213   7.259  0.00  0.00    +0.000 A 
ATOM      6  C   UNL     1      46.612   4.564   7.539  0.00  0.00    +0.000 A 
ATOM      7  N   UNL     1      46.060   5.121   8.652  0.00  0.00    +0.000 NA
ENDROOT
BRANCH   5   8
ATOM      8  C   UNL     1      47.182   2.601   6.037  0.00  0.00    +0.000 C 
ATOM      9  N   UNL     1      48.506   2.264   6.020  0.00  0.00    +0.000 N 
ATOM     10  O   UNL     1      46.487   2.400   5.048  0.00  0.00    +0.000 OA
ATOM     11  H   UNL     1      49.165   2.420   6.768  0.00  0.00    +0.000 HD
ATOM     12  H   UNL     1      48.862   1.877   5.158  0.00  0.00    +0.000 HD
ENDBRANCH   5   8
BRANCH   1  13
ATOM     13  C   UNL     1      44.181   4.073  11.667  0.00  0.00    +0.000 C 
BRANCH  13  15
ATOM     14  C   UNL     1      42.156   5.644  11.861  0.00  0.00    +0.000 C 
ATOM     15  C   UNL     1      43.071   4.644  12.549  0.00  0.00    +0.000 C 
ENDBRANCH  13  15
ENDBRANCH   1  13
BRANCH   1  16
ATOM     16  C   UNL     1      45.213   6.326  10.944  0.00  0.00    +0.000 C 
BRANCH  16  17
ATOM     17  C   UNL     1      46.415   6.322  11.910  0.00  0.00    +0.000 C 
BRANCH  17  18
ATOM     18  C   UNL     1      47.271   7.567  12.015  0.00  0.00    +0.000 A 
ATOM     19  C   UNL     1      46.789   8.827  12.367  0.00  0.00    +0.000 A 
ATOM     20  C   UNL     1      47.646   9.932  12.335  0.00  0.00    +0.000 A 
ATOM     21  C   UNL     1      48.990   9.784  11.970  0.00  0.00    +0.000 A 
ATOM     22  C   UNL     1      49.524   8.526  11.655  0.00  0.00    +0.000 A 
ATOM     23  C   UNL     1      48.627   7.442  11.655  0.00  0.00    +0.000 A 
BRANCH  22  24
ATOM     24  C   UNL     1      50.973   8.310  11.420  0.00  0.00    +0.000 A 
ATOM     25  C   UNL     1      51.417   7.350  10.491  0.00  0.00    +0.000 A 
ATOM     26  C   UNL     1      52.769   7.225  10.156  0.00  0.00    +0.000 A 
ATOM     27  C   UNL     1      53.713   8.061  10.741  0.00  0.00    +0.000 A 
ATOM     28  C   UNL     1      53.310   9.000  11.685  0.00  0.00    +0.000 A 
ATOM     29  C   UNL     1      51.958   9.111  12.029  0.00  0.00    +0.000 A 
ENDBRANCH  22  24
ENDBRANCH  17  18
ENDBRANCH  16  17
ENDBRANCH   1  16
TORSDOF 7
ENDMDL
MODEL 7
REMARK VINA RESULT:    -6.614      3.314      7.521
REMARK INTER + INTRA:         -10.327
REMARK INTER:                  -9.165
REMARK INTRA:                  -1.163
REMARK UNBOUND:                -1.006
REMARK  Name = 
REMARK  8 active torsions:
REMARK  status: ('A' for Active; 'I' for Inactive)
REMARK    1  A    between atoms: C_1  and  C_2
REMARK    2  A    between atoms: C_2  and  C_3
REMARK    3  A    between atoms: C_3  and  N_4
REMARK    4  A    between atoms: N_4  and  C_5
REMARK    5  A    between atoms: C_5  and  C_6
REMARK    6  A    between atoms: C_6  and  C_7
REMARK    7  A    between atoms: C_11  and  C_12
REMARK    8  A    between atoms: C_22  and  C_23
REMARK                            x       y       z     vdW  Elec       q    Type
REMARK                         _______ _______ _______ _____ _____    ______ ____
ROOT
ATOM      1  N   UNL     1      47.756   7.372  13.574  0.00  0.00    +0.000 N 
ATOM      2  C   UNL     1      46.730   6.464  13.255  0.00  0.00    +0.000 A 
ATOM      3  C   UNL     1      45.443   6.875  12.900  0.00  0.00    +0.000 A 
ATOM      4  C   UNL     1      44.469   5.946  12.509  0.00  0.00    +0.000 A 
ATOM      5  C   UNL     1      44.782   4.593  12.463  0.00  0.00    +0.000 A 
ATOM      6  C   UNL     1      46.060   4.248  12.851  0.00  0.00    +0.000 A 
ATOM      7  N   UNL     1      47.010   5.139  13.249  0.00  0.00    +0.000 NA
ENDROOT
BRANCH   5   8
ATOM      8  C   UNL     1      43.750   3.630  12.006  0.00  0.00    +0.000 C 
ATOM      9  N   UNL     1      43.753   2.358  12.505  0.00  0.00    +0.000 N 
ATOM     10  O   UNL     1      42.901   3.964  11.188  0.00  0.00    +0.000 OA
ATOM     11  H   UNL     1      44.427   1.979  13.154  0.00  0.00    +0.000 HD
ATOM     12  H   UNL     1      43.050   1.730  12.144  0.00  0.00    +0.000 HD
ENDBRANCH   5   8
BRANCH   1  13
ATOM     13  C   UNL     1      47.413   8.797  13.667  0.00  0.00    +0.000 C 
BRANCH  13  15
ATOM     14  C   UNL     1      46.582  10.407  11.843  0.00  0.00    +0.000 C 
ATOM     15  C   UNL     1      47.766   9.708  12.490  0.00  0.00    +0.000 C 
ENDBRANCH  13  15
ENDBRANCH   1  13
BRANCH   1  16
ATOM     16  C   UNL     1      48.910   6.789  14.293  0.00  0.00    +0.000 C 
BRANCH  16  17
ATOM     17  C   UNL     1      48.626   6.718  15.807  0.00  0.00    +0.000 C 
BRANCH  17  18
ATOM     18  C   UNL     1      48.524   5.359  16.467  0.00  0.00    +0.000 A 
ATOM     19  C   UNL     1      47.325   4.715  16.765  0.00  0.00    +0.000 A 
ATOM     20  C   UNL     1      47.341   3.506  17.468  0.00  0.00    +0.000 A 
ATOM     21  C   UNL     1      48.553   2.924  17.861  0.00  0.00    +0.000 A 
ATOM     22  C   UNL     1      49.782   3.517  17.539  0.00  0.00    +0.000 A 
ATOM     23  C   UNL     1      49.731   4.753  16.869  0.00  0.00    +0.000 A 
BRANCH  22  24
ATOM     24  C   UNL     1      51.083   2.851  17.799  0.00  0.00    +0.000 A 
ATOM     25  C   UNL     1      51.302   1.518  17.400  0.00  0.00    +0.000 A 
ATOM     26  C   UNL     1      52.560   0.918  17.512  0.00  0.00    +0.000 A 
ATOM     27  C   UNL     1      53.633   1.637  18.025  0.00  0.00    +0.000 A 
ATOM     28  C   UNL     1      53.442   2.946  18.454  0.00  0.00    +0.000 A 
ATOM     29  C   UNL     1      52.178   3.538  18.355  0.00  0.00    +0.000 A 
ENDBRANCH  22  24
ENDBRANCH  17  18
ENDBRANCH  16  17
ENDBRANCH   1  16
TORSDOF 7
ENDMDL
MODEL 8
REMARK VINA RESULT:    -6.538      3.645      8.630
REMARK INTER + INTRA:         -10.220
REMARK INTER:                  -9.497
REMARK INTRA:                  -0.723
REMARK UNBOUND:                -1.006
REMARK  Name = 
REMARK  8 active torsions:
REMARK  status: ('A' for Active; 'I' for Inactive)
REMARK    1  A    between atoms: C_1  and  C_2
REMARK    2  A    between atoms: C_2  and  C_3
REMARK    3  A    between atoms: C_3  and  N_4
REMARK    4  A    between atoms: N_4  and  C_5
REMARK    5  A    between atoms: C_5  and  C_6
REMARK    6  A    between atoms: C_6  and  C_7
REMARK    7  A    between atoms: C_11  and  C_12
REMARK    8  A    between atoms: C_22  and  C_23
REMARK                            x       y       z     vdW  Elec       q    Type
REMARK                         _______ _______ _______ _____ _____    ______ ____
ROOT
ATOM      1  N   UNL     1      44.327   5.054  10.312  0.00  0.00    +0.000 N 
ATOM      2  C   UNL     1      45.084   4.421   9.310  0.00  0.00    +0.000 A 
ATOM      3  C   UNL     1      44.786   3.142   8.835  0.00  0.00    +0.000 A 
ATOM      4  C   UNL     1      45.512   2.574   7.779  0.00  0.00    +0.000 A 
ATOM      5  C   UNL     1      46.542   3.293   7.184  0.00  0.00    +0.000 A 
ATOM      6  C   UNL     1      46.806   4.538   7.715  0.00  0.00    +0.000 A 
ATOM      7  N   UNL     1      46.119   5.093   8.751  0.00  0.00    +0.000 NA
ENDROOT
BRANCH   5   8
ATOM      8  C   UNL     1      47.272   2.691   6.040  0.00  0.00    +0.000 C 
ATOM      9  N   UNL     1      48.456   2.048   6.264  0.00  0.00    +0.000 N 
ATOM     10  O   UNL     1      46.824   2.770   4.902  0.00  0.00    +0.000 OA
ATOM     11  H   UNL     1      48.922   1.961   7.156  0.00  0.00    +0.000 HD
ATOM     12  H   UNL     1      48.931   1.681   5.453  0.00  0.00    +0.000 HD
ENDBRANCH   5   8
BRANCH   1  13
ATOM     13  C   UNL     1      43.268   4.278  10.972  0.00  0.00    +0.000 C 
BRANCH  13  15
ATOM     14  C   UNL     1      43.164   4.317  13.540  0.00  0.00    +0.000 C 
ATOM     15  C   UNL     1      43.598   3.573  12.288  0.00  0.00    +0.000 C 
ENDBRANCH  13  15
ENDBRANCH   1  13
BRANCH   1  16
ATOM     16  C   UNL     1      44.987   6.205  10.966  0.00  0.00    +0.000 C 
BRANCH  16  17
ATOM     17  C   UNL     1      46.127   5.725  11.887  0.00  0.00    +0.000 C 
BRANCH  17  18
ATOM     18  C   UNL     1      47.226   6.699  12.256  0.00  0.00    +0.000 A 
ATOM     19  C   UNL     1      48.033   7.363  11.334  0.00  0.00    +0.000 A 
ATOM     20  C   UNL     1      49.088   8.165  11.784  0.00  0.00    +0.000 A 
ATOM     21  C   UNL     1      49.330   8.323  13.154  0.00  0.00    +0.000 A 
ATOM     22  C   UNL     1      48.512   7.710  14.113  0.00  0.00    +0.000 A 
ATOM     23  C   UNL     1      47.487   6.877  13.629  0.00  0.00    +0.000 A 
BRANCH  22  24
ATOM     24  C   UNL     1      48.642   7.983  15.566  0.00  0.00    +0.000 A 
ATOM     25  C   UNL     1      48.245   9.223  16.105  0.00  0.00    +0.000 A 
ATOM     26  C   UNL     1      48.232   9.451  17.484  0.00  0.00    +0.000 A 
ATOM     27  C   UNL     1      48.612   8.443  18.362  0.00  0.00    +0.000 A 
ATOM     28  C   UNL     1      49.037   7.218  17.860  0.00  0.00    +0.000 A 
ATOM     29  C   UNL     1      49.064   6.998  16.478  0.00  0.00    +0.000 A 
ENDBRANCH  22  24
ENDBRANCH  17  18
ENDBRANCH  16  17
ENDBRANCH   1  16
TORSDOF 7
ENDMDL
MODEL 9
REMARK VINA RESULT:    -6.534      3.776      8.227
REMARK INTER + INTRA:         -10.213
REMARK INTER:                  -9.514
REMARK INTRA:                  -0.699
REMARK UNBOUND:                -1.006
REMARK  Name = 
REMARK  8 active torsions:
REMARK  status: ('A' for Active; 'I' for Inactive)
REMARK    1  A    between atoms: C_1  and  C_2
REMARK    2  A    between atoms: C_2  and  C_3
REMARK    3  A    between atoms: C_3  and  N_4
REMARK    4  A    between atoms: N_4  and  C_5
REMARK    5  A    between atoms: C_5  and  C_6
REMARK    6  A    between atoms: C_6  and  C_7
REMARK    7  A    between atoms: C_11  and  C_12
REMARK    8  A    between atoms: C_22  and  C_23
REMARK                            x       y       z     vdW  Elec       q    Type
REMARK                         _______ _______ _______ _____ _____    ______ ____
ROOT
ATOM      1  N   UNL     1      44.256   4.888  10.352  0.00  0.00    +0.000 N 
ATOM      2  C   UNL     1      45.036   4.292   9.345  0.00  0.00    +0.000 A 
ATOM      3  C   UNL     1      44.819   2.987   8.896  0.00  0.00    +0.000 A 
ATOM      4  C   UNL     1      45.563   2.454   7.835  0.00  0.00    +0.000 A 
ATOM      5  C   UNL     1      46.528   3.232   7.207  0.00  0.00    +0.000 A 
ATOM      6  C   UNL     1      46.715   4.502   7.713  0.00  0.00    +0.000 A 
ATOM      7  N   UNL     1      46.010   5.025   8.755  0.00  0.00    +0.000 NA
ENDROOT
BRANCH   5   8
ATOM      8  C   UNL     1      47.276   2.663   6.058  0.00  0.00    +0.000 C 
ATOM      9  N   UNL     1      48.458   2.016   6.282  0.00  0.00    +0.000 N 
ATOM     10  O   UNL     1      46.846   2.773   4.917  0.00  0.00    +0.000 OA
ATOM     11  H   UNL     1      48.911   1.905   7.178  0.00  0.00    +0.000 HD
ATOM     12  H   UNL     1      48.946   1.672   5.469  0.00  0.00    +0.000 HD
ENDBRANCH   5   8
BRANCH   1  13
ATOM     13  C   UNL     1      43.268   4.052  11.046  0.00  0.00    +0.000 C 
BRANCH  13  15
ATOM     14  C   UNL     1      43.173   4.297  13.603  0.00  0.00    +0.000 C 
ATOM     15  C   UNL     1      43.636   3.473  12.412  0.00  0.00    +0.000 C 
ENDBRANCH  13  15
ENDBRANCH   1  13
BRANCH   1  16
ATOM     16  C   UNL     1      44.846   6.093  10.974  0.00  0.00    +0.000 C 
BRANCH  16  17
ATOM     17  C   UNL     1      46.091   5.720  11.804  0.00  0.00    +0.000 C 
BRANCH  17  18
ATOM     18  C   UNL     1      46.870   6.826  12.487  0.00  0.00    +0.000 A 
ATOM     19  C   UNL     1      47.553   6.680  13.693  0.00  0.00    +0.000 A 
ATOM     20  C   UNL     1      48.157   7.793  14.288  0.00  0.00    +0.000 A 
ATOM     21  C   UNL     1      48.098   9.051  13.676  0.00  0.00    +0.000 A 
ATOM     22  C   UNL     1      47.461   9.228  12.439  0.00  0.00    +0.000 A 
ATOM     23  C   UNL     1      46.828   8.100  11.887  0.00  0.00    +0.000 A 
BRANCH  22  24
ATOM     24  C   UNL     1      47.518  10.507  11.688  0.00  0.00    +0.000 A 
ATOM     25  C   UNL     1      48.641  10.834  10.904  0.00  0.00    +0.000 A 
ATOM     26  C   UNL     1      48.658  11.965  10.084  0.00  0.00    +0.000 A 
ATOM     27  C   UNL     1      47.549  12.800  10.023  0.00  0.00    +0.000 A 
ATOM     28  C   UNL     1      46.434  12.521  10.807  0.00  0.00    +0.000 A 
ATOM     29  C   UNL     1      46.427  11.395  11.639  0.00  0.00    +0.000 A 
ENDBRANCH  22  24
ENDBRANCH  17  18
ENDBRANCH  16  17
ENDBRANCH   1  16
TORSDOF 7
ENDMDL
