MODEL 1
REMARK VINA RESULT:    -8.706      0.000      0.000
REMARK INTER + INTRA:         -12.908
REMARK INTER:                 -11.760
REMARK INTRA:                  -1.148
REMARK UNBOUND:                -1.148
REMARK  Name = 
REMARK  7 active torsions:
REMARK  status: ('A' for Active; 'I' for Inactive)
REMARK    1  A    between atoms: C_1  and  C_2
REMARK    2  A    between atoms: C_6  and  C_7
REMARK    3  A    between atoms: C_7  and  N_8
REMARK    4  A    between atoms: N_8  and  C_9
REMARK    5  A    between atoms: C_12  and  C_13
REMARK    6  A    between atoms: C_13  and  N_14
REMARK    7  A    between atoms: C_15  and  C_17
REMARK                            x       y       z     vdW  Elec       q    Type
REMARK                         _______ _______ _______ _____ _____    ______ ____
ROOT
ATOM      1  C   UNL     1      44.801   5.055  10.846  0.00  0.00    +0.000 A 
ATOM      2  C   UNL     1      45.868   5.788  10.314  0.00  0.00    +0.000 A 
ATOM      3  C   UNL     1      46.542   6.747  11.079  0.00  0.00    +0.000 A 
ATOM      4  C   UNL     1      46.146   7.008  12.393  0.00  0.00    +0.000 A 
ATOM      5  C   UNL     1      45.035   6.326  12.905  0.00  0.00    +0.000 A 
ATOM      6  C   UNL     1      44.372   5.365  12.140  0.00  0.00    +0.000 A 
ENDROOT
BRANCH   1   7
ATOM      7  N   UNL     1      44.181   4.103  10.027  0.00  0.00    +0.000 N 
ATOM      8  H   UNL     1      44.405   3.162  10.345  0.00  0.00    +0.000 HD
BRANCH   7   9
ATOM      9  C   UNL     1      44.339   4.228   8.581  0.00  0.00    +0.000 C 
BRANCH   9  15
ATOM     10  C   UNL     1      47.780   2.668   5.259  0.00  0.00    +0.000 C 
ATOM     11  C   UNL     1      46.940   2.389   6.468  0.00  0.00    +0.000 A 
ATOM     12  C   UNL     1      47.032   1.172   7.151  0.00  0.00    +0.000 A 
ATOM     13  C   UNL     1      46.242   0.933   8.276  0.00  0.00    +0.000 A 
ATOM     14  C   UNL     1      45.353   1.909   8.733  0.00  0.00    +0.000 A 
ATOM     15  C   UNL     1      45.245   3.134   8.066  0.00  0.00    +0.000 A 
ATOM     16  C   UNL     1      46.049   3.363   6.937  0.00  0.00    +0.000 A 
ENDBRANCH   9  15
ENDBRANCH   7   9
ENDBRANCH   1   7
BRANCH   4  17
ATOM     17  C   UNL     1      46.860   8.030  13.234  0.00  0.00    +0.000 C 
BRANCH  17  18
ATOM     18  N   UNL     1      47.345   7.449  14.459  0.00  0.00    +0.000 N 
ATOM     19  C   UNL     1      48.531   6.762  14.485  0.00  0.00    +0.000 C 
ATOM     20  O   UNL     1      49.241   6.658  13.486  0.00  0.00    +0.000 OA
ATOM     21  H   UNL     1      46.687   7.350  15.227  0.00  0.00    +0.000 HD
BRANCH  19  22
ATOM     22  C   UNL     1      48.948   6.199  15.775  0.00  0.00    +0.000 A 
ATOM     23  C   UNL     1      50.011   6.775  16.455  0.00  0.00    +0.000 A 
ATOM     24  S   UNL     1      50.364   6.020  17.944  0.00  0.00    +0.000 S 
ATOM     25  C   UNL     1      49.133   4.868  17.711  0.00  0.00    +0.000 A 
ATOM     26  N   UNL     1      48.919   3.884  18.624  0.00  0.00    +0.000 NA
ATOM     27  C   UNL     1      47.975   3.062  18.310  0.00  0.00    +0.000 A 
ATOM     28  N   UNL     1      47.218   3.142  17.170  0.00  0.00    +0.000 N 
ATOM     29  C   UNL     1      47.377   4.138  16.234  0.00  0.00    +0.000 A 
ATOM     30  O   UNL     1      46.649   4.209  15.250  0.00  0.00    +0.000 OA
ATOM     31  C   UNL     1      48.443   5.075  16.528  0.00  0.00    +0.000 A 
ATOM     32  H   UNL     1      46.483   2.474  16.991  0.00  0.00    +0.000 HD
ENDBRANCH  19  22
ENDBRANCH  17  18
ENDBRANCH   4  17
TORSDOF 6
ENDMDL
MODEL 2
REMARK VINA RESULT:    -8.402      2.054      2.572
REMARK INTER + INTRA:         -12.496
REMARK INTER:                 -11.631
REMARK INTRA:                  -0.865
REMARK UNBOUND:                -1.148
REMARK  Name = 
REMARK  7 active torsions:
REMARK  status: ('A' for Active; 'I' for Inactive)
REMARK    1  A    between atoms: C_1  and  C_2
REMARK    2  A    between atoms: C_6  and  C_7
REMARK    3  A    between atoms: C_7  and  N_8
REMARK    4  A    between atoms: N_8  and  C_9
REMARK    5  A    between atoms: C_12  and  C_13
REMARK    6  A    between atoms: C_13  and  N_14
REMARK    7  A    between atoms: C_15  and  C_17
REMARK                            x       y       z     vdW  Elec       q    Type
REMARK                         _______ _______ _______ _____ _____    ______ ____
ROOT
ATOM      1  C   UNL     1      45.471   3.919  12.201  0.00  0.00    +0.000 A 
ATOM      2  C   UNL     1      45.510   5.250  11.768  0.00  0.00    +0.000 A 
ATOM      3  C   UNL     1      46.409   6.167  12.325  0.00  0.00    +0.000 A 
ATOM      4  C   UNL     1      47.276   5.775  13.348  0.00  0.00    +0.000 A 
ATOM      5  C   UNL     1      47.191   4.464  13.831  0.00  0.00    +0.000 A 
ATOM      6  C   UNL     1      46.299   3.550  13.265  0.00  0.00    +0.000 A 
ENDROOT
BRANCH   1   7
ATOM      7  N   UNL     1      44.555   3.054  11.589  0.00  0.00    +0.000 N 
ATOM      8  H   UNL     1      44.923   2.105  11.569  0.00  0.00    +0.000 HD
BRANCH   7   9
ATOM      9  C   UNL     1      44.001   3.437  10.294  0.00  0.00    +0.000 C 
BRANCH   9  15
ATOM     10  C   UNL     1      46.767   0.173   7.649  0.00  0.00    +0.000 C 
ATOM     11  C   UNL     1      46.334   1.586   7.899  0.00  0.00    +0.000 A 
ATOM     12  C   UNL     1      46.800   2.639   7.106  0.00  0.00    +0.000 A 
ATOM     13  C   UNL     1      46.384   3.948   7.356  0.00  0.00    +0.000 A 
ATOM     14  C   UNL     1      45.494   4.217   8.399  0.00  0.00    +0.000 A 
ATOM     15  C   UNL     1      45.014   3.178   9.204  0.00  0.00    +0.000 A 
ATOM     16  C   UNL     1      45.439   1.865   8.940  0.00  0.00    +0.000 A 
ENDBRANCH   9  15
ENDBRANCH   7   9
ENDBRANCH   1   7
BRANCH   4  17
ATOM     17  C   UNL     1      48.253   6.743  13.957  0.00  0.00    +0.000 C 
BRANCH  17  18
ATOM     18  N   UNL     1      48.001   6.920  15.364  0.00  0.00    +0.000 N 
ATOM     19  C   UNL     1      48.959   6.597  16.291  0.00  0.00    +0.000 C 
ATOM     20  O   UNL     1      50.071   6.193  15.958  0.00  0.00    +0.000 OA
ATOM     21  H   UNL     1      47.038   7.053  15.657  0.00  0.00    +0.000 HD
BRANCH  19  22
ATOM     22  C   UNL     1      48.616   6.805  17.703  0.00  0.00    +0.000 A 
ATOM     23  C   UNL     1      48.289   8.080  18.140  0.00  0.00    +0.000 A 
ATOM     24  S   UNL     1      47.899   8.158  19.799  0.00  0.00    +0.000 S 
ATOM     25  C   UNL     1      48.196   6.495  20.000  0.00  0.00    +0.000 A 
ATOM     26  N   UNL     1      48.077   5.909  21.222  0.00  0.00    +0.000 NA
ATOM     27  C   UNL     1      48.359   4.649  21.238  0.00  0.00    +0.000 A 
ATOM     28  N   UNL     1      48.738   3.920  20.141  0.00  0.00    +0.000 N 
ATOM     29  C   UNL     1      48.841   4.462  18.881  0.00  0.00    +0.000 A 
ATOM     30  O   UNL     1      49.135   3.770  17.912  0.00  0.00    +0.000 OA
ATOM     31  C   UNL     1      48.558   5.883  18.812  0.00  0.00    +0.000 A 
ATOM     32  H   UNL     1      48.931   2.933  20.220  0.00  0.00    +0.000 HD
ENDBRANCH  19  22
ENDBRANCH  17  18
ENDBRANCH   4  17
TORSDOF 6
ENDMDL
MODEL 3
REMARK VINA RESULT:    -8.222      2.472      3.134
REMARK INTER + INTRA:         -12.254
REMARK INTER:                 -11.109
REMARK INTRA:                  -1.145
REMARK UNBOUND:                -1.148
REMARK  Name = 
REMARK  7 active torsions:
REMARK  status: ('A' for Active; 'I' for Inactive)
REMARK    1  A    between atoms: C_1  and  C_2
REMARK    2  A    between atoms: C_6  and  C_7
REMARK    3  A    between atoms: C_7  and  N_8
REMARK    4  A    between atoms: N_8  and  C_9
REMARK    5  A    between atoms: C_12  and  C_13
REMARK    6  A    between atoms: C_13  and  N_14
REMARK    7  A    between atoms: C_15  and  C_17
REMARK                            x       y       z     vdW  Elec       q    Type
REMARK                         _______ _______ _______ _____ _____    ______ ____
ROOT
ATOM      1  C   UNL     1      45.300   4.127  12.018  0.00  0.00    +0.000 A 
ATOM      2  C   UNL     1      46.126   3.554  12.992  0.00  0.00    +0.000 A 
ATOM      3  C   UNL     1      47.043   4.329  13.713  0.00  0.00    +0.000 A 
ATOM      4  C   UNL     1      47.168   5.696  13.457  0.00  0.00    +0.000 A 
ATOM      5  C   UNL     1      46.393   6.259  12.436  0.00  0.00    +0.000 A 
ATOM      6  C   UNL     1      45.474   5.484  11.726  0.00  0.00    +0.000 A 
ENDROOT
BRANCH   1   7
ATOM      7  N   UNL     1      44.397   3.295  11.346  0.00  0.00    +0.000 N 
ATOM      8  H   UNL     1      44.708   2.327  11.390  0.00  0.00    +0.000 HD
BRANCH   7   9
ATOM      9  C   UNL     1      43.994   3.664   9.992  0.00  0.00    +0.000 C 
BRANCH   9  15
ATOM     10  C   UNL     1      46.725   0.101   7.722  0.00  0.00    +0.000 C 
ATOM     11  C   UNL     1      46.384   1.551   7.887  0.00  0.00    +0.000 A 
ATOM     12  C   UNL     1      47.004   2.535   7.110  0.00  0.00    +0.000 A 
ATOM     13  C   UNL     1      46.671   3.880   7.279  0.00  0.00    +0.000 A 
ATOM     14  C   UNL     1      45.713   4.256   8.224  0.00  0.00    +0.000 A 
ATOM     15  C   UNL     1      45.080   3.287   9.011  0.00  0.00    +0.000 A 
ATOM     16  C   UNL     1      45.421   1.937   8.829  0.00  0.00    +0.000 A 
ENDBRANCH   9  15
ENDBRANCH   7   9
ENDBRANCH   1   7
BRANCH   4  17
ATOM     17  C   UNL     1      48.143   6.547  14.223  0.00  0.00    +0.000 C 
BRANCH  17  18
ATOM     18  N   UNL     1      47.991   6.361  15.643  0.00  0.00    +0.000 N 
ATOM     19  C   UNL     1      49.088   6.170  16.444  0.00  0.00    +0.000 C 
ATOM     20  O   UNL     1      50.231   6.195  15.993  0.00  0.00    +0.000 OA
ATOM     21  H   UNL     1      47.064   6.135  15.993  0.00  0.00    +0.000 HD
BRANCH  19  22
ATOM     22  C   UNL     1      48.840   5.984  17.879  0.00  0.00    +0.000 A 
ATOM     23  C   UNL     1      49.121   4.757  18.462  0.00  0.00    +0.000 A 
ATOM     24  S   UNL     1      48.798   4.701  20.136  0.00  0.00    +0.000 S 
ATOM     25  C   UNL     1      48.230   6.305  20.132  0.00  0.00    +0.000 A 
ATOM     26  N   UNL     1      47.756   6.879  21.271  0.00  0.00    +0.000 NA
ATOM     27  C   UNL     1      47.331   8.089  21.120  0.00  0.00    +0.000 A 
ATOM     28  N   UNL     1      47.347   8.780  19.937  0.00  0.00    +0.000 N 
ATOM     29  C   UNL     1      47.845   8.252  18.768  0.00  0.00    +0.000 A 
ATOM     30  O   UNL     1      47.890   8.916  17.738  0.00  0.00    +0.000 OA
ATOM     31  C   UNL     1      48.314   6.884  18.877  0.00  0.00    +0.000 A 
ATOM     32  H   UNL     1      47.012   9.731  19.891  0.00  0.00    +0.000 HD
ENDBRANCH  19  22
ENDBRANCH  17  18
ENDBRANCH   4  17
TORSDOF 6
ENDMDL
MODEL 4
REMARK VINA RESULT:    -7.945      1.861      2.466
REMARK INTER + INTRA:         -11.879
REMARK INTER:                 -10.868
REMARK INTRA:                  -1.012
REMARK UNBOUND:                -1.148
REMARK  Name = 
REMARK  7 active torsions:
REMARK  status: ('A' for Active; 'I' for Inactive)
REMARK    1  A    between atoms: C_1  and  C_2
REMARK    2  A    between atoms: C_6  and  C_7
REMARK    3  A    between atoms: C_7  and  N_8
REMARK    4  A    between atoms: N_8  and  C_9
REMARK    5  A    between atoms: C_12  and  C_13
REMARK    6  A    between atoms: C_13  and  N_14
REMARK    7  A    between atoms: C_15  and  C_17
REMARK                            x       y       z     vdW  Elec       q    Type
REMARK                         _______ _______ _______ _____ _____    ______ ____
ROOT
ATOM      1  C   UNL     1      45.083   4.775  11.717  0.00  0.00    +0.000 A 
ATOM      2  C   UNL     1      44.514   5.912  11.131  0.00  0.00    +0.000 A 
ATOM      3  C   UNL     1      44.922   7.199  11.501  0.00  0.00    +0.000 A 
ATOM      4  C   UNL     1      45.896   7.376  12.486  0.00  0.00    +0.000 A 
ATOM      5  C   UNL     1      46.416   6.243  13.123  0.00  0.00    +0.000 A 
ATOM      6  C   UNL     1      46.013   4.962  12.744  0.00  0.00    +0.000 A 
ENDROOT
BRANCH   1   7
ATOM      7  N   UNL     1      44.636   3.519  11.288  0.00  0.00    +0.000 N 
ATOM      8  H   UNL     1      45.360   2.818  11.431  0.00  0.00    +0.000 HD
BRANCH   7   9
ATOM      9  C   UNL     1      44.046   3.413   9.957  0.00  0.00    +0.000 C 
BRANCH   9  15
ATOM     10  C   UNL     1      46.820  -0.081   7.633  0.00  0.00    +0.000 C 
ATOM     11  C   UNL     1      46.439   1.359   7.798  0.00  0.00    +0.000 A 
ATOM     12  C   UNL     1      47.004   2.356   6.996  0.00  0.00    +0.000 A 
ATOM     13  C   UNL     1      46.634   3.691   7.165  0.00  0.00    +0.000 A 
ATOM     14  C   UNL     1      45.692   4.044   8.135  0.00  0.00    +0.000 A 
ATOM     15  C   UNL     1      45.113   3.062   8.948  0.00  0.00    +0.000 A 
ATOM     16  C   UNL     1      45.493   1.722   8.765  0.00  0.00    +0.000 A 
ENDBRANCH   9  15
ENDBRANCH   7   9
ENDBRANCH   1   7
BRANCH   4  17
ATOM     17  C   UNL     1      46.351   8.750  12.895  0.00  0.00    +0.000 C 
BRANCH  17  18
ATOM     18  N   UNL     1      46.806   8.762  14.261  0.00  0.00    +0.000 N 
ATOM     19  C   UNL     1      48.146   8.775  14.551  0.00  0.00    +0.000 C 
ATOM     20  O   UNL     1      48.999   8.822  13.668  0.00  0.00    +0.000 OA
ATOM     21  H   UNL     1      46.135   8.519  14.984  0.00  0.00    +0.000 HD
BRANCH  19  22
ATOM     22  C   UNL     1      48.521   8.782  15.971  0.00  0.00    +0.000 A 
ATOM     23  C   UNL     1      48.519   9.982  16.666  0.00  0.00    +0.000 A 
ATOM     24  S   UNL     1      48.960   9.827  18.307  0.00  0.00    +0.000 S 
ATOM     25  C   UNL     1      49.210   8.152  18.134  0.00  0.00    +0.000 A 
ATOM     26  N   UNL     1      49.641   7.401  19.183  0.00  0.00    +0.000 NA
ATOM     27  C   UNL     1      49.817   6.152  18.906  0.00  0.00    +0.000 A 
ATOM     28  N   UNL     1      49.589   5.585  17.680  0.00  0.00    +0.000 N 
ATOM     29  C   UNL     1      49.123   6.298  16.600  0.00  0.00    +0.000 A 
ATOM     30  O   UNL     1      48.883   5.749  15.529  0.00  0.00    +0.000 OA
ATOM     31  C   UNL     1      48.932   7.714  16.851  0.00  0.00    +0.000 A 
ATOM     32  H   UNL     1      49.732   4.597  17.534  0.00  0.00    +0.000 HD
ENDBRANCH  19  22
ENDBRANCH  17  18
ENDBRANCH   4  17
TORSDOF 6
ENDMDL
MODEL 5
REMARK VINA RESULT:    -7.764      1.192      1.697
REMARK INTER + INTRA:         -11.635
REMARK INTER:                 -10.397
REMARK INTRA:                  -1.237
REMARK UNBOUND:                -1.148
REMARK  Name = 
REMARK  7 active torsions:
REMARK  status: ('A' for Active; 'I' for Inactive)
REMARK    1  A    between atoms: C_1  and  C_2
REMARK    2  A    between atoms: C_6  and  C_7
REMARK    3  A    between atoms: C_7  and  N_8
REMARK    4  A    between atoms: N_8  and  C_9
REMARK    5  A    between atoms: C_12  and  C_13
REMARK    6  A    between atoms: C_13  and  N_14
REMARK    7  A    between atoms: C_15  and  C_17
REMARK                            x       y       z     vdW  Elec       q    Type
REMARK                         _______ _______ _______ _____ _____    ______ ____
ROOT
ATOM      1  C   UNL     1      45.311   6.807  11.260  0.00  0.00    +0.000 A 
ATOM      2  C   UNL     1      44.930   7.955  11.966  0.00  0.00    +0.000 A 
ATOM      3  C   UNL     1      45.772   8.529  12.925  0.00  0.00    +0.000 A 
ATOM      4  C   UNL     1      47.010   7.952  13.216  0.00  0.00    +0.000 A 
ATOM      5  C   UNL     1      47.364   6.766  12.563  0.00  0.00    +0.000 A 
ATOM      6  C   UNL     1      46.525   6.201  11.600  0.00  0.00    +0.000 A 
ENDROOT
BRANCH   1   7
ATOM      7  N   UNL     1      44.424   6.295  10.306  0.00  0.00    +0.000 N 
ATOM      8  H   UNL     1      43.736   6.998  10.048  0.00  0.00    +0.000 HD
BRANCH   7   9
ATOM      9  C   UNL     1      43.795   5.004  10.570  0.00  0.00    +0.000 C 
BRANCH   9  15
ATOM     10  C   UNL     1      46.750   3.779   6.689  0.00  0.00    +0.000 C 
ATOM     11  C   UNL     1      45.877   3.346   7.827  0.00  0.00    +0.000 A 
ATOM     12  C   UNL     1      45.687   1.993   8.123  0.00  0.00    +0.000 A 
ATOM     13  C   UNL     1      44.870   1.612   9.189  0.00  0.00    +0.000 A 
ATOM     14  C   UNL     1      44.238   2.580   9.973  0.00  0.00    +0.000 A 
ATOM     15  C   UNL     1      44.415   3.940   9.696  0.00  0.00    +0.000 A 
ATOM     16  C   UNL     1      45.242   4.310   8.622  0.00  0.00    +0.000 A 
ENDBRANCH   9  15
ENDBRANCH   7   9
ENDBRANCH   1   7
BRANCH   4  17
ATOM     17  C   UNL     1      47.932   8.556  14.239  0.00  0.00    +0.000 C 
BRANCH  17  18
ATOM     18  N   UNL     1      48.131   7.663  15.351  0.00  0.00    +0.000 N 
ATOM     19  C   UNL     1      49.309   6.974  15.491  0.00  0.00    +0.000 C 
ATOM     20  O   UNL     1      50.245   7.126  14.709  0.00  0.00    +0.000 OA
ATOM     21  H   UNL     1      47.312   7.375  15.878  0.00  0.00    +0.000 HD
BRANCH  19  22
ATOM     22  C   UNL     1      49.425   6.082  16.651  0.00  0.00    +0.000 A 
ATOM     23  C   UNL     1      50.425   6.311  17.585  0.00  0.00    +0.000 A 
ATOM     24  S   UNL     1      50.422   5.203  18.882  0.00  0.00    +0.000 S 
ATOM     25  C   UNL     1      49.108   4.351  18.217  0.00  0.00    +0.000 A 
ATOM     26  N   UNL     1      48.616   3.240  18.830  0.00  0.00    +0.000 NA
ATOM     27  C   UNL     1      47.639   2.675  18.205  0.00  0.00    +0.000 A 
ATOM     28  N   UNL     1      47.101   3.127  17.027  0.00  0.00    +0.000 N 
ATOM     29  C   UNL     1      47.544   4.261  16.388  0.00  0.00    +0.000 A 
ATOM     30  O   UNL     1      47.007   4.665  15.362  0.00  0.00    +0.000 OA
ATOM     31  C   UNL     1      48.659   4.922  17.038  0.00  0.00    +0.000 A 
ATOM     32  H   UNL     1      46.325   2.645  16.597  0.00  0.00    +0.000 HD
ENDBRANCH  19  22
ENDBRANCH  17  18
ENDBRANCH   4  17
TORSDOF 6
ENDMDL
MODEL 6
REMARK VINA RESULT:    -7.514      2.681      4.806
REMARK INTER + INTRA:         -11.298
REMARK INTER:                 -10.313
REMARK INTRA:                  -0.985
REMARK UNBOUND:                -1.148
REMARK  Name = 
REMARK  7 active torsions:
REMARK  status: ('A' for Active; 'I' for Inactive)
REMARK    1  A    between atoms: C_1  and  C_2
REMARK    2  A    between atoms: C_6  and  C_7
REMARK    3  A    between atoms: C_7  and  N_8
REMARK    4  A    between atoms: N_8  and  C_9
REMARK    5  A    between atoms: C_12  and  C_13
REMARK    6  A    between atoms: C_13  and  N_14
REMARK    7  A    between atoms: C_15  and  C_17
REMARK                            x       y       z     vdW  Elec       q    Type
REMARK                         _______ _______ _______ _____ _____    ______ ____
ROOT
ATOM      1  C   UNL     1      44.886   3.940  11.420  0.00  0.00    +0.000 A 
ATOM      2  C   UNL     1      44.900   5.326  11.623  0.00  0.00    +0.000 A 
ATOM      3  C   UNL     1      45.689   5.904  12.624  0.00  0.00    +0.000 A 
ATOM      4  C   UNL     1      46.467   5.103  13.462  0.00  0.00    +0.000 A 
ATOM      5  C   UNL     1      46.402   3.713  13.308  0.00  0.00    +0.000 A 
ATOM      6  C   UNL     1      45.620   3.141  12.302  0.00  0.00    +0.000 A 
ENDROOT
BRANCH   1   7
ATOM      7  N   UNL     1      44.083   3.432  10.392  0.00  0.00    +0.000 N 
ATOM      8  H   UNL     1      44.124   2.415  10.380  0.00  0.00    +0.000 HD
BRANCH   7   9
ATOM      9  C   UNL     1      44.244   3.988   9.051  0.00  0.00    +0.000 C 
BRANCH   9  15
ATOM     10  C   UNL     1      46.686  -0.222   7.777  0.00  0.00    +0.000 C 
ATOM     11  C   UNL     1      46.576   1.272   7.711  0.00  0.00    +0.000 A 
ATOM     12  C   UNL     1      47.484   2.035   6.972  0.00  0.00    +0.000 A 
ATOM     13  C   UNL     1      47.363   3.425   6.923  0.00  0.00    +0.000 A 
ATOM     14  C   UNL     1      46.329   4.066   7.610  0.00  0.00    +0.000 A 
ATOM     15  C   UNL     1      45.407   3.321   8.355  0.00  0.00    +0.000 A 
ATOM     16  C   UNL     1      45.540   1.923   8.393  0.00  0.00    +0.000 A 
ENDBRANCH   9  15
ENDBRANCH   7   9
ENDBRANCH   1   7
BRANCH   4  17
ATOM     17  C   UNL     1      47.326   5.705  14.540  0.00  0.00    +0.000 C 
BRANCH  17  18
ATOM     18  N   UNL     1      47.620   7.086  14.260  0.00  0.00    +0.000 N 
ATOM     19  C   UNL     1      48.633   7.424  13.400  0.00  0.00    +0.000 C 
ATOM     20  O   UNL     1      49.291   6.571  12.807  0.00  0.00    +0.000 OA
ATOM     21  H   UNL     1      47.232   7.788  14.884  0.00  0.00    +0.000 HD
BRANCH  19  22
ATOM     22  C   UNL     1      48.866   8.856  13.174  0.00  0.00    +0.000 A 
ATOM     23  C   UNL     1      50.121   9.388  13.436  0.00  0.00    +0.000 A 
ATOM     24  S   UNL     1      50.241  11.058  13.110  0.00  0.00    +0.000 S 
ATOM     25  C   UNL     1      48.605  11.137  12.647  0.00  0.00    +0.000 A 
ATOM     26  N   UNL     1      48.043  12.319  12.276  0.00  0.00    +0.000 NA
ATOM     27  C   UNL     1      46.790  12.242  11.978  0.00  0.00    +0.000 A 
ATOM     28  N   UNL     1      46.050  11.089  12.006  0.00  0.00    +0.000 N 
ATOM     29  C   UNL     1      46.582   9.866  12.344  0.00  0.00    +0.000 A 
ATOM     30  O   UNL     1      45.904   8.845  12.310  0.00  0.00    +0.000 OA
ATOM     31  C   UNL     1      47.985   9.901  12.712  0.00  0.00    +0.000 A 
ATOM     32  H   UNL     1      45.075  11.095  11.746  0.00  0.00    +0.000 HD
ENDBRANCH  19  22
ENDBRANCH  17  18
ENDBRANCH   4  17
TORSDOF 6
ENDMDL
MODEL 7
REMARK VINA RESULT:    -7.319      2.334      3.049
REMARK INTER + INTRA:         -11.034
REMARK INTER:                  -9.964
REMARK INTRA:                  -1.071
REMARK UNBOUND:                -1.148
REMARK  Name = 
REMARK  7 active torsions:
REMARK  status: ('A' for Active; 'I' for Inactive)
REMARK    1  A    between atoms: C_1  and  C_2
REMARK    2  A    between atoms: C_6  and  C_7
REMARK    3  A    between atoms: C_7  and  N_8
REMARK    4  A    between atoms: N_8  and  C_9
REMARK    5  A    between atoms: C_12  and  C_13
REMARK    6  A    between atoms: C_13  and  N_14
REMARK    7  A    between atoms: C_15  and  C_17
REMARK                            x       y       z     vdW  Elec       q    Type
REMARK                         _______ _______ _______ _____ _____    ______ ____
ROOT
ATOM      1  C   UNL     1      45.619   6.960  11.546  0.00  0.00    +0.000 A 
ATOM      2  C   UNL     1      45.348   8.130  12.266  0.00  0.00    +0.000 A 
ATOM      3  C   UNL     1      46.240   8.610  13.231  0.00  0.00    +0.000 A 
ATOM      4  C   UNL     1      47.417   7.913  13.515  0.00  0.00    +0.000 A 
ATOM      5  C   UNL     1      47.657   6.706  12.848  0.00  0.00    +0.000 A 
ATOM      6  C   UNL     1      46.769   6.237  11.878  0.00  0.00    +0.000 A 
ENDROOT
BRANCH   1   7
ATOM      7  N   UNL     1      44.688   6.546  10.585  0.00  0.00    +0.000 N 
ATOM      8  H   UNL     1      44.078   7.318  10.328  0.00  0.00    +0.000 HD
BRANCH   7   9
ATOM      9  C   UNL     1      43.927   5.327  10.841  0.00  0.00    +0.000 C 
BRANCH   9  15
ATOM     10  C   UNL     1      46.733   3.828   6.944  0.00  0.00    +0.000 C 
ATOM     11  C   UNL     1      45.822   3.481   8.083  0.00  0.00    +0.000 A 
ATOM     12  C   UNL     1      45.494   2.152   8.371  0.00  0.00    +0.000 A 
ATOM     13  C   UNL     1      44.645   1.850   9.436  0.00  0.00    +0.000 A 
ATOM     14  C   UNL     1      44.117   2.873  10.228  0.00  0.00    +0.000 A 
ATOM     15  C   UNL     1      44.433   4.210   9.958  0.00  0.00    +0.000 A 
ATOM     16  C   UNL     1      45.292   4.499   8.885  0.00  0.00    +0.000 A 
ENDBRANCH   9  15
ENDBRANCH   7   9
ENDBRANCH   1   7
BRANCH   4  17
ATOM     17  C   UNL     1      48.391   8.414  14.546  0.00  0.00    +0.000 C 
BRANCH  17  18
ATOM     18  N   UNL     1      48.206   7.742  15.806  0.00  0.00    +0.000 N 
ATOM     19  C   UNL     1      49.131   6.836  16.258  0.00  0.00    +0.000 C 
ATOM     20  O   UNL     1      50.163   6.599  15.634  0.00  0.00    +0.000 OA
ATOM     21  H   UNL     1      47.280   7.770  16.224  0.00  0.00    +0.000 HD
BRANCH  19  22
ATOM     22  C   UNL     1      48.860   6.195  17.550  0.00  0.00    +0.000 A 
ATOM     23  C   UNL     1      49.060   4.828  17.684  0.00  0.00    +0.000 A 
ATOM     24  S   UNL     1      48.719   4.234  19.246  0.00  0.00    +0.000 S 
ATOM     25  C   UNL     1      48.250   5.778  19.787  0.00  0.00    +0.000 A 
ATOM     26  N   UNL     1      47.802   5.964  21.058  0.00  0.00    +0.000 NA
ATOM     27  C   UNL     1      47.453   7.177  21.327  0.00  0.00    +0.000 A 
ATOM     28  N   UNL     1      47.521   8.223  20.444  0.00  0.00    +0.000 N 
ATOM     29  C   UNL     1      47.997   8.089  19.160  0.00  0.00    +0.000 A 
ATOM     30  O   UNL     1      48.091   9.056  18.412  0.00  0.00    +0.000 OA
ATOM     31  C   UNL     1      48.381   6.738  18.799  0.00  0.00    +0.000 A 
ATOM     32  H   UNL     1      47.245   9.153  20.724  0.00  0.00    +0.000 HD
ENDBRANCH  19  22
ENDBRANCH  17  18
ENDBRANCH   4  17
TORSDOF 6
ENDMDL
MODEL 8
REMARK VINA RESULT:    -7.180      3.080      8.368
REMARK INTER + INTRA:         -10.846
REMARK INTER:                  -9.319
REMARK INTRA:                  -1.527
REMARK UNBOUND:                -1.148
REMARK  Name = 
REMARK  7 active torsions:
REMARK  status: ('A' for Active; 'I' for Inactive)
REMARK    1  A    between atoms: C_1  and  C_2
REMARK    2  A    between atoms: C_6  and  C_7
REMARK    3  A    between atoms: C_7  and  N_8
REMARK    4  A    between atoms: N_8  and  C_9
REMARK    5  A    between atoms: C_12  and  C_13
REMARK    6  A    between atoms: C_13  and  N_14
REMARK    7  A    between atoms: C_15  and  C_17
REMARK                            x       y       z     vdW  Elec       q    Type
REMARK                         _______ _______ _______ _____ _____    ______ ____
ROOT
ATOM      1  C   UNL     1      49.685   7.984  15.878  0.00  0.00    +0.000 A 
ATOM      2  C   UNL     1      48.478   8.661  15.666  0.00  0.00    +0.000 A 
ATOM      3  C   UNL     1      47.853   8.653  14.414  0.00  0.00    +0.000 A 
ATOM      4  C   UNL     1      48.437   7.983  13.336  0.00  0.00    +0.000 A 
ATOM      5  C   UNL     1      49.678   7.365  13.526  0.00  0.00    +0.000 A 
ATOM      6  C   UNL     1      50.293   7.368  14.780  0.00  0.00    +0.000 A 
ENDROOT
BRANCH   1   7
ATOM      7  N   UNL     1      50.247   8.024  17.160  0.00  0.00    +0.000 N 
ATOM      8  H   UNL     1      51.234   7.778  17.122  0.00  0.00    +0.000 HD
BRANCH   7   9
ATOM      9  C   UNL     1      49.562   7.314  18.236  0.00  0.00    +0.000 C 
BRANCH   9  15
ATOM     10  C   UNL     1      47.272   2.899  17.481  0.00  0.00    +0.000 C 
ATOM     11  C   UNL     1      48.542   3.684  17.614  0.00  0.00    +0.000 A 
ATOM     12  C   UNL     1      49.791   3.072  17.470  0.00  0.00    +0.000 A 
ATOM     13  C   UNL     1      50.963   3.821  17.597  0.00  0.00    +0.000 A 
ATOM     14  C   UNL     1      50.897   5.190  17.865  0.00  0.00    +0.000 A 
ATOM     15  C   UNL     1      49.657   5.823  18.012  0.00  0.00    +0.000 A 
ATOM     16  C   UNL     1      48.487   5.058  17.879  0.00  0.00    +0.000 A 
ENDBRANCH   9  15
ENDBRANCH   7   9
ENDBRANCH   1   7
BRANCH   4  17
ATOM     17  C   UNL     1      47.779   7.959  11.983  0.00  0.00    +0.000 C 
BRANCH  17  18
ATOM     18  N   UNL     1      47.057   6.730  11.779  0.00  0.00    +0.000 N 
ATOM     19  C   UNL     1      45.703   6.672  11.986  0.00  0.00    +0.000 C 
ATOM     20  O   UNL     1      45.054   7.666  12.305  0.00  0.00    +0.000 OA
ATOM     21  H   UNL     1      47.596   5.871  11.718  0.00  0.00    +0.000 HD
BRANCH  19  22
ATOM     22  C   UNL     1      45.048   5.378  11.757  0.00  0.00    +0.000 A 
ATOM     23  C   UNL     1      44.355   4.776  12.797  0.00  0.00    +0.000 A 
ATOM     24  S   UNL     1      43.637   3.288  12.374  0.00  0.00    +0.000 S 
ATOM     25  C   UNL     1      44.265   3.375  10.795  0.00  0.00    +0.000 A 
ATOM     26  N   UNL     1      44.044   2.373   9.901  0.00  0.00    +0.000 NA
ATOM     27  C   UNL     1      44.601   2.554   8.751  0.00  0.00    +0.000 A 
ATOM     28  N   UNL     1      45.348   3.651   8.409  0.00  0.00    +0.000 N 
ATOM     29  C   UNL     1      45.571   4.702   9.268  0.00  0.00    +0.000 A 
ATOM     30  O   UNL     1      46.203   5.692   8.913  0.00  0.00    +0.000 OA
ATOM     31  C   UNL     1      44.986   4.538  10.585  0.00  0.00    +0.000 A 
ATOM     32  H   UNL     1      45.744   3.738   7.485  0.00  0.00    +0.000 HD
ENDBRANCH  19  22
ENDBRANCH  17  18
ENDBRANCH   4  17
TORSDOF 6
ENDMDL
MODEL 9
REMARK VINA RESULT:    -6.711      3.729      8.045
REMARK INTER + INTRA:         -10.213
REMARK INTER:                  -8.519
REMARK INTRA:                  -1.694
REMARK UNBOUND:                -1.148
REMARK  Name = 
REMARK  7 active torsions:
REMARK  status: ('A' for Active; 'I' for Inactive)
REMARK    1  A    between atoms: C_1  and  C_2
REMARK    2  A    between atoms: C_6  and  C_7
REMARK    3  A    between atoms: C_7  and  N_8
REMARK    4  A    between atoms: N_8  and  C_9
REMARK    5  A    between atoms: C_12  and  C_13
REMARK    6  A    between atoms: C_13  and  N_14
REMARK    7  A    between atoms: C_15  and  C_17
REMARK                            x       y       z     vdW  Elec       q    Type
REMARK                         _______ _______ _______ _____ _____    ______ ____
ROOT
ATOM      1  C   UNL     1      51.055   6.967  17.324  0.00  0.00    +0.000 A 
ATOM      2  C   UNL     1      50.170   7.865  17.933  0.00  0.00    +0.000 A 
ATOM      3  C   UNL     1      49.221   8.568  17.183  0.00  0.00    +0.000 A 
ATOM      4  C   UNL     1      49.151   8.403  15.798  0.00  0.00    +0.000 A 
ATOM      5  C   UNL     1      50.079   7.559  15.177  0.00  0.00    +0.000 A 
ATOM      6  C   UNL     1      51.018   6.853  15.931  0.00  0.00    +0.000 A 
ENDROOT
BRANCH   1   7
ATOM      7  N   UNL     1      51.970   6.288  18.138  0.00  0.00    +0.000 N 
ATOM      8  H   UNL     1      52.712   5.881  17.574  0.00  0.00    +0.000 HD
BRANCH   7   9
ATOM      9  C   UNL     1      51.451   5.328  19.109  0.00  0.00    +0.000 C 
BRANCH   9  15
ATOM     10  C   UNL     1      47.248   3.170  17.381  0.00  0.00    +0.000 C 
ATOM     11  C   UNL     1      48.740   3.149  17.525  0.00  0.00    +0.000 A 
ATOM     12  C   UNL     1      49.510   2.131  16.955  0.00  0.00    +0.000 A 
ATOM     13  C   UNL     1      50.898   2.131  17.099  0.00  0.00    +0.000 A 
ATOM     14  C   UNL     1      51.532   3.151  17.812  0.00  0.00    +0.000 A 
ATOM     15  C   UNL     1      50.781   4.181  18.391  0.00  0.00    +0.000 A 
ATOM     16  C   UNL     1      49.385   4.170  18.235  0.00  0.00    +0.000 A 
ENDBRANCH   9  15
ENDBRANCH   7   9
ENDBRANCH   1   7
BRANCH   4  17
ATOM     17  C   UNL     1      48.134   9.146  14.974  0.00  0.00    +0.000 C 
BRANCH  17  18
ATOM     18  N   UNL     1      47.181   8.241  14.385  0.00  0.00    +0.000 N 
ATOM     19  C   UNL     1      47.112   8.087  13.024  0.00  0.00    +0.000 C 
ATOM     20  O   UNL     1      47.881   8.674  12.267  0.00  0.00    +0.000 OA
ATOM     21  H   UNL     1      46.418   7.913  14.970  0.00  0.00    +0.000 HD
BRANCH  19  22
ATOM     22  C   UNL     1      46.108   7.147  12.510  0.00  0.00    +0.000 A 
ATOM     23  C   UNL     1      45.059   7.630  11.742  0.00  0.00    +0.000 A 
ATOM     24  S   UNL     1      43.986   6.417  11.204  0.00  0.00    +0.000 S 
ATOM     25  C   UNL     1      44.865   5.207  12.017  0.00  0.00    +0.000 A 
ATOM     26  N   UNL     1      44.453   3.911  11.992  0.00  0.00    +0.000 NA
ATOM     27  C   UNL     1      45.195   3.104  12.673  0.00  0.00    +0.000 A 
ATOM     28  N   UNL     1      46.318   3.473  13.367  0.00  0.00    +0.000 N 
ATOM     29  C   UNL     1      46.790   4.765  13.395  0.00  0.00    +0.000 A 
ATOM     30  O   UNL     1      47.827   5.052  13.985  0.00  0.00    +0.000 OA
ATOM     31  C   UNL     1      45.978   5.718  12.664  0.00  0.00    +0.000 A 
ATOM     32  H   UNL     1      46.863   2.787  13.868  0.00  0.00    +0.000 HD
ENDBRANCH  19  22
ENDBRANCH  17  18
ENDBRANCH   4  17
TORSDOF 6
ENDMDL
