MODEL 1
REMARK VINA RESULT:    -8.003      0.000      0.000
REMARK INTER + INTRA:         -11.440
REMARK INTER:                 -10.809
REMARK INTRA:                  -0.630
REMARK UNBOUND:                -0.630
REMARK  Name = 
REMARK  6 active torsions:
REMARK  status: ('A' for Active; 'I' for Inactive)
REMARK    1  A    between atoms: C_2  and  C_3
REMARK    2  A    between atoms: C_3  and  C_4
REMARK    3  A    between atoms: C_8  and  N_9
REMARK    4  A    between atoms: N_9  and  C_10
REMARK    5  A    between atoms: C_10  and  C_11
REMARK    6  A    between atoms: C_15  and  C_16
REMARK                            x       y       z     vdW  Elec       q    Type
REMARK                         _______ _______ _______ _____ _____    ______ ____
ROOT
ATOM      1  C   UNL     1      44.105   5.121  11.821  0.00  0.00    +0.000 C 
ATOM      2  C   UNL     1      43.185   4.315  12.736  0.00  0.00    +0.000 C 
ATOM      3  C   UNL     1      43.010   5.789  12.646  0.00  0.00    +0.000 C 
ENDROOT
BRANCH   1   4
ATOM      4  C   UNL     1      45.525   5.465  12.289  0.00  0.00    +0.000 A 
ATOM      5  C   UNL     1      46.298   6.421  11.613  0.00  0.00    +0.000 A 
ATOM      6  C   UNL     1      47.521   6.864  12.126  0.00  0.00    +0.000 A 
ATOM      7  C   UNL     1      47.985   6.379  13.349  0.00  0.00    +0.000 A 
ATOM      8  C   UNL     1      47.258   5.424  14.066  0.00  0.00    +0.000 A 
ATOM      9  C   UNL     1      46.062   4.948  13.483  0.00  0.00    +0.000 A 
BRANCH   8  10
ATOM     10  C   UNL     1      47.660   4.979  15.419  0.00  0.00    +0.000 A 
ATOM     11  C   UNL     1      47.274   3.746  15.951  0.00  0.00    +0.000 A 
ATOM     12  C   UNL     1      47.760   3.316  17.200  0.00  0.00    +0.000 A 
ATOM     13  C   UNL     1      48.647   4.105  17.932  0.00  0.00    +0.000 A 
ATOM     14  C   UNL     1      49.024   5.338  17.430  0.00  0.00    +0.000 A 
ATOM     15  C   UNL     1      48.506   5.756  16.203  0.00  0.00    +0.000 A 
ENDBRANCH   8  10
ENDBRANCH   1   4
BRANCH   1  16
ATOM     16  N   UNL     1      43.936   4.995  10.354  0.00  0.00    +0.000 N 
ATOM     17  H   UNL     1      43.081   5.352   9.941  0.00  0.00    +0.000 HD
BRANCH  16  22
ATOM     18  C   UNL     1      45.904   3.260   7.697  0.00  0.00    +0.000 A 
ATOM     19  C   UNL     1      45.632   1.949   8.047  0.00  0.00    +0.000 A 
ATOM     20  N   UNL     1      44.863   1.608   9.105  0.00  0.00    +0.000 NA
ATOM     21  C   UNL     1      44.337   2.627   9.841  0.00  0.00    +0.000 A 
ATOM     22  C   UNL     1      44.564   3.982   9.605  0.00  0.00    +0.000 A 
ATOM     23  C   UNL     1      45.352   4.264   8.499  0.00  0.00    +0.000 A 
BRANCH  18  24
ATOM     24  C   UNL     1      46.696   3.656   6.483  0.00  0.00    +0.000 C 
BRANCH  24  26
ATOM     25  N   UNL     1      48.439   1.590   5.832  0.00  0.00    +0.000 NA
ATOM     26  C   UNL     1      47.648   2.527   6.127  0.00  0.00    +0.000 C 
ENDBRANCH  24  26
ENDBRANCH  18  24
ENDBRANCH  16  22
ENDBRANCH   1  16
TORSDOF 6
ENDMDL
MODEL 2
REMARK VINA RESULT:    -7.834      2.690      7.537
REMARK INTER + INTRA:         -11.212
REMARK INTER:                 -10.083
REMARK INTRA:                  -1.130
REMARK UNBOUND:                -0.630
REMARK  Name = 
REMARK  6 active torsions:
REMARK  status: ('A' for Active; 'I' for Inactive)
REMARK    1  A    between atoms: C_2  and  C_3
REMARK    2  A    between atoms: C_3  and  C_4
REMARK    3  A    between atoms: C_8  and  N_9
REMARK    4  A    between atoms: N_9  and  C_10
REMARK    5  A    between atoms: C_10  and  C_11
REMARK    6  A    between atoms: C_15  and  C_16
REMARK                            x       y       z     vdW  Elec       q    Type
REMARK                         _______ _______ _______ _____ _____    ______ ____
ROOT
ATOM      1  C   UNL     1      46.212   7.293  12.048  0.00  0.00    +0.000 C 
ATOM      2  C   UNL     1      45.937   8.744  11.655  0.00  0.00    +0.000 C 
ATOM      3  C   UNL     1      45.451   8.243  12.968  0.00  0.00    +0.000 C 
ENDROOT
BRANCH   1   4
ATOM      4  C   UNL     1      45.342   6.173  11.463  0.00  0.00    +0.000 A 
ATOM      5  C   UNL     1      43.959   6.133  11.700  0.00  0.00    +0.000 A 
ATOM      6  C   UNL     1      43.134   5.220  11.037  0.00  0.00    +0.000 A 
ATOM      7  C   UNL     1      43.672   4.342  10.097  0.00  0.00    +0.000 A 
ATOM      8  C   UNL     1      45.043   4.335   9.822  0.00  0.00    +0.000 A 
ATOM      9  C   UNL     1      45.857   5.224  10.560  0.00  0.00    +0.000 A 
BRANCH   8  10
ATOM     10  C   UNL     1      45.629   3.504   8.746  0.00  0.00    +0.000 A 
ATOM     11  C   UNL     1      46.240   4.056   7.617  0.00  0.00    +0.000 A 
ATOM     12  C   UNL     1      46.874   3.233   6.667  0.00  0.00    +0.000 A 
ATOM     13  C   UNL     1      46.919   1.850   6.835  0.00  0.00    +0.000 A 
ATOM     14  C   UNL     1      46.302   1.285   7.937  0.00  0.00    +0.000 A 
ATOM     15  C   UNL     1      45.654   2.117   8.850  0.00  0.00    +0.000 A 
ENDBRANCH   8  10
ENDBRANCH   1   4
BRANCH   1  16
ATOM     16  N   UNL     1      47.599   6.902  12.393  0.00  0.00    +0.000 N 
ATOM     17  H   UNL     1      48.174   6.495  11.663  0.00  0.00    +0.000 HD
BRANCH  16  22
ATOM     18  C   UNL     1      47.845   5.058  15.631  0.00  0.00    +0.000 A 
ATOM     19  C   UNL     1      48.608   5.968  16.341  0.00  0.00    +0.000 A 
ATOM     20  N   UNL     1      49.055   7.131  15.816  0.00  0.00    +0.000 NA
ATOM     21  C   UNL     1      48.717   7.396  14.523  0.00  0.00    +0.000 A 
ATOM     22  C   UNL     1      47.982   6.545  13.700  0.00  0.00    +0.000 A 
ATOM     23  C   UNL     1      47.543   5.374  14.302  0.00  0.00    +0.000 A 
BRANCH  18  24
ATOM     24  C   UNL     1      47.279   3.797  16.220  0.00  0.00    +0.000 C 
BRANCH  24  26
ATOM     25  N   UNL     1      49.232   1.818  16.153  0.00  0.00    +0.000 NA
ATOM     26  C   UNL     1      48.346   2.716  16.184  0.00  0.00    +0.000 C 
ENDBRANCH  24  26
ENDBRANCH  18  24
ENDBRANCH  16  22
ENDBRANCH   1  16
TORSDOF 6
ENDMDL
MODEL 3
REMARK VINA RESULT:    -7.637      3.631      7.692
REMARK INTER + INTRA:         -10.946
REMARK INTER:                  -9.865
REMARK INTRA:                  -1.082
REMARK UNBOUND:                -0.630
REMARK  Name = 
REMARK  6 active torsions:
REMARK  status: ('A' for Active; 'I' for Inactive)
REMARK    1  A    between atoms: C_2  and  C_3
REMARK    2  A    between atoms: C_3  and  C_4
REMARK    3  A    between atoms: C_8  and  N_9
REMARK    4  A    between atoms: N_9  and  C_10
REMARK    5  A    between atoms: C_10  and  C_11
REMARK    6  A    between atoms: C_15  and  C_16
REMARK                            x       y       z     vdW  Elec       q    Type
REMARK                         _______ _______ _______ _____ _____    ______ ____
ROOT
ATOM      1  C   UNL     1      46.049   7.240  12.488  0.00  0.00    +0.000 C 
ATOM      2  C   UNL     1      47.307   6.851  13.262  0.00  0.00    +0.000 C 
ATOM      3  C   UNL     1      47.439   7.371  11.875  0.00  0.00    +0.000 C 
ENDROOT
BRANCH   1   4
ATOM      4  C   UNL     1      45.190   6.146  11.841  0.00  0.00    +0.000 A 
ATOM      5  C   UNL     1      43.808   6.078  12.075  0.00  0.00    +0.000 A 
ATOM      6  C   UNL     1      42.991   5.195  11.362  0.00  0.00    +0.000 A 
ATOM      7  C   UNL     1      43.538   4.378  10.373  0.00  0.00    +0.000 A 
ATOM      8  C   UNL     1      44.909   4.401  10.098  0.00  0.00    +0.000 A 
ATOM      9  C   UNL     1      45.714   5.255  10.886  0.00  0.00    +0.000 A 
BRANCH   8  10
ATOM     10  C   UNL     1      45.502   3.639   8.977  0.00  0.00    +0.000 A 
ATOM     11  C   UNL     1      46.092   4.260   7.872  0.00  0.00    +0.000 A 
ATOM     12  C   UNL     1      46.735   3.500   6.877  0.00  0.00    +0.000 A 
ATOM     13  C   UNL     1      46.809   2.112   6.974  0.00  0.00    +0.000 A 
ATOM     14  C   UNL     1      46.213   1.478   8.050  0.00  0.00    +0.000 A 
ATOM     15  C   UNL     1      45.556   2.249   9.009  0.00  0.00    +0.000 A 
ENDBRANCH   8  10
ENDBRANCH   1   4
BRANCH   1  16
ATOM     16  N   UNL     1      45.315   8.463  12.894  0.00  0.00    +0.000 N 
ATOM     17  H   UNL     1      44.611   8.376  13.619  0.00  0.00    +0.000 HD
BRANCH  16  22
ATOM     18  C   UNL     1      43.838  10.701  10.296  0.00  0.00    +0.000 A 
ATOM     19  C   UNL     1      44.867  11.620  10.192  0.00  0.00    +0.000 A 
ATOM     20  N   UNL     1      45.997  11.556  10.931  0.00  0.00    +0.000 NA
ATOM     21  C   UNL     1      46.103  10.520  11.810  0.00  0.00    +0.000 A 
ATOM     22  C   UNL     1      45.123   9.553  12.025  0.00  0.00    +0.000 A 
ATOM     23  C   UNL     1      43.994   9.669  11.227  0.00  0.00    +0.000 A 
BRANCH  18  24
ATOM     24  C   UNL     1      42.610  10.716   9.431  0.00  0.00    +0.000 C 
BRANCH  24  26
ATOM     25  N   UNL     1      40.375  10.300  11.033  0.00  0.00    +0.000 NA
ATOM     26  C   UNL     1      41.389  10.488  10.306  0.00  0.00    +0.000 C 
ENDBRANCH  24  26
ENDBRANCH  18  24
ENDBRANCH  16  22
ENDBRANCH   1  16
TORSDOF 6
ENDMDL
MODEL 4
REMARK VINA RESULT:    -7.385      2.844      7.968
REMARK INTER + INTRA:         -10.605
REMARK INTER:                  -9.635
REMARK INTRA:                  -0.971
REMARK UNBOUND:                -0.630
REMARK  Name = 
REMARK  6 active torsions:
REMARK  status: ('A' for Active; 'I' for Inactive)
REMARK    1  A    between atoms: C_2  and  C_3
REMARK    2  A    between atoms: C_3  and  C_4
REMARK    3  A    between atoms: C_8  and  N_9
REMARK    4  A    between atoms: N_9  and  C_10
REMARK    5  A    between atoms: C_10  and  C_11
REMARK    6  A    between atoms: C_15  and  C_16
REMARK                            x       y       z     vdW  Elec       q    Type
REMARK                         _______ _______ _______ _____ _____    ______ ____
ROOT
ATOM      1  C   UNL     1      46.507   7.214  12.474  0.00  0.00    +0.000 C 
ATOM      2  C   UNL     1      46.648   8.653  11.979  0.00  0.00    +0.000 C 
ATOM      3  C   UNL     1      45.860   8.383  13.211  0.00  0.00    +0.000 C 
ENDROOT
BRANCH   1   4
ATOM      4  C   UNL     1      45.498   6.277  11.798  0.00  0.00    +0.000 A 
ATOM      5  C   UNL     1      44.117   6.461  11.964  0.00  0.00    +0.000 A 
ATOM      6  C   UNL     1      43.191   5.722  11.221  0.00  0.00    +0.000 A 
ATOM      7  C   UNL     1      43.628   4.799  10.272  0.00  0.00    +0.000 A 
ATOM      8  C   UNL     1      44.993   4.573  10.066  0.00  0.00    +0.000 A 
ATOM      9  C   UNL     1      45.899   5.286  10.882  0.00  0.00    +0.000 A 
BRANCH   8  10
ATOM     10  C   UNL     1      45.493   3.693   8.986  0.00  0.00    +0.000 A 
ATOM     11  C   UNL     1      46.086   4.190   7.822  0.00  0.00    +0.000 A 
ATOM     12  C   UNL     1      46.640   3.319   6.866  0.00  0.00    +0.000 A 
ATOM     13  C   UNL     1      46.621   1.939   7.061  0.00  0.00    +0.000 A 
ATOM     14  C   UNL     1      46.019   1.427   8.198  0.00  0.00    +0.000 A 
ATOM     15  C   UNL     1      45.451   2.308   9.117  0.00  0.00    +0.000 A 
ENDBRANCH   8  10
ENDBRANCH   1   4
BRANCH   1  16
ATOM     16  N   UNL     1      47.692   6.548  13.065  0.00  0.00    +0.000 N 
ATOM     17  H   UNL     1      48.428   6.242  12.437  0.00  0.00    +0.000 HD
BRANCH  16  22
ATOM     18  C   UNL     1      48.388   5.477  16.573  0.00  0.00    +0.000 A 
ATOM     19  C   UNL     1      47.634   4.317  16.599  0.00  0.00    +0.000 A 
ATOM     20  N   UNL     1      46.906   3.883  15.547  0.00  0.00    +0.000 NA
ATOM     21  C   UNL     1      46.939   4.641  14.416  0.00  0.00    +0.000 A 
ATOM     22  C   UNL     1      47.634   5.841  14.281  0.00  0.00    +0.000 A 
ATOM     23  C   UNL     1      48.371   6.226  15.392  0.00  0.00    +0.000 A 
BRANCH  18  24
ATOM     24  C   UNL     1      49.261   5.935  17.708  0.00  0.00    +0.000 C 
BRANCH  24  26
ATOM     25  N   UNL     1      47.708   6.161  20.004  0.00  0.00    +0.000 NA
ATOM     26  C   UNL     1      48.412   6.059  18.962  0.00  0.00    +0.000 C 
ENDBRANCH  24  26
ENDBRANCH  18  24
ENDBRANCH  16  22
ENDBRANCH   1  16
TORSDOF 6
ENDMDL
MODEL 5
REMARK VINA RESULT:    -7.034      3.385      7.463
REMARK INTER + INTRA:         -10.132
REMARK INTER:                  -9.096
REMARK INTRA:                  -1.036
REMARK UNBOUND:                -0.630
REMARK  Name = 
REMARK  6 active torsions:
REMARK  status: ('A' for Active; 'I' for Inactive)
REMARK    1  A    between atoms: C_2  and  C_3
REMARK    2  A    between atoms: C_3  and  C_4
REMARK    3  A    between atoms: C_8  and  N_9
REMARK    4  A    between atoms: N_9  and  C_10
REMARK    5  A    between atoms: C_10  and  C_11
REMARK    6  A    between atoms: C_15  and  C_16
REMARK                            x       y       z     vdW  Elec       q    Type
REMARK                         _______ _______ _______ _____ _____    ______ ____
ROOT
ATOM      1  C   UNL     1      46.322   6.788  12.901  0.00  0.00    +0.000 C 
ATOM      2  C   UNL     1      47.372   6.140  13.801  0.00  0.00    +0.000 C 
ATOM      3  C   UNL     1      47.777   6.652  12.465  0.00  0.00    +0.000 C 
ENDROOT
BRANCH   1   4
ATOM      4  C   UNL     1      45.355   5.900  12.106  0.00  0.00    +0.000 A 
ATOM      5  C   UNL     1      43.966   6.027  12.257  0.00  0.00    +0.000 A 
ATOM      6  C   UNL     1      43.078   5.346  11.419  0.00  0.00    +0.000 A 
ATOM      7  C   UNL     1      43.562   4.542  10.388  0.00  0.00    +0.000 A 
ATOM      8  C   UNL     1      44.937   4.376  10.192  0.00  0.00    +0.000 A 
ATOM      9  C   UNL     1      45.804   5.023  11.100  0.00  0.00    +0.000 A 
BRANCH   8  10
ATOM     10  C   UNL     1      45.485   3.629   9.038  0.00  0.00    +0.000 A 
ATOM     11  C   UNL     1      46.032   4.266   7.920  0.00  0.00    +0.000 A 
ATOM     12  C   UNL     1      46.635   3.521   6.889  0.00  0.00    +0.000 A 
ATOM     13  C   UNL     1      46.711   2.131   6.963  0.00  0.00    +0.000 A 
ATOM     14  C   UNL     1      46.156   1.482   8.052  0.00  0.00    +0.000 A 
ATOM     15  C   UNL     1      45.538   2.239   9.048  0.00  0.00    +0.000 A 
ENDBRANCH   8  10
ENDBRANCH   1   4
BRANCH   1  16
ATOM     16  N   UNL     1      45.795   8.123  13.271  0.00  0.00    +0.000 N 
ATOM     17  H   UNL     1      45.088   8.170  13.998  0.00  0.00    +0.000 HD
BRANCH  16  22
ATOM     18  C   UNL     1      46.858  11.126  11.325  0.00  0.00    +0.000 A 
ATOM     19  C   UNL     1      45.648  11.439  10.730  0.00  0.00    +0.000 A 
ATOM     20  N   UNL     1      44.522  10.716  10.918  0.00  0.00    +0.000 NA
ATOM     21  C   UNL     1      44.610   9.636  11.742  0.00  0.00    +0.000 A 
ATOM     22  C   UNL     1      45.776   9.205  12.371  0.00  0.00    +0.000 A 
ATOM     23  C   UNL     1      46.894   9.996  12.148  0.00  0.00    +0.000 A 
BRANCH  18  24
ATOM     24  C   UNL     1      48.101  11.960  11.186  0.00  0.00    +0.000 C 
BRANCH  24  26
ATOM     25  N   UNL     1      50.304  10.271  11.023  0.00  0.00    +0.000 NA
ATOM     26  C   UNL     1      49.304  11.037  11.097  0.00  0.00    +0.000 C 
ENDBRANCH  24  26
ENDBRANCH  18  24
ENDBRANCH  16  22
ENDBRANCH   1  16
TORSDOF 6
ENDMDL
MODEL 6
REMARK VINA RESULT:    -6.816      3.328      8.108
REMARK INTER + INTRA:          -9.837
REMARK INTER:                  -8.891
REMARK INTRA:                  -0.946
REMARK UNBOUND:                -0.630
REMARK  Name = 
REMARK  6 active torsions:
REMARK  status: ('A' for Active; 'I' for Inactive)
REMARK    1  A    between atoms: C_2  and  C_3
REMARK    2  A    between atoms: C_3  and  C_4
REMARK    3  A    between atoms: C_8  and  N_9
REMARK    4  A    between atoms: N_9  and  C_10
REMARK    5  A    between atoms: C_10  and  C_11
REMARK    6  A    between atoms: C_15  and  C_16
REMARK                            x       y       z     vdW  Elec       q    Type
REMARK                         _______ _______ _______ _____ _____    ______ ____
ROOT
ATOM      1  C   UNL     1      48.991   7.811  12.643  0.00  0.00    +0.000 C 
ATOM      2  C   UNL     1      49.881   8.192  11.462  0.00  0.00    +0.000 C 
ATOM      3  C   UNL     1      49.416   9.254  12.392  0.00  0.00    +0.000 C 
ENDROOT
BRANCH   1   4
ATOM      4  C   UNL     1      47.495   7.560  12.412  0.00  0.00    +0.000 A 
ATOM      5  C   UNL     1      46.539   8.532  12.744  0.00  0.00    +0.000 A 
ATOM      6  C   UNL     1      45.196   8.385  12.384  0.00  0.00    +0.000 A 
ATOM      7  C   UNL     1      44.783   7.270  11.656  0.00  0.00    +0.000 A 
ATOM      8  C   UNL     1      45.691   6.267  11.300  0.00  0.00    +0.000 A 
ATOM      9  C   UNL     1      47.026   6.416  11.740  0.00  0.00    +0.000 A 
BRANCH   8  10
ATOM     10  C   UNL     1      45.314   5.134  10.426  0.00  0.00    +0.000 A 
ATOM     11  C   UNL     1      45.697   5.057   9.084  0.00  0.00    +0.000 A 
ATOM     12  C   UNL     1      45.404   3.916   8.315  0.00  0.00    +0.000 A 
ATOM     13  C   UNL     1      44.735   2.828   8.876  0.00  0.00    +0.000 A 
ATOM     14  C   UNL     1      44.331   2.895  10.198  0.00  0.00    +0.000 A 
ATOM     15  C   UNL     1      44.606   4.049  10.932  0.00  0.00    +0.000 A 
ENDBRANCH   8  10
ENDBRANCH   1   4
BRANCH   1  16
ATOM     16  N   UNL     1      49.592   7.061  13.772  0.00  0.00    +0.000 N 
ATOM     17  H   UNL     1      49.947   6.129  13.588  0.00  0.00    +0.000 HD
BRANCH  16  22
ATOM     18  C   UNL     1      48.629   6.464  17.330  0.00  0.00    +0.000 A 
ATOM     19  C   UNL     1      48.321   7.764  17.692  0.00  0.00    +0.000 A 
ATOM     20  N   UNL     1      48.428   8.814  16.848  0.00  0.00    +0.000 NA
ATOM     21  C   UNL     1      48.856   8.549  15.582  0.00  0.00    +0.000 A 
ATOM     22  C   UNL     1      49.225   7.290  15.111  0.00  0.00    +0.000 A 
ATOM     23  C   UNL     1      49.081   6.253  16.023  0.00  0.00    +0.000 A 
BRANCH  18  24
ATOM     24  C   UNL     1      48.446   5.276  18.232  0.00  0.00    +0.000 C 
BRANCH  24  26
ATOM     25  N   UNL     1      46.690   3.489  17.024  0.00  0.00    +0.000 NA
ATOM     26  C   UNL     1      47.487   4.300  17.572  0.00  0.00    +0.000 C 
ENDBRANCH  24  26
ENDBRANCH  18  24
ENDBRANCH  16  22
ENDBRANCH   1  16
TORSDOF 6
ENDMDL
MODEL 7
REMARK VINA RESULT:    -6.787      2.171      4.211
REMARK INTER + INTRA:          -9.798
REMARK INTER:                  -8.735
REMARK INTRA:                  -1.062
REMARK UNBOUND:                -0.630
REMARK  Name = 
REMARK  6 active torsions:
REMARK  status: ('A' for Active; 'I' for Inactive)
REMARK    1  A    between atoms: C_2  and  C_3
REMARK    2  A    between atoms: C_3  and  C_4
REMARK    3  A    between atoms: C_8  and  N_9
REMARK    4  A    between atoms: N_9  and  C_10
REMARK    5  A    between atoms: C_10  and  C_11
REMARK    6  A    between atoms: C_15  and  C_16
REMARK                            x       y       z     vdW  Elec       q    Type
REMARK                         _______ _______ _______ _____ _____    ______ ____
ROOT
ATOM      1  C   UNL     1      47.645   7.852  13.238  0.00  0.00    +0.000 C 
ATOM      2  C   UNL     1      48.084   8.865  12.182  0.00  0.00    +0.000 C 
ATOM      3  C   UNL     1      48.593   7.470  12.106  0.00  0.00    +0.000 C 
ENDROOT
BRANCH   1   4
ATOM      4  C   UNL     1      48.310   7.864  14.621  0.00  0.00    +0.000 A 
ATOM      5  C   UNL     1      48.173   8.966  15.480  0.00  0.00    +0.000 A 
ATOM      6  C   UNL     1      48.629   8.919  16.800  0.00  0.00    +0.000 A 
ATOM      7  C   UNL     1      49.209   7.755  17.302  0.00  0.00    +0.000 A 
ATOM      8  C   UNL     1      49.373   6.627  16.491  0.00  0.00    +0.000 A 
ATOM      9  C   UNL     1      48.964   6.733  15.143  0.00  0.00    +0.000 A 
BRANCH   8  10
ATOM     10  C   UNL     1      49.872   5.339  17.023  0.00  0.00    +0.000 A 
ATOM     11  C   UNL     1      49.042   4.230  17.212  0.00  0.00    +0.000 A 
ATOM     12  C   UNL     1      49.574   2.994  17.623  0.00  0.00    +0.000 A 
ATOM     13  C   UNL     1      50.942   2.841  17.840  0.00  0.00    +0.000 A 
ATOM     14  C   UNL     1      51.777   3.933  17.677  0.00  0.00    +0.000 A 
ATOM     15  C   UNL     1      51.223   5.156  17.298  0.00  0.00    +0.000 A 
ENDBRANCH   8  10
ENDBRANCH   1   4
BRANCH   1  16
ATOM     16  N   UNL     1      46.246   7.362  13.213  0.00  0.00    +0.000 N 
ATOM     17  H   UNL     1      45.579   7.794  13.843  0.00  0.00    +0.000 HD
BRANCH  16  22
ATOM     18  C   UNL     1      44.831   4.495  11.284  0.00  0.00    +0.000 A 
ATOM     19  C   UNL     1      45.107   3.475  12.178  0.00  0.00    +0.000 A 
ATOM     20  N   UNL     1      45.740   3.673  13.356  0.00  0.00    +0.000 NA
ATOM     21  C   UNL     1      46.106   4.950  13.655  0.00  0.00    +0.000 A 
ATOM     22  C   UNL     1      45.912   6.051  12.823  0.00  0.00    +0.000 A 
ATOM     23  C   UNL     1      45.247   5.784  11.635  0.00  0.00    +0.000 A 
BRANCH  18  24
ATOM     24  C   UNL     1      44.066   4.305  10.006  0.00  0.00    +0.000 C 
BRANCH  24  26
ATOM     25  N   UNL     1      45.860   4.249   7.882  0.00  0.00    +0.000 NA
ATOM     26  C   UNL     1      45.046   4.274   8.845  0.00  0.00    +0.000 C 
ENDBRANCH  24  26
ENDBRANCH  18  24
ENDBRANCH  16  22
ENDBRANCH   1  16
TORSDOF 6
ENDMDL
MODEL 8
REMARK VINA RESULT:    -6.664      3.019      7.419
REMARK INTER + INTRA:          -9.632
REMARK INTER:                  -9.008
REMARK INTRA:                  -0.624
REMARK UNBOUND:                -0.630
REMARK  Name = 
REMARK  6 active torsions:
REMARK  status: ('A' for Active; 'I' for Inactive)
REMARK    1  A    between atoms: C_2  and  C_3
REMARK    2  A    between atoms: C_3  and  C_4
REMARK    3  A    between atoms: C_8  and  N_9
REMARK    4  A    between atoms: N_9  and  C_10
REMARK    5  A    between atoms: C_10  and  C_11
REMARK    6  A    between atoms: C_15  and  C_16
REMARK                            x       y       z     vdW  Elec       q    Type
REMARK                         _______ _______ _______ _____ _____    ______ ____
ROOT
ATOM      1  C   UNL     1      46.141   5.433  13.382  0.00  0.00    +0.000 C 
ATOM      2  C   UNL     1      46.350   4.478  14.556  0.00  0.00    +0.000 C 
ATOM      3  C   UNL     1      47.394   4.570  13.500  0.00  0.00    +0.000 C 
ENDROOT
BRANCH   1   4
ATOM      4  C   UNL     1      45.217   5.023  12.228  0.00  0.00    +0.000 A 
ATOM      5  C   UNL     1      43.926   5.561  12.109  0.00  0.00    +0.000 A 
ATOM      6  C   UNL     1      43.142   5.327  10.975  0.00  0.00    +0.000 A 
ATOM      7  C   UNL     1      43.646   4.570   9.918  0.00  0.00    +0.000 A 
ATOM      8  C   UNL     1      44.925   4.007   9.983  0.00  0.00    +0.000 A 
ATOM      9  C   UNL     1      45.662   4.206  11.172  0.00  0.00    +0.000 A 
BRANCH   8  10
ATOM     10  C   UNL     1      45.535   3.302   8.834  0.00  0.00    +0.000 A 
ATOM     11  C   UNL     1      46.041   3.976   7.719  0.00  0.00    +0.000 A 
ATOM     12  C   UNL     1      46.705   3.277   6.694  0.00  0.00    +0.000 A 
ATOM     13  C   UNL     1      46.885   1.896   6.771  0.00  0.00    +0.000 A 
ATOM     14  C   UNL     1      46.373   1.209   7.858  0.00  0.00    +0.000 A 
ATOM     15  C   UNL     1      45.693   1.920   8.847  0.00  0.00    +0.000 A 
ENDBRANCH   8  10
ENDBRANCH   1   4
BRANCH   1  16
ATOM     16  N   UNL     1      46.236   6.892  13.629  0.00  0.00    +0.000 N 
ATOM     17  H   UNL     1      45.394   7.383  13.905  0.00  0.00    +0.000 HD
BRANCH  16  22
ATOM     18  C   UNL     1      47.827   9.715  11.773  0.00  0.00    +0.000 A 
ATOM     19  C   UNL     1      49.097   9.187  11.623  0.00  0.00    +0.000 A 
ATOM     20  N   UNL     1      49.460   7.979  12.108  0.00  0.00    +0.000 NA
ATOM     21  C   UNL     1      48.505   7.264  12.766  0.00  0.00    +0.000 A 
ATOM     22  C   UNL     1      47.204   7.702  13.006  0.00  0.00    +0.000 A 
ATOM     23  C   UNL     1      46.892   8.945  12.473  0.00  0.00    +0.000 A 
BRANCH  18  24
ATOM     24  C   UNL     1      47.387  11.022  11.178  0.00  0.00    +0.000 C 
BRANCH  24  26
ATOM     25  N   UNL     1      44.748  11.503  11.913  0.00  0.00    +0.000 NA
ATOM     26  C   UNL     1      45.945  11.285  11.579  0.00  0.00    +0.000 C 
ENDBRANCH  24  26
ENDBRANCH  18  24
ENDBRANCH  16  22
ENDBRANCH   1  16
TORSDOF 6
ENDMDL
MODEL 9
REMARK VINA RESULT:    -6.386      3.829      7.887
REMARK INTER + INTRA:          -9.256
REMARK INTER:                  -7.878
REMARK INTRA:                  -1.378
REMARK UNBOUND:                -0.630
REMARK  Name = 
REMARK  6 active torsions:
REMARK  status: ('A' for Active; 'I' for Inactive)
REMARK    1  A    between atoms: C_2  and  C_3
REMARK    2  A    between atoms: C_3  and  C_4
REMARK    3  A    between atoms: C_8  and  N_9
REMARK    4  A    between atoms: N_9  and  C_10
REMARK    5  A    between atoms: C_10  and  C_11
REMARK    6  A    between atoms: C_15  and  C_16
REMARK                            x       y       z     vdW  Elec       q    Type
REMARK                         _______ _______ _______ _____ _____    ______ ____
ROOT
ATOM      1  C   UNL     1      49.239   8.637  15.597  0.00  0.00    +0.000 C 
ATOM      2  C   UNL     1      49.288  10.094  16.052  0.00  0.00    +0.000 C 
ATOM      3  C   UNL     1      48.065   9.291  16.319  0.00  0.00    +0.000 C 
ENDROOT
BRANCH   1   4
ATOM      4  C   UNL     1      48.955   8.312  14.125  0.00  0.00    +0.000 A 
ATOM      5  C   UNL     1      49.891   8.612  13.124  0.00  0.00    +0.000 A 
ATOM      6  C   UNL     1      49.718   8.170  11.809  0.00  0.00    +0.000 A 
ATOM      7  C   UNL     1      48.612   7.391  11.471  0.00  0.00    +0.000 A 
ATOM      8  C   UNL     1      47.645   7.063  12.427  0.00  0.00    +0.000 A 
ATOM      9  C   UNL     1      47.817   7.584  13.729  0.00  0.00    +0.000 A 
BRANCH   8  10
ATOM     10  C   UNL     1      46.526   6.139  12.133  0.00  0.00    +0.000 A 
ATOM     11  C   UNL     1      45.965   6.017  10.859  0.00  0.00    +0.000 A 
ATOM     12  C   UNL     1      44.972   5.056  10.598  0.00  0.00    +0.000 A 
ATOM     13  C   UNL     1      44.531   4.193  11.600  0.00  0.00    +0.000 A 
ATOM     14  C   UNL     1      45.060   4.313  12.873  0.00  0.00    +0.000 A 
ATOM     15  C   UNL     1      46.023   5.293  13.116  0.00  0.00    +0.000 A 
ENDBRANCH   8  10
ENDBRANCH   1   4
BRANCH   1  16
ATOM     16  N   UNL     1      50.071   7.641  16.315  0.00  0.00    +0.000 N 
ATOM     17  H   UNL     1      50.941   7.350  15.884  0.00  0.00    +0.000 HD
BRANCH  16  22
ATOM     18  C   UNL     1      48.250   4.668  17.651  0.00  0.00    +0.000 A 
ATOM     19  C   UNL     1      48.296   4.973  19.000  0.00  0.00    +0.000 A 
ATOM     20  N   UNL     1      48.901   6.079  19.489  0.00  0.00    +0.000 NA
ATOM     21  C   UNL     1      49.478   6.919  18.586  0.00  0.00    +0.000 A 
ATOM     22  C   UNL     1      49.523   6.703  17.210  0.00  0.00    +0.000 A 
ATOM     23  C   UNL     1      48.875   5.557  16.771  0.00  0.00    +0.000 A 
BRANCH  18  24
ATOM     24  C   UNL     1      47.520   3.483  17.085  0.00  0.00    +0.000 C 
BRANCH  24  26
ATOM     25  N   UNL     1      49.379   1.697  16.041  0.00  0.00    +0.000 NA
ATOM     26  C   UNL     1      48.536   2.507  16.514  0.00  0.00    +0.000 C 
ENDBRANCH  24  26
ENDBRANCH  18  24
ENDBRANCH  16  22
ENDBRANCH   1  16
TORSDOF 6
ENDMDL
