MODEL 1
REMARK VINA RESULT:    -7.924      0.000      0.000
REMARK INTER + INTRA:         -11.165
REMARK INTER:                 -10.240
REMARK INTRA:                  -0.924
REMARK UNBOUND:                -0.924
REMARK  Name = 
REMARK  5 active torsions:
REMARK  status: ('A' for Active; 'I' for Inactive)
REMARK    1  A    between atoms: C_2  and  C_4
REMARK    2  A    between atoms: C_8  and  N_9
REMARK    3  A    between atoms: N_9  and  C_10
REMARK    4  A    between atoms: C_10  and  C_11
REMARK    5  A    between atoms: C_16  and  N_17
REMARK                            x       y       z     vdW  Elec       q    Type
REMARK                         _______ _______ _______ _____ _____    ______ ____
ROOT
ATOM      1  C   UNL     1      43.761   4.940  10.491  0.00  0.00    +0.000 C 
ENDROOT
BRANCH   1   2
ATOM      2  C   UNL     1      44.710   5.020  11.662  0.00  0.00    +0.000 A 
ATOM      3  C   UNL     1      44.825   3.955  12.559  0.00  0.00    +0.000 A 
ATOM      4  C   UNL     1      45.791   3.997  13.559  0.00  0.00    +0.000 A 
ATOM      5  C   UNL     1      46.644   5.100  13.663  0.00  0.00    +0.000 A 
ATOM      6  F   UNL     1      47.610   5.028  14.594  0.00  0.00    +0.000 F 
ATOM      7  C   UNL     1      46.555   6.211  12.800  0.00  0.00    +0.000 A 
ATOM      8  C   UNL     1      45.543   6.144  11.823  0.00  0.00    +0.000 A 
BRANCH   7   9
ATOM      9  N   UNL     1      47.408   7.303  12.860  0.00  0.00    +0.000 N 
ATOM     10  C   UNL     1      46.931   8.643  13.215  0.00  0.00    +0.000 C 
ATOM     11  C   UNL     1      47.274   9.630  12.099  0.00  0.00    +0.000 C 
ATOM     12  C   UNL     1      48.752   9.577  11.721  0.00  0.00    +0.000 C 
ATOM     13  C   UNL     1      49.183   8.145  11.400  0.00  0.00    +0.000 C 
ATOM     14  C   UNL     1      48.836   7.201  12.550  0.00  0.00    +0.000 C 
ENDBRANCH   7   9
ENDBRANCH   1   2
BRANCH   1  15
ATOM     15  N   UNL     1      44.477   4.971   9.223  0.00  0.00    +0.000 N 
ATOM     16  H   UNL     1      45.132   5.750   9.175  0.00  0.00    +0.000 HD
BRANCH  15  21
ATOM     17  C   UNL     1      46.539   2.599   7.233  0.00  0.00    +0.000 A 
ATOM     18  C   UNL     1      46.193   1.369   7.801  0.00  0.00    +0.000 A 
ATOM     19  C   UNL     1      45.262   1.330   8.832  0.00  0.00    +0.000 A 
ATOM     20  C   UNL     1      44.696   2.514   9.310  0.00  0.00    +0.000 A 
ATOM     21  C   UNL     1      45.070   3.766   8.800  0.00  0.00    +0.000 A 
ATOM     22  C   UNL     1      45.975   3.786   7.729  0.00  0.00    +0.000 A 
BRANCH  17  24
ATOM     23  N   UNL     1      48.839   2.487   6.430  0.00  0.00    +0.000 N 
ATOM     24  C   UNL     1      47.521   2.686   6.121  0.00  0.00    +0.000 C 
ATOM     25  O   UNL     1      47.170   2.900   4.968  0.00  0.00    +0.000 OA
ATOM     26  H   UNL     1      49.479   2.450   5.647  0.00  0.00    +0.000 HD
ATOM     27  H   UNL     1      49.134   2.066   7.298  0.00  0.00    +0.000 HD
ENDBRANCH  17  24
ENDBRANCH  15  21
ENDBRANCH   1  15
TORSDOF 5
ENDMDL
MODEL 2
REMARK VINA RESULT:    -7.320      1.807      2.572
REMARK INTER + INTRA:         -10.384
REMARK INTER:                  -9.542
REMARK INTRA:                  -0.842
REMARK UNBOUND:                -0.924
REMARK  Name = 
REMARK  5 active torsions:
REMARK  status: ('A' for Active; 'I' for Inactive)
REMARK    1  A    between atoms: C_2  and  C_4
REMARK    2  A    between atoms: C_8  and  N_9
REMARK    3  A    between atoms: N_9  and  C_10
REMARK    4  A    between atoms: C_10  and  C_11
REMARK    5  A    between atoms: C_16  and  N_17
REMARK                            x       y       z     vdW  Elec       q    Type
REMARK                         _______ _______ _______ _____ _____    ______ ____
ROOT
ATOM      1  C   UNL     1      44.822   5.565  10.891  0.00  0.00    +0.000 C 
ENDROOT
BRANCH   1   2
ATOM      2  C   UNL     1      45.581   6.780  11.367  0.00  0.00    +0.000 A 
ATOM      3  C   UNL     1      44.916   7.983  11.615  0.00  0.00    +0.000 A 
ATOM      4  C   UNL     1      45.610   9.053  12.168  0.00  0.00    +0.000 A 
ATOM      5  C   UNL     1      46.967   8.924  12.477  0.00  0.00    +0.000 A 
ATOM      6  F   UNL     1      47.547   9.968  13.093  0.00  0.00    +0.000 F 
ATOM      7  C   UNL     1      47.692   7.742  12.225  0.00  0.00    +0.000 A 
ATOM      8  C   UNL     1      46.961   6.693  11.634  0.00  0.00    +0.000 A 
BRANCH   7   9
ATOM      9  N   UNL     1      49.030   7.574  12.550  0.00  0.00    +0.000 N 
ATOM     10  C   UNL     1      49.467   7.274  13.916  0.00  0.00    +0.000 C 
ATOM     11  C   UNL     1      50.460   8.336  14.390  0.00  0.00    +0.000 C 
ATOM     12  C   UNL     1      51.605   8.531  13.401  0.00  0.00    +0.000 C 
ATOM     13  C   UNL     1      51.072   8.803  11.994  0.00  0.00    +0.000 C 
ATOM     14  C   UNL     1      50.100   7.708  11.558  0.00  0.00    +0.000 C 
ENDBRANCH   7   9
ENDBRANCH   1   2
BRANCH   1  15
ATOM     15  N   UNL     1      45.005   5.349   9.462  0.00  0.00    +0.000 N 
ATOM     16  H   UNL     1      45.639   6.034   9.053  0.00  0.00    +0.000 HD
BRANCH  15  21
ATOM     17  C   UNL     1      46.527   2.560   7.527  0.00  0.00    +0.000 A 
ATOM     18  C   UNL     1      45.890   1.445   8.080  0.00  0.00    +0.000 A 
ATOM     19  C   UNL     1      44.943   1.624   9.081  0.00  0.00    +0.000 A 
ATOM     20  C   UNL     1      44.650   2.909   9.546  0.00  0.00    +0.000 A 
ATOM     21  C   UNL     1      45.317   4.039   9.053  0.00  0.00    +0.000 A 
ATOM     22  C   UNL     1      46.235   3.847   8.010  0.00  0.00    +0.000 A 
BRANCH  17  24
ATOM     23  N   UNL     1      47.358   3.167   5.316  0.00  0.00    +0.000 N 
ATOM     24  C   UNL     1      47.536   2.416   6.446  0.00  0.00    +0.000 C 
ATOM     25  O   UNL     1      48.505   1.677   6.565  0.00  0.00    +0.000 OA
ATOM     26  H   UNL     1      48.107   3.132   4.636  0.00  0.00    +0.000 HD
ATOM     27  H   UNL     1      46.731   3.957   5.285  0.00  0.00    +0.000 HD
ENDBRANCH  17  24
ENDBRANCH  15  21
ENDBRANCH   1  15
TORSDOF 5
ENDMDL
MODEL 3
REMARK VINA RESULT:    -7.204      3.198      7.142
REMARK INTER + INTRA:         -10.235
REMARK INTER:                  -9.721
REMARK INTRA:                  -0.514
REMARK UNBOUND:                -0.924
REMARK  Name = 
REMARK  5 active torsions:
REMARK  status: ('A' for Active; 'I' for Inactive)
REMARK    1  A    between atoms: C_2  and  C_4
REMARK    2  A    between atoms: C_8  and  N_9
REMARK    3  A    between atoms: N_9  and  C_10
REMARK    4  A    between atoms: C_10  and  C_11
REMARK    5  A    between atoms: C_16  and  N_17
REMARK                            x       y       z     vdW  Elec       q    Type
REMARK                         _______ _______ _______ _____ _____    ______ ____
ROOT
ATOM      1  C   UNL     1      45.429   6.744  12.341  0.00  0.00    +0.000 C 
ENDROOT
BRANCH   1   2
ATOM      2  C   UNL     1      44.913   5.361  12.028  0.00  0.00    +0.000 A 
ATOM      3  C   UNL     1      44.095   4.684  12.936  0.00  0.00    +0.000 A 
ATOM      4  C   UNL     1      43.531   3.464  12.579  0.00  0.00    +0.000 A 
ATOM      5  C   UNL     1      43.778   2.921  11.315  0.00  0.00    +0.000 A 
ATOM      6  F   UNL     1      43.125   1.788  11.008  0.00  0.00    +0.000 F 
ATOM      7  C   UNL     1      44.614   3.550  10.370  0.00  0.00    +0.000 A 
ATOM      8  C   UNL     1      45.192   4.766  10.783  0.00  0.00    +0.000 A 
BRANCH   7   9
ATOM      9  N   UNL     1      44.852   3.051   9.098  0.00  0.00    +0.000 N 
ATOM     10  C   UNL     1      45.038   1.619   8.848  0.00  0.00    +0.000 C 
ATOM     11  C   UNL     1      46.387   1.380   8.168  0.00  0.00    +0.000 C 
ATOM     12  C   UNL     1      46.568   2.256   6.931  0.00  0.00    +0.000 C 
ATOM     13  C   UNL     1      46.323   3.729   7.263  0.00  0.00    +0.000 C 
ATOM     14  C   UNL     1      44.958   3.919   7.922  0.00  0.00    +0.000 C 
ENDBRANCH   7   9
ENDBRANCH   1   2
BRANCH   1  15
ATOM     15  N   UNL     1      46.886   6.779  12.350  0.00  0.00    +0.000 N 
ATOM     16  H   UNL     1      47.248   7.627  11.915  0.00  0.00    +0.000 HD
BRANCH  15  21
ATOM     17  C   UNL     1      47.900   4.977  15.442  0.00  0.00    +0.000 A 
ATOM     18  C   UNL     1      48.643   5.953  16.114  0.00  0.00    +0.000 A 
ATOM     19  C   UNL     1      48.790   7.212  15.546  0.00  0.00    +0.000 A 
ATOM     20  C   UNL     1      48.218   7.490  14.302  0.00  0.00    +0.000 A 
ATOM     21  C   UNL     1      47.519   6.513  13.579  0.00  0.00    +0.000 A 
ATOM     22  C   UNL     1      47.339   5.262  14.186  0.00  0.00    +0.000 A 
BRANCH  17  24
ATOM     23  N   UNL     1      46.893   3.514  17.113  0.00  0.00    +0.000 N 
ATOM     24  C   UNL     1      47.707   3.621  16.019  0.00  0.00    +0.000 C 
ATOM     25  O   UNL     1      48.231   2.632  15.525  0.00  0.00    +0.000 OA
ATOM     26  H   UNL     1      46.693   2.574  17.429  0.00  0.00    +0.000 HD
ATOM     27  H   UNL     1      46.256   4.247  17.387  0.00  0.00    +0.000 HD
ENDBRANCH  17  24
ENDBRANCH  15  21
ENDBRANCH   1  15
TORSDOF 5
ENDMDL
MODEL 4
REMARK VINA RESULT:    -7.191      2.959      6.829
REMARK INTER + INTRA:         -10.217
REMARK INTER:                  -8.958
REMARK INTRA:                  -1.259
REMARK UNBOUND:                -0.924
REMARK  Name = 
REMARK  5 active torsions:
REMARK  status: ('A' for Active; 'I' for Inactive)
REMARK    1  A    between atoms: C_2  and  C_4
REMARK    2  A    between atoms: C_8  and  N_9
REMARK    3  A    between atoms: N_9  and  C_10
REMARK    4  A    between atoms: C_10  and  C_11
REMARK    5  A    between atoms: C_16  and  N_17
REMARK                            x       y       z     vdW  Elec       q    Type
REMARK                         _______ _______ _______ _____ _____    ______ ____
ROOT
ATOM      1  C   UNL     1      47.002   4.324  13.907  0.00  0.00    +0.000 C 
ENDROOT
BRANCH   1   2
ATOM      2  C   UNL     1      45.733   4.267  13.093  0.00  0.00    +0.000 A 
ATOM      3  C   UNL     1      44.532   4.760  13.610  0.00  0.00    +0.000 A 
ATOM      4  C   UNL     1      43.402   4.810  12.801  0.00  0.00    +0.000 A 
ATOM      5  C   UNL     1      43.469   4.371  11.476  0.00  0.00    +0.000 A 
ATOM      6  F   UNL     1      42.364   4.536  10.731  0.00  0.00    +0.000 F 
ATOM      7  C   UNL     1      44.648   3.842  10.912  0.00  0.00    +0.000 A 
ATOM      8  C   UNL     1      45.760   3.778  11.773  0.00  0.00    +0.000 A 
BRANCH   7   9
ATOM      9  N   UNL     1      44.752   3.429   9.592  0.00  0.00    +0.000 N 
ATOM     10  C   UNL     1      44.688   2.015   9.213  0.00  0.00    +0.000 C 
ATOM     11  C   UNL     1      45.953   1.623   8.447  0.00  0.00    +0.000 C 
ATOM     12  C   UNL     1      46.230   2.567   7.280  0.00  0.00    +0.000 C 
ATOM     13  C   UNL     1      46.246   4.023   7.746  0.00  0.00    +0.000 C 
ATOM     14  C   UNL     1      44.957   4.371   8.489  0.00  0.00    +0.000 C 
ENDBRANCH   7   9
ENDBRANCH   1   2
BRANCH   1  15
ATOM     15  N   UNL     1      47.208   5.648  14.480  0.00  0.00    +0.000 N 
ATOM     16  H   UNL     1      47.813   5.616  15.300  0.00  0.00    +0.000 HD
BRANCH  15  21
ATOM     17  C   UNL     1      47.012   8.741  12.423  0.00  0.00    +0.000 A 
ATOM     18  C   UNL     1      48.217   8.692  11.715  0.00  0.00    +0.000 A 
ATOM     19  C   UNL     1      49.082   7.622  11.908  0.00  0.00    +0.000 A 
ATOM     20  C   UNL     1      48.758   6.617  12.824  0.00  0.00    +0.000 A 
ATOM     21  C   UNL     1      47.587   6.672  13.592  0.00  0.00    +0.000 A 
ATOM     22  C   UNL     1      46.702   7.732  13.351  0.00  0.00    +0.000 A 
BRANCH  17  24
ATOM     23  N   UNL     1      44.779   9.678  12.703  0.00  0.00    +0.000 N 
ATOM     24  C   UNL     1      46.052   9.860  12.237  0.00  0.00    +0.000 C 
ATOM     25  O   UNL     1      46.387  10.914  11.714  0.00  0.00    +0.000 OA
ATOM     26  H   UNL     1      44.169  10.485  12.659  0.00  0.00    +0.000 HD
ATOM     27  H   UNL     1      44.539   8.943  13.351  0.00  0.00    +0.000 HD
ENDBRANCH  17  24
ENDBRANCH  15  21
ENDBRANCH   1  15
TORSDOF 5
ENDMDL
MODEL 5
REMARK VINA RESULT:    -7.086      2.271      3.686
REMARK INTER + INTRA:         -10.082
REMARK INTER:                  -9.364
REMARK INTRA:                  -0.718
REMARK UNBOUND:                -0.924
REMARK  Name = 
REMARK  5 active torsions:
REMARK  status: ('A' for Active; 'I' for Inactive)
REMARK    1  A    between atoms: C_2  and  C_4
REMARK    2  A    between atoms: C_8  and  N_9
REMARK    3  A    between atoms: N_9  and  C_10
REMARK    4  A    between atoms: C_10  and  C_11
REMARK    5  A    between atoms: C_16  and  N_17
REMARK                            x       y       z     vdW  Elec       q    Type
REMARK                         _______ _______ _______ _____ _____    ______ ____
ROOT
ATOM      1  C   UNL     1      44.752   6.302  11.890  0.00  0.00    +0.000 C 
ENDROOT
BRANCH   1   2
ATOM      2  C   UNL     1      46.143   6.344  12.474  0.00  0.00    +0.000 A 
ATOM      3  C   UNL     1      47.166   7.040  11.827  0.00  0.00    +0.000 A 
ATOM      4  C   UNL     1      48.408   7.168  12.442  0.00  0.00    +0.000 A 
ATOM      5  C   UNL     1      48.628   6.605  13.702  0.00  0.00    +0.000 A 
ATOM      6  F   UNL     1      49.820   6.850  14.271  0.00  0.00    +0.000 F 
ATOM      7  C   UNL     1      47.637   5.873  14.387  0.00  0.00    +0.000 A 
ATOM      8  C   UNL     1      46.406   5.737  13.717  0.00  0.00    +0.000 A 
BRANCH   7   9
ATOM      9  N   UNL     1      47.817   5.330  15.651  0.00  0.00    +0.000 N 
ATOM     10  C   UNL     1      48.654   5.979  16.664  0.00  0.00    +0.000 C 
ATOM     11  C   UNL     1      49.749   5.018  17.128  0.00  0.00    +0.000 C 
ATOM     12  C   UNL     1      49.181   3.670  17.563  0.00  0.00    +0.000 C 
ATOM     13  C   UNL     1      48.292   3.073  16.472  0.00  0.00    +0.000 C 
ATOM     14  C   UNL     1      47.204   4.062  16.054  0.00  0.00    +0.000 C 
ENDBRANCH   7   9
ENDBRANCH   1   2
BRANCH   1  15
ATOM     15  N   UNL     1      44.787   6.119  10.445  0.00  0.00    +0.000 N 
ATOM     16  H   UNL     1      45.468   6.734  10.001  0.00  0.00    +0.000 HD
BRANCH  15  21
ATOM     17  C   UNL     1      45.704   3.245   8.268  0.00  0.00    +0.000 A 
ATOM     18  C   UNL     1      45.039   2.187   8.893  0.00  0.00    +0.000 A 
ATOM     19  C   UNL     1      44.273   2.433  10.026  0.00  0.00    +0.000 A 
ATOM     20  C   UNL     1      44.190   3.727  10.547  0.00  0.00    +0.000 A 
ATOM     21  C   UNL     1      44.895   4.796   9.976  0.00  0.00    +0.000 A 
ATOM     22  C   UNL     1      45.625   4.541   8.807  0.00  0.00    +0.000 A 
BRANCH  17  24
ATOM     23  N   UNL     1      47.179   1.833   6.935  0.00  0.00    +0.000 N 
ATOM     24  C   UNL     1      46.525   3.029   7.048  0.00  0.00    +0.000 C 
ATOM     25  O   UNL     1      46.596   3.871   6.163  0.00  0.00    +0.000 OA
ATOM     26  H   UNL     1      47.649   1.663   6.055  0.00  0.00    +0.000 HD
ATOM     27  H   UNL     1      46.947   1.033   7.505  0.00  0.00    +0.000 HD
ENDBRANCH  17  24
ENDBRANCH  15  21
ENDBRANCH   1  15
TORSDOF 5
ENDMDL
MODEL 6
REMARK VINA RESULT:    -6.988      4.348      7.988
REMARK INTER + INTRA:          -9.955
REMARK INTER:                  -8.892
REMARK INTRA:                  -1.063
REMARK UNBOUND:                -0.924
REMARK  Name = 
REMARK  5 active torsions:
REMARK  status: ('A' for Active; 'I' for Inactive)
REMARK    1  A    between atoms: C_2  and  C_4
REMARK    2  A    between atoms: C_8  and  N_9
REMARK    3  A    between atoms: N_9  and  C_10
REMARK    4  A    between atoms: C_10  and  C_11
REMARK    5  A    between atoms: C_16  and  N_17
REMARK                            x       y       z     vdW  Elec       q    Type
REMARK                         _______ _______ _______ _____ _____    ______ ____
ROOT
ATOM      1  C   UNL     1      49.202   6.943  15.162  0.00  0.00    +0.000 C 
ENDROOT
BRANCH   1   2
ATOM      2  C   UNL     1      48.338   6.884  13.926  0.00  0.00    +0.000 A 
ATOM      3  C   UNL     1      48.716   7.556  12.761  0.00  0.00    +0.000 A 
ATOM      4  C   UNL     1      47.971   7.391  11.598  0.00  0.00    +0.000 A 
ATOM      5  C   UNL     1      46.851   6.554  11.595  0.00  0.00    +0.000 A 
ATOM      6  F   UNL     1      46.238   6.372  10.414  0.00  0.00    +0.000 F 
ATOM      7  C   UNL     1      46.413   5.872  12.749  0.00  0.00    +0.000 A 
ATOM      8  C   UNL     1      47.174   6.092  13.913  0.00  0.00    +0.000 A 
BRANCH   7   9
ATOM      9  N   UNL     1      45.325   5.011  12.768  0.00  0.00    +0.000 N 
ATOM     10  C   UNL     1      45.472   3.569  12.557  0.00  0.00    +0.000 C 
ATOM     11  C   UNL     1      44.604   3.123  11.380  0.00  0.00    +0.000 C 
ATOM     12  C   UNL     1      43.156   3.585  11.529  0.00  0.00    +0.000 C 
ATOM     13  C   UNL     1      43.086   5.092  11.782  0.00  0.00    +0.000 C 
ATOM     14  C   UNL     1      43.954   5.484  12.976  0.00  0.00    +0.000 C 
ENDBRANCH   7   9
ENDBRANCH   1   2
BRANCH   1  15
ATOM     15  N   UNL     1      48.395   6.967  16.375  0.00  0.00    +0.000 N 
ATOM     16  H   UNL     1      47.410   7.126  16.172  0.00  0.00    +0.000 HD
BRANCH  15  21
ATOM     17  C   UNL     1      49.236   3.579  17.663  0.00  0.00    +0.000 A 
ATOM     18  C   UNL     1      48.835   3.672  18.999  0.00  0.00    +0.000 A 
ATOM     19  C   UNL     1      48.270   4.853  19.464  0.00  0.00    +0.000 A 
ATOM     20  C   UNL     1      48.127   5.946  18.606  0.00  0.00    +0.000 A 
ATOM     21  C   UNL     1      48.576   5.902  17.278  0.00  0.00    +0.000 A 
ATOM     22  C   UNL     1      49.100   4.688  16.811  0.00  0.00    +0.000 A 
BRANCH  17  24
ATOM     23  N   UNL     1      50.850   1.760  17.836  0.00  0.00    +0.000 N 
ATOM     24  C   UNL     1      49.834   2.331  17.121  0.00  0.00    +0.000 C 
ATOM     25  O   UNL     1      49.421   1.815  16.091  0.00  0.00    +0.000 OA
ATOM     26  H   UNL     1      51.175   0.860  17.507  0.00  0.00    +0.000 HD
ATOM     27  H   UNL     1      51.042   2.006  18.795  0.00  0.00    +0.000 HD
ENDBRANCH  17  24
ENDBRANCH  15  21
ENDBRANCH   1  15
TORSDOF 5
ENDMDL
MODEL 7
REMARK VINA RESULT:    -6.705      4.299      7.950
REMARK INTER + INTRA:          -9.590
REMARK INTER:                  -8.936
REMARK INTRA:                  -0.654
REMARK UNBOUND:                -0.924
REMARK  Name = 
REMARK  5 active torsions:
REMARK  status: ('A' for Active; 'I' for Inactive)
REMARK    1  A    between atoms: C_2  and  C_4
REMARK    2  A    between atoms: C_8  and  N_9
REMARK    3  A    between atoms: N_9  and  C_10
REMARK    4  A    between atoms: C_10  and  C_11
REMARK    5  A    between atoms: C_16  and  N_17
REMARK                            x       y       z     vdW  Elec       q    Type
REMARK                         _______ _______ _______ _____ _____    ______ ____
ROOT
ATOM      1  C   UNL     1      46.973   3.809  13.951  0.00  0.00    +0.000 C 
ENDROOT
BRANCH   1   2
ATOM      2  C   UNL     1      45.810   4.104  13.034  0.00  0.00    +0.000 A 
ATOM      3  C   UNL     1      44.782   4.957  13.441  0.00  0.00    +0.000 A 
ATOM      4  C   UNL     1      43.784   5.313  12.540  0.00  0.00    +0.000 A 
ATOM      5  C   UNL     1      43.813   4.821  11.232  0.00  0.00    +0.000 A 
ATOM      6  F   UNL     1      42.869   5.281  10.394  0.00  0.00    +0.000 F 
ATOM      7  C   UNL     1      44.814   3.939  10.777  0.00  0.00    +0.000 A 
ATOM      8  C   UNL     1      45.786   3.577  11.729  0.00  0.00    +0.000 A 
BRANCH   7   9
ATOM      9  N   UNL     1      44.887   3.460   9.477  0.00  0.00    +0.000 N 
ATOM     10  C   UNL     1      44.729   2.038   9.163  0.00  0.00    +0.000 C 
ATOM     11  C   UNL     1      45.963   1.530   8.414  0.00  0.00    +0.000 C 
ATOM     12  C   UNL     1      46.297   2.400   7.205  0.00  0.00    +0.000 C 
ATOM     13  C   UNL     1      46.409   3.872   7.605  0.00  0.00    +0.000 C 
ATOM     14  C   UNL     1      45.148   4.336   8.332  0.00  0.00    +0.000 C 
ENDBRANCH   7   9
ENDBRANCH   1   2
BRANCH   1  15
ATOM     15  N   UNL     1      46.598   3.957  15.351  0.00  0.00    +0.000 N 
ATOM     16  H   UNL     1      45.901   3.268  15.632  0.00  0.00    +0.000 HD
BRANCH  15  21
ATOM     17  C   UNL     1      49.527   5.314  17.199  0.00  0.00    +0.000 A 
ATOM     18  C   UNL     1      49.865   4.242  18.031  0.00  0.00    +0.000 A 
ATOM     19  C   UNL     1      49.130   3.065  17.962  0.00  0.00    +0.000 A 
ATOM     20  C   UNL     1      48.047   2.966  17.084  0.00  0.00    +0.000 A 
ATOM     21  C   UNL     1      47.649   4.045  16.283  0.00  0.00    +0.000 A 
ATOM     22  C   UNL     1      48.428   5.210  16.329  0.00  0.00    +0.000 A 
BRANCH  17  24
ATOM     23  N   UNL     1      51.161   6.823  16.201  0.00  0.00    +0.000 N 
ATOM     24  C   UNL     1      50.293   6.587  17.231  0.00  0.00    +0.000 C 
ATOM     25  O   UNL     1      50.139   7.408  18.126  0.00  0.00    +0.000 OA
ATOM     26  H   UNL     1      51.597   7.736  16.186  0.00  0.00    +0.000 HD
ATOM     27  H   UNL     1      51.129   6.305  15.336  0.00  0.00    +0.000 HD
ENDBRANCH  17  24
ENDBRANCH  15  21
ENDBRANCH   1  15
TORSDOF 5
ENDMDL
MODEL 8
REMARK VINA RESULT:    -6.638      4.222      7.996
REMARK INTER + INTRA:          -9.502
REMARK INTER:                  -8.545
REMARK INTRA:                  -0.957
REMARK UNBOUND:                -0.924
REMARK  Name = 
REMARK  5 active torsions:
REMARK  status: ('A' for Active; 'I' for Inactive)
REMARK    1  A    between atoms: C_2  and  C_4
REMARK    2  A    between atoms: C_8  and  N_9
REMARK    3  A    between atoms: N_9  and  C_10
REMARK    4  A    between atoms: C_10  and  C_11
REMARK    5  A    between atoms: C_16  and  N_17
REMARK                            x       y       z     vdW  Elec       q    Type
REMARK                         _______ _______ _______ _____ _____    ______ ____
ROOT
ATOM      1  C   UNL     1      49.177   7.630  14.145  0.00  0.00    +0.000 C 
ENDROOT
BRANCH   1   2
ATOM      2  C   UNL     1      47.774   7.565  13.593  0.00  0.00    +0.000 A 
ATOM      3  C   UNL     1      46.976   8.711  13.540  0.00  0.00    +0.000 A 
ATOM      4  C   UNL     1      45.734   8.658  12.917  0.00  0.00    +0.000 A 
ATOM      5  C   UNL     1      45.287   7.463  12.345  0.00  0.00    +0.000 A 
ATOM      6  F   UNL     1      44.120   7.513  11.682  0.00  0.00    +0.000 F 
ATOM      7  C   UNL     1      46.041   6.273  12.391  0.00  0.00    +0.000 A 
ATOM      8  C   UNL     1      47.278   6.361  13.059  0.00  0.00    +0.000 A 
BRANCH   7   9
ATOM      9  N   UNL     1      45.638   5.082  11.805  0.00  0.00    +0.000 N 
ATOM     10  C   UNL     1      45.344   4.981  10.373  0.00  0.00    +0.000 C 
ATOM     11  C   UNL     1      43.918   4.469  10.170  0.00  0.00    +0.000 C 
ATOM     12  C   UNL     1      43.654   3.183  10.950  0.00  0.00    +0.000 C 
ATOM     13  C   UNL     1      44.018   3.355  12.425  0.00  0.00    +0.000 C 
ATOM     14  C   UNL     1      45.455   3.851  12.578  0.00  0.00    +0.000 C 
ENDBRANCH   7   9
ENDBRANCH   1   2
BRANCH   1  15
ATOM     15  N   UNL     1      49.175   7.665  15.601  0.00  0.00    +0.000 N 
ATOM     16  H   UNL     1      48.302   8.038  15.970  0.00  0.00    +0.000 HD
BRANCH  15  21
ATOM     17  C   UNL     1      48.908   4.450  17.452  0.00  0.00    +0.000 A 
ATOM     18  C   UNL     1      50.249   4.165  17.730  0.00  0.00    +0.000 A 
ATOM     19  C   UNL     1      51.236   5.052  17.318  0.00  0.00    +0.000 A 
ATOM     20  C   UNL     1      50.890   6.205  16.610  0.00  0.00    +0.000 A 
ATOM     21  C   UNL     1      49.560   6.485  16.265  0.00  0.00    +0.000 A 
ATOM     22  C   UNL     1      48.571   5.606  16.728  0.00  0.00    +0.000 A 
BRANCH  17  24
ATOM     23  N   UNL     1      48.027   2.807  19.024  0.00  0.00    +0.000 N 
ATOM     24  C   UNL     1      47.819   3.536  17.885  0.00  0.00    +0.000 C 
ATOM     25  O   UNL     1      46.766   3.453  17.268  0.00  0.00    +0.000 OA
ATOM     26  H   UNL     1      47.238   2.269  19.358  0.00  0.00    +0.000 HD
ATOM     27  H   UNL     1      48.756   3.031  19.684  0.00  0.00    +0.000 HD
ENDBRANCH  17  24
ENDBRANCH  15  21
ENDBRANCH   1  15
TORSDOF 5
ENDMDL
MODEL 9
REMARK VINA RESULT:    -6.327      4.353      5.956
REMARK INTER + INTRA:          -9.101
REMARK INTER:                  -8.322
REMARK INTRA:                  -0.779
REMARK UNBOUND:                -0.924
REMARK  Name = 
REMARK  5 active torsions:
REMARK  status: ('A' for Active; 'I' for Inactive)
REMARK    1  A    between atoms: C_2  and  C_4
REMARK    2  A    between atoms: C_8  and  N_9
REMARK    3  A    between atoms: N_9  and  C_10
REMARK    4  A    between atoms: C_10  and  C_11
REMARK    5  A    between atoms: C_16  and  N_17
REMARK                            x       y       z     vdW  Elec       q    Type
REMARK                         _______ _______ _______ _____ _____    ______ ____
ROOT
ATOM      1  C   UNL     1      47.076   4.060  14.946  0.00  0.00    +0.000 C 
ENDROOT
BRANCH   1   2
ATOM      2  C   UNL     1      47.599   4.160  16.359  0.00  0.00    +0.000 A 
ATOM      3  C   UNL     1      47.954   3.012  17.069  0.00  0.00    +0.000 A 
ATOM      4  C   UNL     1      48.546   3.132  18.322  0.00  0.00    +0.000 A 
ATOM      5  C   UNL     1      48.787   4.397  18.865  0.00  0.00    +0.000 A 
ATOM      6  F   UNL     1      49.446   4.435  20.035  0.00  0.00    +0.000 F 
ATOM      7  C   UNL     1      48.427   5.587  18.201  0.00  0.00    +0.000 A 
ATOM      8  C   UNL     1      47.800   5.421  16.951  0.00  0.00    +0.000 A 
BRANCH   7   9
ATOM      9  N   UNL     1      48.682   6.856  18.700  0.00  0.00    +0.000 N 
ATOM     10  C   UNL     1      47.910   7.425  19.808  0.00  0.00    +0.000 C 
ATOM     11  C   UNL     1      47.280   8.750  19.377  0.00  0.00    +0.000 C 
ATOM     12  C   UNL     1      48.309   9.707  18.781  0.00  0.00    +0.000 C 
ATOM     13  C   UNL     1      49.098   9.032  17.659  0.00  0.00    +0.000 C 
ATOM     14  C   UNL     1      49.722   7.724  18.142  0.00  0.00    +0.000 C 
ENDBRANCH   7   9
ENDBRANCH   1   2
BRANCH   1  15
ATOM     15  N   UNL     1      46.801   5.376  14.385  0.00  0.00    +0.000 N 
ATOM     16  H   UNL     1      47.658   5.874  14.149  0.00  0.00    +0.000 HD
BRANCH  15  21
ATOM     17  C   UNL     1      44.495   4.261  11.687  0.00  0.00    +0.000 A 
ATOM     18  C   UNL     1      44.071   5.479  11.149  0.00  0.00    +0.000 A 
ATOM     19  C   UNL     1      44.566   6.668  11.672  0.00  0.00    +0.000 A 
ATOM     20  C   UNL     1      45.463   6.642  12.743  0.00  0.00    +0.000 A 
ATOM     21  C   UNL     1      45.858   5.437  13.342  0.00  0.00    +0.000 A 
ATOM     22  C   UNL     1      45.387   4.245  12.773  0.00  0.00    +0.000 A 
BRANCH  17  24
ATOM     23  N   UNL     1      44.749   2.363  10.178  0.00  0.00    +0.000 N 
ATOM     24  C   UNL     1      44.001   2.966  11.151  0.00  0.00    +0.000 C 
ATOM     25  O   UNL     1      42.981   2.441  11.577  0.00  0.00    +0.000 OA
ATOM     26  H   UNL     1      44.453   1.437   9.898  0.00  0.00    +0.000 HD
ATOM     27  H   UNL     1      45.704   2.628   9.986  0.00  0.00    +0.000 HD
ENDBRANCH  17  24
ENDBRANCH  15  21
ENDBRANCH   1  15
TORSDOF 5
ENDMDL
