MODEL 1
REMARK VINA RESULT:    -8.317      0.000      0.000
REMARK INTER + INTRA:         -13.939
REMARK INTER:                 -12.936
REMARK INTRA:                  -1.003
REMARK UNBOUND:                -1.003
REMARK  Name = 
REMARK  10 active torsions:
REMARK  status: ('A' for Active; 'I' for Inactive)
REMARK    1  A    between atoms: C_2  and  C_23
REMARK    2  A    between atoms: N_3  and  C_4
REMARK    3  A    between atoms: C_4  and  C_5
REMARK    4  A    between atoms: C_8  and  C_9
REMARK    5  A    between atoms: C_9  and  N_10
REMARK    6  A    between atoms: N_10  and  C_11
REMARK    7  A    between atoms: N_10  and  C_14
REMARK    8  A    between atoms: C_11  and  C_12
REMARK    9  A    between atoms: C_12  and  O_13
REMARK   10  A    between atoms: C_14  and  C_15
REMARK                            x       y       z     vdW  Elec       q    Type
REMARK                         _______ _______ _______ _____ _____    ______ ____
ROOT
ATOM      1  C   UNL     1      48.112   6.501  13.633  0.00  0.00    +0.000 A 
ATOM      2  C   UNL     1      47.205   5.454  13.832  0.00  0.00    +0.000 A 
ATOM      3  C   UNL     1      46.239   5.165  12.872  0.00  0.00    +0.000 A 
ATOM      4  C   UNL     1      46.125   5.965  11.729  0.00  0.00    +0.000 A 
ATOM      5  C   UNL     1      47.108   6.929  11.470  0.00  0.00    +0.000 A 
ATOM      6  C   UNL     1      48.107   7.187  12.411  0.00  0.00    +0.000 A 
ENDROOT
BRANCH   1   7
ATOM      7  C   UNL     1      49.025   6.904  14.750  0.00  0.00    +0.000 C 
BRANCH   7  10
ATOM      8  O   UNL     1      50.706   5.795  16.549  0.00  0.00    +0.000 OA
ATOM      9  C   UNL     1      49.526   5.895  16.879  0.00  0.00    +0.000 C 
ATOM     10  N   UNL     1      48.586   6.430  16.030  0.00  0.00    +0.000 N 
ATOM     11  H   UNL     1      47.648   6.637  16.342  0.00  0.00    +0.000 HD
BRANCH   9  12
ATOM     12  C   UNL     1      49.049   5.463  18.175  0.00  0.00    +0.000 A 
ATOM     13  C   UNL     1      49.022   4.188  18.783  0.00  0.00    +0.000 A 
ATOM     14  N   UNL     1      48.520   4.196  20.019  0.00  0.00    +0.000 NA
ATOM     15  N   UNL     1      48.211   5.497  20.254  0.00  0.00    +0.000 N 
ATOM     16  C   UNL     1      47.683   6.042  21.431  0.00  0.00    +0.000 A 
ATOM     17  C   UNL     1      47.419   7.361  21.501  0.00  0.00    +0.000 A 
ATOM     18  C   UNL     1      47.681   8.192  20.345  0.00  0.00    +0.000 A 
ATOM     19  C   UNL     1      48.200   7.678  19.215  0.00  0.00    +0.000 A 
ATOM     20  C   UNL     1      48.496   6.286  19.141  0.00  0.00    +0.000 A 
ENDBRANCH   9  12
ENDBRANCH   7  10
ENDBRANCH   1   7
BRANCH   4  21
ATOM     21  C   UNL     1      44.918   5.828  10.826  0.00  0.00    +0.000 C 
BRANCH  21  22
ATOM     22  N   UNL     1      44.469   4.419  10.635  0.00  0.00    +0.000 NA
BRANCH  22  23
ATOM     23  C   UNL     1      43.209   4.141  11.376  0.00  0.00    +0.000 C 
BRANCH  23  24
ATOM     24  C   UNL     1      42.474   5.378  11.943  0.00  0.00    +0.000 C 
BRANCH  24  25
ATOM     25  O   UNL     1      42.731   5.522  13.341  0.00  0.00    +0.000 OA
ATOM     26  H   UNL     1      43.521   4.992  13.547  0.00  0.00    +0.000 HD
ENDBRANCH  24  25
ENDBRANCH  23  24
ENDBRANCH  22  23
BRANCH  22  27
ATOM     27  C   UNL     1      44.273   4.172   9.193  0.00  0.00    +0.000 C 
BRANCH  27  28
ATOM     28  C   UNL     1      45.329   3.299   8.547  0.00  0.00    +0.000 A 
ATOM     29  C   UNL     1      45.392   1.925   8.819  0.00  0.00    +0.000 A 
ATOM     30  C   UNL     1      46.275   1.108   8.111  0.00  0.00    +0.000 A 
ATOM     31  C   UNL     1      47.115   1.659   7.146  0.00  0.00    +0.000 A 
ATOM     32  C   UNL     1      47.102   3.032   6.911  0.00  0.00    +0.000 A 
ATOM     33  C   UNL     1      46.211   3.850   7.607  0.00  0.00    +0.000 A 
ENDBRANCH  27  28
ENDBRANCH  22  27
ENDBRANCH  21  22
ENDBRANCH   4  21
TORSDOF 10
ENDMDL
MODEL 2
REMARK VINA RESULT:    -8.293      2.019      2.755
REMARK INTER + INTRA:         -13.902
REMARK INTER:                 -12.745
REMARK INTRA:                  -1.157
REMARK UNBOUND:                -1.003
REMARK  Name = 
REMARK  10 active torsions:
REMARK  status: ('A' for Active; 'I' for Inactive)
REMARK    1  A    between atoms: C_2  and  C_23
REMARK    2  A    between atoms: N_3  and  C_4
REMARK    3  A    between atoms: C_4  and  C_5
REMARK    4  A    between atoms: C_8  and  C_9
REMARK    5  A    between atoms: C_9  and  N_10
REMARK    6  A    between atoms: N_10  and  C_11
REMARK    7  A    between atoms: N_10  and  C_14
REMARK    8  A    between atoms: C_11  and  C_12
REMARK    9  A    between atoms: C_12  and  O_13
REMARK   10  A    between atoms: C_14  and  C_15
REMARK                            x       y       z     vdW  Elec       q    Type
REMARK                         _______ _______ _______ _____ _____    ______ ____
ROOT
ATOM      1  C   UNL     1      46.882   8.053  12.945  0.00  0.00    +0.000 A 
ATOM      2  C   UNL     1      47.468   7.111  12.092  0.00  0.00    +0.000 A 
ATOM      3  C   UNL     1      46.677   6.333  11.250  0.00  0.00    +0.000 A 
ATOM      4  C   UNL     1      45.283   6.442  11.300  0.00  0.00    +0.000 A 
ATOM      5  C   UNL     1      44.705   7.470  12.057  0.00  0.00    +0.000 A 
ATOM      6  C   UNL     1      45.502   8.283  12.866  0.00  0.00    +0.000 A 
ENDROOT
BRANCH   1   7
ATOM      7  C   UNL     1      47.732   8.751  13.962  0.00  0.00    +0.000 C 
BRANCH   7  10
ATOM      8  O   UNL     1      50.007   7.374  14.430  0.00  0.00    +0.000 OA
ATOM      9  C   UNL     1      49.138   7.322  15.297  0.00  0.00    +0.000 C 
ATOM     10  N   UNL     1      47.936   7.973  15.149  0.00  0.00    +0.000 N 
ATOM     11  H   UNL     1      47.276   8.045  15.910  0.00  0.00    +0.000 HD
BRANCH   9  12
ATOM     12  C   UNL     1      49.318   6.579  16.526  0.00  0.00    +0.000 A 
ATOM     13  C   UNL     1      50.088   6.852  17.678  0.00  0.00    +0.000 A 
ATOM     14  N   UNL     1      49.973   5.924  18.630  0.00  0.00    +0.000 NA
ATOM     15  N   UNL     1      49.105   5.015  18.117  0.00  0.00    +0.000 N 
ATOM     16  C   UNL     1      48.624   3.859  18.743  0.00  0.00    +0.000 A 
ATOM     17  C   UNL     1      47.769   3.048  18.091  0.00  0.00    +0.000 A 
ATOM     18  C   UNL     1      47.371   3.387  16.741  0.00  0.00    +0.000 A 
ATOM     19  C   UNL     1      47.819   4.503  16.137  0.00  0.00    +0.000 A 
ATOM     20  C   UNL     1      48.711   5.373  16.829  0.00  0.00    +0.000 A 
ENDBRANCH   9  12
ENDBRANCH   7  10
ENDBRANCH   1   7
BRANCH   4  21
ATOM     21  C   UNL     1      44.418   5.420  10.595  0.00  0.00    +0.000 C 
BRANCH  21  22
ATOM     22  N   UNL     1      45.102   4.118  10.354  0.00  0.00    +0.000 NA
BRANCH  22  23
ATOM     23  C   UNL     1      44.962   3.203  11.520  0.00  0.00    +0.000 C 
BRANCH  23  24
ATOM     24  C   UNL     1      43.555   3.135  12.157  0.00  0.00    +0.000 C 
BRANCH  24  25
ATOM     25  O   UNL     1      42.868   1.954  11.740  0.00  0.00    +0.000 OA
ATOM     26  H   UNL     1      42.595   1.478  12.543  0.00  0.00    +0.000 HD
ENDBRANCH  24  25
ENDBRANCH  23  24
ENDBRANCH  22  23
BRANCH  22  27
ATOM     27  C   UNL     1      44.528   3.491   9.147  0.00  0.00    +0.000 C 
BRANCH  27  28
ATOM     28  C   UNL     1      45.536   2.820   8.238  0.00  0.00    +0.000 A 
ATOM     29  C   UNL     1      46.239   3.557   7.275  0.00  0.00    +0.000 A 
ATOM     30  C   UNL     1      47.266   2.959   6.542  0.00  0.00    +0.000 A 
ATOM     31  C   UNL     1      47.580   1.616   6.748  0.00  0.00    +0.000 A 
ATOM     32  C   UNL     1      46.846   0.860   7.660  0.00  0.00    +0.000 A 
ATOM     33  C   UNL     1      45.829   1.459   8.403  0.00  0.00    +0.000 A 
ENDBRANCH  27  28
ENDBRANCH  22  27
ENDBRANCH  21  22
ENDBRANCH   4  21
TORSDOF 10
ENDMDL
MODEL 3
REMARK VINA RESULT:    -7.639      1.175      1.766
REMARK INTER + INTRA:         -12.884
REMARK INTER:                 -12.121
REMARK INTRA:                  -0.763
REMARK UNBOUND:                -1.003
REMARK  Name = 
REMARK  10 active torsions:
REMARK  status: ('A' for Active; 'I' for Inactive)
REMARK    1  A    between atoms: C_2  and  C_23
REMARK    2  A    between atoms: N_3  and  C_4
REMARK    3  A    between atoms: C_4  and  C_5
REMARK    4  A    between atoms: C_8  and  C_9
REMARK    5  A    between atoms: C_9  and  N_10
REMARK    6  A    between atoms: N_10  and  C_11
REMARK    7  A    between atoms: N_10  and  C_14
REMARK    8  A    between atoms: C_11  and  C_12
REMARK    9  A    between atoms: C_12  and  O_13
REMARK   10  A    between atoms: C_14  and  C_15
REMARK                            x       y       z     vdW  Elec       q    Type
REMARK                         _______ _______ _______ _____ _____    ______ ____
ROOT
ATOM      1  C   UNL     1      47.642   7.025  13.876  0.00  0.00    +0.000 A 
ATOM      2  C   UNL     1      46.772   7.953  13.293  0.00  0.00    +0.000 A 
ATOM      3  C   UNL     1      45.862   7.551  12.319  0.00  0.00    +0.000 A 
ATOM      4  C   UNL     1      45.858   6.227  11.866  0.00  0.00    +0.000 A 
ATOM      5  C   UNL     1      46.638   5.275  12.536  0.00  0.00    +0.000 A 
ATOM      6  C   UNL     1      47.516   5.669  13.547  0.00  0.00    +0.000 A 
ENDROOT
BRANCH   1   7
ATOM      7  C   UNL     1      48.726   7.508  14.790  0.00  0.00    +0.000 C 
BRANCH   7  10
ATOM      8  O   UNL     1      49.673   5.461  16.276  0.00  0.00    +0.000 OA
ATOM      9  C   UNL     1      48.950   6.274  16.847  0.00  0.00    +0.000 C 
ATOM     10  N   UNL     1      48.402   7.343  16.178  0.00  0.00    +0.000 N 
ATOM     11  H   UNL     1      47.920   8.083  16.667  0.00  0.00    +0.000 HD
BRANCH   9  12
ATOM     12  C   UNL     1      48.628   6.165  18.254  0.00  0.00    +0.000 A 
ATOM     13  C   UNL     1      47.426   6.398  18.958  0.00  0.00    +0.000 A 
ATOM     14  N   UNL     1      47.519   6.159  20.267  0.00  0.00    +0.000 NA
ATOM     15  N   UNL     1      48.800   5.750  20.450  0.00  0.00    +0.000 N 
ATOM     16  C   UNL     1      49.395   5.342  21.650  0.00  0.00    +0.000 A 
ATOM     17  C   UNL     1      50.690   4.972  21.666  0.00  0.00    +0.000 A 
ATOM     18  C   UNL     1      51.448   5.014  20.433  0.00  0.00    +0.000 A 
ATOM     19  C   UNL     1      50.880   5.392  19.273  0.00  0.00    +0.000 A 
ATOM     20  C   UNL     1      49.505   5.769  19.248  0.00  0.00    +0.000 A 
ENDBRANCH   9  12
ENDBRANCH   7  10
ENDBRANCH   1   7
BRANCH   4  21
ATOM     21  C   UNL     1      45.070   5.852  10.630  0.00  0.00    +0.000 C 
BRANCH  21  22
ATOM     22  N   UNL     1      44.674   4.416  10.584  0.00  0.00    +0.000 NA
BRANCH  22  23
ATOM     23  C   UNL     1      43.493   4.146  11.448  0.00  0.00    +0.000 C 
BRANCH  23  24
ATOM     24  C   UNL     1      42.619   5.374  11.796  0.00  0.00    +0.000 C 
BRANCH  24  25
ATOM     25  O   UNL     1      42.652   5.636  13.200  0.00  0.00    +0.000 OA
ATOM     26  H   UNL     1      41.730   5.660  13.512  0.00  0.00    +0.000 HD
ENDBRANCH  24  25
ENDBRANCH  23  24
ENDBRANCH  22  23
BRANCH  22  27
ATOM     27  C   UNL     1      44.373   4.047   9.187  0.00  0.00    +0.000 C 
BRANCH  27  28
ATOM     28  C   UNL     1      45.460   3.258   8.488  0.00  0.00    +0.000 A 
ATOM     29  C   UNL     1      45.579   1.873   8.676  0.00  0.00    +0.000 A 
ATOM     30  C   UNL     1      46.490   1.135   7.919  0.00  0.00    +0.000 A 
ATOM     31  C   UNL     1      47.306   1.777   6.989  0.00  0.00    +0.000 A 
ATOM     32  C   UNL     1      47.238   3.161   6.838  0.00  0.00    +0.000 A 
ATOM     33  C   UNL     1      46.318   3.898   7.584  0.00  0.00    +0.000 A 
ENDBRANCH  27  28
ENDBRANCH  22  27
ENDBRANCH  21  22
ENDBRANCH   4  21
TORSDOF 10
ENDMDL
MODEL 4
REMARK VINA RESULT:    -7.050      3.092      3.879
REMARK INTER + INTRA:         -11.968
REMARK INTER:                 -11.119
REMARK INTRA:                  -0.850
REMARK UNBOUND:                -1.003
REMARK  Name = 
REMARK  10 active torsions:
REMARK  status: ('A' for Active; 'I' for Inactive)
REMARK    1  A    between atoms: C_2  and  C_23
REMARK    2  A    between atoms: N_3  and  C_4
REMARK    3  A    between atoms: C_4  and  C_5
REMARK    4  A    between atoms: C_8  and  C_9
REMARK    5  A    between atoms: C_9  and  N_10
REMARK    6  A    between atoms: N_10  and  C_11
REMARK    7  A    between atoms: N_10  and  C_14
REMARK    8  A    between atoms: C_11  and  C_12
REMARK    9  A    between atoms: C_12  and  O_13
REMARK   10  A    between atoms: C_14  and  C_15
REMARK                            x       y       z     vdW  Elec       q    Type
REMARK                         _______ _______ _______ _____ _____    ______ ____
ROOT
ATOM      1  C   UNL     1      46.862   8.392  12.545  0.00  0.00    +0.000 A 
ATOM      2  C   UNL     1      45.478   8.550  12.406  0.00  0.00    +0.000 A 
ATOM      3  C   UNL     1      44.709   7.551  11.816  0.00  0.00    +0.000 A 
ATOM      4  C   UNL     1      45.325   6.407  11.297  0.00  0.00    +0.000 A 
ATOM      5  C   UNL     1      46.686   6.190  11.549  0.00  0.00    +0.000 A 
ATOM      6  C   UNL     1      47.450   7.172  12.183  0.00  0.00    +0.000 A 
ENDROOT
BRANCH   1   7
ATOM      7  C   UNL     1      47.689   9.546  13.020  0.00  0.00    +0.000 C 
BRANCH   7  10
ATOM      8  O   UNL     1      48.522   9.043  15.539  0.00  0.00    +0.000 OA
ATOM      9  C   UNL     1      49.357   8.926  14.645  0.00  0.00    +0.000 C 
ATOM     10  N   UNL     1      49.040   9.176  13.330  0.00  0.00    +0.000 N 
ATOM     11  H   UNL     1      49.679   8.954  12.581  0.00  0.00    +0.000 HD
BRANCH   9  12
ATOM     12  C   UNL     1      50.720   8.520  14.911  0.00  0.00    +0.000 A 
ATOM     13  C   UNL     1      51.955   9.067  14.498  0.00  0.00    +0.000 A 
ATOM     14  N   UNL     1      53.015   8.415  14.978  0.00  0.00    +0.000 NA
ATOM     15  N   UNL     1      52.489   7.417  15.734  0.00  0.00    +0.000 N 
ATOM     16  C   UNL     1      53.190   6.467  16.487  0.00  0.00    +0.000 A 
ATOM     17  C   UNL     1      52.515   5.529  17.179  0.00  0.00    +0.000 A 
ATOM     18  C   UNL     1      51.069   5.518  17.122  0.00  0.00    +0.000 A 
ATOM     19  C   UNL     1      50.388   6.435  16.411  0.00  0.00    +0.000 A 
ATOM     20  C   UNL     1      51.096   7.440  15.690  0.00  0.00    +0.000 A 
ENDBRANCH   9  12
ENDBRANCH   7  10
ENDBRANCH   1   7
BRANCH   4  21
ATOM     21  C   UNL     1      44.539   5.455  10.422  0.00  0.00    +0.000 C 
BRANCH  21  22
ATOM     22  N   UNL     1      45.110   4.079  10.366  0.00  0.00    +0.000 NA
BRANCH  22  23
ATOM     23  C   UNL     1      44.784   3.301  11.592  0.00  0.00    +0.000 C 
BRANCH  23  24
ATOM     24  C   UNL     1      43.278   3.117  11.892  0.00  0.00    +0.000 C 
BRANCH  24  25
ATOM     25  O   UNL     1      42.889   1.755  11.708  0.00  0.00    +0.000 OA
ATOM     26  H   UNL     1      42.366   1.711  10.889  0.00  0.00    +0.000 HD
ENDBRANCH  24  25
ENDBRANCH  23  24
ENDBRANCH  22  23
BRANCH  22  27
ATOM     27  C   UNL     1      44.582   3.389   9.173  0.00  0.00    +0.000 C 
BRANCH  27  28
ATOM     28  C   UNL     1      45.637   2.831   8.241  0.00  0.00    +0.000 A 
ATOM     29  C   UNL     1      46.073   1.503   8.360  0.00  0.00    +0.000 A 
ATOM     30  C   UNL     1      46.937   0.958   7.409  0.00  0.00    +0.000 A 
ATOM     31  C   UNL     1      47.391   1.740   6.348  0.00  0.00    +0.000 A 
ATOM     32  C   UNL     1      47.012   3.078   6.256  0.00  0.00    +0.000 A 
ATOM     33  C   UNL     1      46.138   3.621   7.197  0.00  0.00    +0.000 A 
ENDBRANCH  27  28
ENDBRANCH  22  27
ENDBRANCH  21  22
ENDBRANCH   4  21
TORSDOF 10
ENDMDL
MODEL 5
REMARK VINA RESULT:    -7.016      4.965      7.079
REMARK INTER + INTRA:         -11.915
REMARK INTER:                 -10.735
REMARK INTRA:                  -1.180
REMARK UNBOUND:                -1.003
REMARK  Name = 
REMARK  10 active torsions:
REMARK  status: ('A' for Active; 'I' for Inactive)
REMARK    1  A    between atoms: C_2  and  C_23
REMARK    2  A    between atoms: N_3  and  C_4
REMARK    3  A    between atoms: C_4  and  C_5
REMARK    4  A    between atoms: C_8  and  C_9
REMARK    5  A    between atoms: C_9  and  N_10
REMARK    6  A    between atoms: N_10  and  C_11
REMARK    7  A    between atoms: N_10  and  C_14
REMARK    8  A    between atoms: C_11  and  C_12
REMARK    9  A    between atoms: C_12  and  O_13
REMARK   10  A    between atoms: C_14  and  C_15
REMARK                            x       y       z     vdW  Elec       q    Type
REMARK                         _______ _______ _______ _____ _____    ______ ____
ROOT
ATOM      1  C   UNL     1      47.433   8.765  12.310  0.00  0.00    +0.000 A 
ATOM      2  C   UNL     1      46.084   8.978  12.616  0.00  0.00    +0.000 A 
ATOM      3  C   UNL     1      45.135   7.997  12.344  0.00  0.00    +0.000 A 
ATOM      4  C   UNL     1      45.514   6.815  11.698  0.00  0.00    +0.000 A 
ATOM      5  C   UNL     1      46.877   6.548  11.507  0.00  0.00    +0.000 A 
ATOM      6  C   UNL     1      47.835   7.513  11.825  0.00  0.00    +0.000 A 
ENDROOT
BRANCH   1   7
ATOM      7  C   UNL     1      48.406   9.896  12.449  0.00  0.00    +0.000 C 
BRANCH   7  10
ATOM      8  O   UNL     1      51.059   9.531  12.798  0.00  0.00    +0.000 OA
ATOM      9  C   UNL     1      50.674   9.746  11.651  0.00  0.00    +0.000 C 
ATOM     10  N   UNL     1      49.346   9.962  11.368  0.00  0.00    +0.000 N 
ATOM     11  H   UNL     1      49.007  10.005  10.418  0.00  0.00    +0.000 HD
BRANCH   9  12
ATOM     12  C   UNL     1      51.584   9.785  10.526  0.00  0.00    +0.000 A 
ATOM     13  C   UNL     1      52.017  10.854   9.711  0.00  0.00    +0.000 A 
ATOM     14  N   UNL     1      52.896  10.491   8.776  0.00  0.00    +0.000 NA
ATOM     15  N   UNL     1      53.068   9.158   8.968  0.00  0.00    +0.000 N 
ATOM     16  C   UNL     1      53.924   8.305   8.261  0.00  0.00    +0.000 A 
ATOM     17  C   UNL     1      53.970   6.994   8.568  0.00  0.00    +0.000 A 
ATOM     18  C   UNL     1      53.120   6.490   9.625  0.00  0.00    +0.000 A 
ATOM     19  C   UNL     1      52.303   7.305  10.317  0.00  0.00    +0.000 A 
ATOM     20  C   UNL     1      52.262   8.696  10.007  0.00  0.00    +0.000 A 
ENDBRANCH   9  12
ENDBRANCH   7  10
ENDBRANCH   1   7
BRANCH   4  21
ATOM     21  C   UNL     1      44.459   5.875  11.159  0.00  0.00    +0.000 C 
BRANCH  21  22
ATOM     22  N   UNL     1      44.985   4.531  10.786  0.00  0.00    +0.000 NA
BRANCH  22  23
ATOM     23  C   UNL     1      44.686   3.516  11.832  0.00  0.00    +0.000 C 
BRANCH  23  24
ATOM     24  C   UNL     1      45.826   3.228  12.836  0.00  0.00    +0.000 C 
BRANCH  24  25
ATOM     25  O   UNL     1      45.772   4.138  13.936  0.00  0.00    +0.000 OA
ATOM     26  H   UNL     1      44.837   4.362  14.082  0.00  0.00    +0.000 HD
ENDBRANCH  24  25
ENDBRANCH  23  24
ENDBRANCH  22  23
BRANCH  22  27
ATOM     27  C   UNL     1      44.388   4.123   9.499  0.00  0.00    +0.000 C 
BRANCH  27  28
ATOM     28  C   UNL     1      45.301   3.315   8.601  0.00  0.00    +0.000 A 
ATOM     29  C   UNL     1      46.111   3.945   7.645  0.00  0.00    +0.000 A 
ATOM     30  C   UNL     1      47.051   3.207   6.923  0.00  0.00    +0.000 A 
ATOM     31  C   UNL     1      47.171   1.834   7.133  0.00  0.00    +0.000 A 
ATOM     32  C   UNL     1      46.329   1.190   8.037  0.00  0.00    +0.000 A 
ATOM     33  C   UNL     1      45.398   1.927   8.769  0.00  0.00    +0.000 A 
ENDBRANCH  27  28
ENDBRANCH  22  27
ENDBRANCH  21  22
ENDBRANCH   4  21
TORSDOF 10
ENDMDL
MODEL 6
REMARK VINA RESULT:    -7.008      3.607      9.331
REMARK INTER + INTRA:         -11.903
REMARK INTER:                  -9.465
REMARK INTRA:                  -2.437
REMARK UNBOUND:                -1.003
REMARK  Name = 
REMARK  10 active torsions:
REMARK  status: ('A' for Active; 'I' for Inactive)
REMARK    1  A    between atoms: C_2  and  C_23
REMARK    2  A    between atoms: N_3  and  C_4
REMARK    3  A    between atoms: C_4  and  C_5
REMARK    4  A    between atoms: C_8  and  C_9
REMARK    5  A    between atoms: C_9  and  N_10
REMARK    6  A    between atoms: N_10  and  C_11
REMARK    7  A    between atoms: N_10  and  C_14
REMARK    8  A    between atoms: C_11  and  C_12
REMARK    9  A    between atoms: C_12  and  O_13
REMARK   10  A    between atoms: C_14  and  C_15
REMARK                            x       y       z     vdW  Elec       q    Type
REMARK                         _______ _______ _______ _____ _____    ______ ____
ROOT
ATOM      1  C   UNL     1      46.918   8.417  12.305  0.00  0.00    +0.000 A 
ATOM      2  C   UNL     1      47.185   9.790  12.260  0.00  0.00    +0.000 A 
ATOM      3  C   UNL     1      48.443  10.252  11.881  0.00  0.00    +0.000 A 
ATOM      4  C   UNL     1      49.470   9.343  11.606  0.00  0.00    +0.000 A 
ATOM      5  C   UNL     1      49.170   7.977  11.528  0.00  0.00    +0.000 A 
ATOM      6  C   UNL     1      47.895   7.516  11.862  0.00  0.00    +0.000 A 
ENDROOT
BRANCH   1   7
ATOM      7  C   UNL     1      45.620   7.940  12.880  0.00  0.00    +0.000 C 
BRANCH   7  10
ATOM      8  O   UNL     1      43.676   7.281  11.126  0.00  0.00    +0.000 OA
ATOM      9  C   UNL     1      44.320   6.355  11.615  0.00  0.00    +0.000 C 
ATOM     10  N   UNL     1      45.320   6.582  12.532  0.00  0.00    +0.000 N 
ATOM     11  H   UNL     1      45.937   5.843  12.834  0.00  0.00    +0.000 HD
BRANCH   9  12
ATOM     12  C   UNL     1      44.073   4.974  11.263  0.00  0.00    +0.000 A 
ATOM     13  C   UNL     1      43.289   3.977  11.885  0.00  0.00    +0.000 A 
ATOM     14  N   UNL     1      43.291   2.812  11.234  0.00  0.00    +0.000 NA
ATOM     15  N   UNL     1      44.080   3.027  10.151  0.00  0.00    +0.000 N 
ATOM     16  C   UNL     1      44.377   2.120   9.127  0.00  0.00    +0.000 A 
ATOM     17  C   UNL     1      45.193   2.487   8.120  0.00  0.00    +0.000 A 
ATOM     18  C   UNL     1      45.757   3.820   8.124  0.00  0.00    +0.000 A 
ATOM     19  C   UNL     1      45.467   4.702   9.097  0.00  0.00    +0.000 A 
ATOM     20  C   UNL     1      44.591   4.324  10.157  0.00  0.00    +0.000 A 
ENDBRANCH   9  12
ENDBRANCH   7  10
ENDBRANCH   1   7
BRANCH   4  21
ATOM     21  C   UNL     1      50.895   9.832  11.463  0.00  0.00    +0.000 C 
BRANCH  21  22
ATOM     22  N   UNL     1      51.888   9.020  12.221  0.00  0.00    +0.000 NA
BRANCH  22  23
ATOM     23  C   UNL     1      53.229   9.051  11.575  0.00  0.00    +0.000 C 
BRANCH  23  24
ATOM     24  C   UNL     1      53.750   7.697  11.041  0.00  0.00    +0.000 C 
BRANCH  24  25
ATOM     25  O   UNL     1      52.663   6.836  10.699  0.00  0.00    +0.000 OA
ATOM     26  H   UNL     1      52.643   6.764   9.729  0.00  0.00    +0.000 HD
ENDBRANCH  24  25
ENDBRANCH  23  24
ENDBRANCH  22  23
BRANCH  22  27
ATOM     27  C   UNL     1      51.978   9.539  13.600  0.00  0.00    +0.000 C 
BRANCH  27  28
ATOM     28  C   UNL     1      50.891   9.054  14.535  0.00  0.00    +0.000 A 
ATOM     29  C   UNL     1      50.003   9.959  15.137  0.00  0.00    +0.000 A 
ATOM     30  C   UNL     1      48.919   9.491  15.881  0.00  0.00    +0.000 A 
ATOM     31  C   UNL     1      48.727   8.121  16.050  0.00  0.00    +0.000 A 
ATOM     32  C   UNL     1      49.637   7.216  15.507  0.00  0.00    +0.000 A 
ATOM     33  C   UNL     1      50.714   7.681  14.752  0.00  0.00    +0.000 A 
ENDBRANCH  27  28
ENDBRANCH  22  27
ENDBRANCH  21  22
ENDBRANCH   4  21
TORSDOF 10
ENDMDL
MODEL 7
REMARK VINA RESULT:    -6.909      2.492      9.582
REMARK INTER + INTRA:         -11.749
REMARK INTER:                 -10.438
REMARK INTRA:                  -1.310
REMARK UNBOUND:                -1.003
REMARK  Name = 
REMARK  10 active torsions:
REMARK  status: ('A' for Active; 'I' for Inactive)
REMARK    1  A    between atoms: C_2  and  C_23
REMARK    2  A    between atoms: N_3  and  C_4
REMARK    3  A    between atoms: C_4  and  C_5
REMARK    4  A    between atoms: C_8  and  C_9
REMARK    5  A    between atoms: C_9  and  N_10
REMARK    6  A    between atoms: N_10  and  C_11
REMARK    7  A    between atoms: N_10  and  C_14
REMARK    8  A    between atoms: C_11  and  C_12
REMARK    9  A    between atoms: C_12  and  O_13
REMARK   10  A    between atoms: C_14  and  C_15
REMARK                            x       y       z     vdW  Elec       q    Type
REMARK                         _______ _______ _______ _____ _____    ______ ____
ROOT
ATOM      1  C   UNL     1      46.121   7.135  12.180  0.00  0.00    +0.000 A 
ATOM      2  C   UNL     1      45.902   8.384  12.771  0.00  0.00    +0.000 A 
ATOM      3  C   UNL     1      46.812   8.899  13.690  0.00  0.00    +0.000 A 
ATOM      4  C   UNL     1      47.920   8.140  14.081  0.00  0.00    +0.000 A 
ATOM      5  C   UNL     1      48.207   6.950  13.398  0.00  0.00    +0.000 A 
ATOM      6  C   UNL     1      47.319   6.456  12.441  0.00  0.00    +0.000 A 
ENDROOT
BRANCH   1   7
ATOM      7  C   UNL     1      45.048   6.525  11.332  0.00  0.00    +0.000 C 
BRANCH   7  10
ATOM      8  O   UNL     1      43.326   4.919  10.010  0.00  0.00    +0.000 OA
ATOM      9  C   UNL     1      44.501   4.559  10.051  0.00  0.00    +0.000 C 
ATOM     10  N   UNL     1      45.454   5.296  10.713  0.00  0.00    +0.000 N 
ATOM     11  H   UNL     1      46.437   5.079  10.637  0.00  0.00    +0.000 HD
BRANCH   9  12
ATOM     12  C   UNL     1      44.959   3.346   9.409  0.00  0.00    +0.000 A 
ATOM     13  C   UNL     1      44.672   1.987   9.667  0.00  0.00    +0.000 A 
ATOM     14  N   UNL     1      45.277   1.145   8.827  0.00  0.00    +0.000 NA
ATOM     15  N   UNL     1      45.975   1.947   7.983  0.00  0.00    +0.000 N 
ATOM     16  C   UNL     1      46.755   1.549   6.891  0.00  0.00    +0.000 A 
ATOM     17  C   UNL     1      47.399   2.474   6.153  0.00  0.00    +0.000 A 
ATOM     18  C   UNL     1      47.277   3.870   6.514  0.00  0.00    +0.000 A 
ATOM     19  C   UNL     1      46.519   4.262   7.555  0.00  0.00    +0.000 A 
ATOM     20  C   UNL     1      45.822   3.288   8.329  0.00  0.00    +0.000 A 
ENDBRANCH   9  12
ENDBRANCH   7  10
ENDBRANCH   1   7
BRANCH   4  21
ATOM     21  C   UNL     1      48.755   8.572  15.267  0.00  0.00    +0.000 C 
BRANCH  21  22
ATOM     22  N   UNL     1      49.645   7.501  15.797  0.00  0.00    +0.000 NA
BRANCH  22  23
ATOM     23  C   UNL     1      50.961   8.046  16.226  0.00  0.00    +0.000 C 
BRANCH  23  24
ATOM     24  C   UNL     1      52.145   7.779  15.268  0.00  0.00    +0.000 C 
BRANCH  24  25
ATOM     25  O   UNL     1      51.688   7.674  13.919  0.00  0.00    +0.000 OA
ATOM     26  H   UNL     1      51.878   8.522  13.481  0.00  0.00    +0.000 HD
ENDBRANCH  24  25
ENDBRANCH  23  24
ENDBRANCH  22  23
BRANCH  22  27
ATOM     27  C   UNL     1      48.975   6.841  16.935  0.00  0.00    +0.000 C 
BRANCH  27  28
ATOM     28  C   UNL     1      48.950   5.328  16.870  0.00  0.00    +0.000 A 
ATOM     29  C   UNL     1      49.989   4.567  17.426  0.00  0.00    +0.000 A 
ATOM     30  C   UNL     1      49.887   3.176  17.488  0.00  0.00    +0.000 A 
ATOM     31  C   UNL     1      48.760   2.535  16.974  0.00  0.00    +0.000 A 
ATOM     32  C   UNL     1      47.751   3.279  16.366  0.00  0.00    +0.000 A 
ATOM     33  C   UNL     1      47.844   4.670  16.315  0.00  0.00    +0.000 A 
ENDBRANCH  27  28
ENDBRANCH  22  27
ENDBRANCH  21  22
ENDBRANCH   4  21
TORSDOF 10
ENDMDL
MODEL 8
REMARK VINA RESULT:    -6.836      2.700      9.202
REMARK INTER + INTRA:         -11.635
REMARK INTER:                  -9.971
REMARK INTRA:                  -1.664
REMARK UNBOUND:                -1.003
REMARK  Name = 
REMARK  10 active torsions:
REMARK  status: ('A' for Active; 'I' for Inactive)
REMARK    1  A    between atoms: C_2  and  C_23
REMARK    2  A    between atoms: N_3  and  C_4
REMARK    3  A    between atoms: C_4  and  C_5
REMARK    4  A    between atoms: C_8  and  C_9
REMARK    5  A    between atoms: C_9  and  N_10
REMARK    6  A    between atoms: N_10  and  C_11
REMARK    7  A    between atoms: N_10  and  C_14
REMARK    8  A    between atoms: C_11  and  C_12
REMARK    9  A    between atoms: C_12  and  O_13
REMARK   10  A    between atoms: C_14  and  C_15
REMARK                            x       y       z     vdW  Elec       q    Type
REMARK                         _______ _______ _______ _____ _____    ______ ____
ROOT
ATOM      1  C   UNL     1      47.200   8.023  13.330  0.00  0.00    +0.000 A 
ATOM      2  C   UNL     1      47.511   8.921  14.358  0.00  0.00    +0.000 A 
ATOM      3  C   UNL     1      48.800   8.972  14.883  0.00  0.00    +0.000 A 
ATOM      4  C   UNL     1      49.777   8.079  14.432  0.00  0.00    +0.000 A 
ATOM      5  C   UNL     1      49.503   7.272  13.320  0.00  0.00    +0.000 A 
ATOM      6  C   UNL     1      48.224   7.254  12.761  0.00  0.00    +0.000 A 
ENDROOT
BRANCH   1   7
ATOM      7  C   UNL     1      45.774   7.862  12.903  0.00  0.00    +0.000 C 
BRANCH   7  10
ATOM      8  O   UNL     1      43.647   7.258  11.351  0.00  0.00    +0.000 OA
ATOM      9  C   UNL     1      44.357   6.321  11.710  0.00  0.00    +0.000 C 
ATOM     10  N   UNL     1      45.454   6.518  12.515  0.00  0.00    +0.000 N 
ATOM     11  H   UNL     1      46.113   5.777  12.702  0.00  0.00    +0.000 HD
BRANCH   9  12
ATOM     12  C   UNL     1      44.091   4.956  11.312  0.00  0.00    +0.000 A 
ATOM     13  C   UNL     1      43.277   3.956  11.889  0.00  0.00    +0.000 A 
ATOM     14  N   UNL     1      43.269   2.812  11.203  0.00  0.00    +0.000 NA
ATOM     15  N   UNL     1      44.082   3.044  10.141  0.00  0.00    +0.000 N 
ATOM     16  C   UNL     1      44.380   2.162   9.095  0.00  0.00    +0.000 A 
ATOM     17  C   UNL     1      45.222   2.543   8.115  0.00  0.00    +0.000 A 
ATOM     18  C   UNL     1      45.811   3.864   8.169  0.00  0.00    +0.000 A 
ATOM     19  C   UNL     1      45.519   4.722   9.164  0.00  0.00    +0.000 A 
ATOM     20  C   UNL     1      44.617   4.330  10.196  0.00  0.00    +0.000 A 
ENDBRANCH   9  12
ENDBRANCH   7  10
ENDBRANCH   1   7
BRANCH   4  21
ATOM     21  C   UNL     1      51.086   7.948  15.180  0.00  0.00    +0.000 C 
BRANCH  21  22
ATOM     22  N   UNL     1      51.224   6.665  15.927  0.00  0.00    +0.000 NA
BRANCH  22  23
ATOM     23  C   UNL     1      52.559   6.550  16.574  0.00  0.00    +0.000 C 
BRANCH  23  24
ATOM     24  C   UNL     1      52.615   6.924  18.073  0.00  0.00    +0.000 C 
BRANCH  24  25
ATOM     25  O   UNL     1      53.924   6.701  18.601  0.00  0.00    +0.000 OA
ATOM     26  H   UNL     1      53.976   7.167  19.453  0.00  0.00    +0.000 HD
ENDBRANCH  24  25
ENDBRANCH  23  24
ENDBRANCH  22  23
BRANCH  22  27
ATOM     27  C   UNL     1      50.159   6.588  16.946  0.00  0.00    +0.000 C 
BRANCH  27  28
ATOM     28  C   UNL     1      49.339   5.315  16.915  0.00  0.00    +0.000 A 
ATOM     29  C   UNL     1      49.775   4.161  17.582  0.00  0.00    +0.000 A 
ATOM     30  C   UNL     1      48.946   3.041  17.667  0.00  0.00    +0.000 A 
ATOM     31  C   UNL     1      47.688   3.057  17.067  0.00  0.00    +0.000 A 
ATOM     32  C   UNL     1      47.271   4.177  16.350  0.00  0.00    +0.000 A 
ATOM     33  C   UNL     1      48.092   5.302  16.275  0.00  0.00    +0.000 A 
ENDBRANCH  27  28
ENDBRANCH  22  27
ENDBRANCH  21  22
ENDBRANCH   4  21
TORSDOF 10
ENDMDL
MODEL 9
REMARK VINA RESULT:    -6.799      2.351      3.436
REMARK INTER + INTRA:         -11.577
REMARK INTER:                 -10.804
REMARK INTRA:                  -0.773
REMARK UNBOUND:                -1.003
REMARK  Name = 
REMARK  10 active torsions:
REMARK  status: ('A' for Active; 'I' for Inactive)
REMARK    1  A    between atoms: C_2  and  C_23
REMARK    2  A    between atoms: N_3  and  C_4
REMARK    3  A    between atoms: C_4  and  C_5
REMARK    4  A    between atoms: C_8  and  C_9
REMARK    5  A    between atoms: C_9  and  N_10
REMARK    6  A    between atoms: N_10  and  C_11
REMARK    7  A    between atoms: N_10  and  C_14
REMARK    8  A    between atoms: C_11  and  C_12
REMARK    9  A    between atoms: C_12  and  O_13
REMARK   10  A    between atoms: C_14  and  C_15
REMARK                            x       y       z     vdW  Elec       q    Type
REMARK                         _______ _______ _______ _____ _____    ______ ____
ROOT
ATOM      1  C   UNL     1      47.938   7.199  14.026  0.00  0.00    +0.000 A 
ATOM      2  C   UNL     1      47.761   5.849  13.699  0.00  0.00    +0.000 A 
ATOM      3  C   UNL     1      47.032   5.486  12.570  0.00  0.00    +0.000 A 
ATOM      4  C   UNL     1      46.412   6.468  11.791  0.00  0.00    +0.000 A 
ATOM      5  C   UNL     1      46.692   7.818  12.043  0.00  0.00    +0.000 A 
ATOM      6  C   UNL     1      47.464   8.183  13.148  0.00  0.00    +0.000 A 
ENDROOT
BRANCH   1   7
ATOM      7  C   UNL     1      48.574   7.561  15.332  0.00  0.00    +0.000 C 
BRANCH   7  10
ATOM      8  O   UNL     1      49.621   7.596  17.822  0.00  0.00    +0.000 OA
ATOM      9  C   UNL     1      49.964   6.672  17.087  0.00  0.00    +0.000 C 
ATOM     10  N   UNL     1      49.502   6.571  15.796  0.00  0.00    +0.000 N 
ATOM     11  H   UNL     1      49.672   5.748  15.236  0.00  0.00    +0.000 HD
BRANCH   9  12
ATOM     12  C   UNL     1      50.870   5.632  17.528  0.00  0.00    +0.000 A 
ATOM     13  C   UNL     1      50.655   4.478  18.313  0.00  0.00    +0.000 A 
ATOM     14  N   UNL     1      51.752   3.737  18.485  0.00  0.00    +0.000 NA
ATOM     15  N   UNL     1      52.719   4.396  17.797  0.00  0.00    +0.000 N 
ATOM     16  C   UNL     1      54.055   4.007  17.635  0.00  0.00    +0.000 A 
ATOM     17  C   UNL     1      54.899   4.782  16.927  0.00  0.00    +0.000 A 
ATOM     18  C   UNL     1      54.404   6.016  16.352  0.00  0.00    +0.000 A 
ATOM     19  C   UNL     1      53.120   6.390  16.494  0.00  0.00    +0.000 A 
ATOM     20  C   UNL     1      52.218   5.565  17.228  0.00  0.00    +0.000 A 
ENDBRANCH   9  12
ENDBRANCH   7  10
ENDBRANCH   1   7
BRANCH   4  21
ATOM     21  C   UNL     1      45.403   6.072  10.734  0.00  0.00    +0.000 C 
BRANCH  21  22
ATOM     22  N   UNL     1      45.043   4.626  10.761  0.00  0.00    +0.000 NA
BRANCH  22  23
ATOM     23  C   UNL     1      44.065   4.325  11.842  0.00  0.00    +0.000 C 
BRANCH  23  24
ATOM     24  C   UNL     1      43.162   3.092  11.609  0.00  0.00    +0.000 C 
BRANCH  24  25
ATOM     25  O   UNL     1      43.518   2.031  12.497  0.00  0.00    +0.000 OA
ATOM     26  H   UNL     1      43.916   2.434  13.288  0.00  0.00    +0.000 HD
ENDBRANCH  24  25
ENDBRANCH  23  24
ENDBRANCH  22  23
BRANCH  22  27
ATOM     27  C   UNL     1      44.480   4.248   9.450  0.00  0.00    +0.000 C 
BRANCH  27  28
ATOM     28  C   UNL     1      45.370   3.360   8.606  0.00  0.00    +0.000 A 
ATOM     29  C   UNL     1      46.232   3.910   7.646  0.00  0.00    +0.000 A 
ATOM     30  C   UNL     1      47.149   3.098   6.976  0.00  0.00    +0.000 A 
ATOM     31  C   UNL     1      47.195   1.730   7.242  0.00  0.00    +0.000 A 
ATOM     32  C   UNL     1      46.302   1.165   8.151  0.00  0.00    +0.000 A 
ATOM     33  C   UNL     1      45.394   1.977   8.831  0.00  0.00    +0.000 A 
ENDBRANCH  27  28
ENDBRANCH  22  27
ENDBRANCH  21  22
ENDBRANCH   4  21
TORSDOF 10
ENDMDL
