MODEL 1
REMARK VINA RESULT:    -8.037      0.000      0.000
REMARK INTER + INTRA:         -12.590
REMARK INTER:                 -11.325
REMARK INTRA:                  -1.264
REMARK UNBOUND:                -1.264
REMARK  Name = 
REMARK  7 active torsions:
REMARK  status: ('A' for Active; 'I' for Inactive)
REMARK    1  A    between atoms: C_2  and  C_3
REMARK    2  A    between atoms: C_3  and  N_4
REMARK    3  A    between atoms: C_3  and  C_17
REMARK    4  A    between atoms: C_5  and  C_7
REMARK    5  A    between atoms: C_20  and  C_21
REMARK    6  A    between atoms: C_21  and  N_22
REMARK    7  A    between atoms: C_23  and  C_25
REMARK                            x       y       z     vdW  Elec       q    Type
REMARK                         _______ _______ _______ _____ _____    ______ ____
ROOT
ATOM      1  C   UNL     1      47.685   8.469  14.306  0.00  0.00    +0.000 C 
ENDROOT
BRANCH   1   2
ATOM      2  C   UNL     1      46.804   7.711  13.309  0.00  0.00    +0.000 A 
ATOM      3  C   UNL     1      46.978   6.326  13.151  0.00  0.00    +0.000 A 
ATOM      4  C   UNL     1      46.161   5.588  12.283  0.00  0.00    +0.000 A 
ATOM      5  C   UNL     1      45.163   6.217  11.526  0.00  0.00    +0.000 A 
ATOM      6  C   UNL     1      45.002   7.602  11.662  0.00  0.00    +0.000 A 
ATOM      7  C   UNL     1      45.821   8.344  12.527  0.00  0.00    +0.000 A 
BRANCH   5   8
ATOM      8  C   UNL     1      44.289   5.432  10.575  0.00  0.00    +0.000 C 
BRANCH   8   9
ATOM      9  N   UNL     1      45.046   4.751   9.552  0.00  0.00    +0.000 N 
ATOM     10  C   UNL     1      44.829   3.408   9.298  0.00  0.00    +0.000 C 
ATOM     11  O   UNL     1      44.008   2.730   9.900  0.00  0.00    +0.000 OA
ATOM     12  H   UNL     1      45.530   5.305   8.859  0.00  0.00    +0.000 HD
BRANCH  10  13
ATOM     13  C   UNL     1      45.651   2.805   8.204  0.00  0.00    +0.000 A 
ATOM     14  C   UNL     1      46.009   3.548   7.071  0.00  0.00    +0.000 A 
ATOM     15  C   UNL     1      46.818   2.975   6.088  0.00  0.00    +0.000 A 
ATOM     16  C   UNL     1      47.277   1.667   6.231  0.00  0.00    +0.000 A 
ATOM     17  C   UNL     1      46.923   0.923   7.358  0.00  0.00    +0.000 A 
ATOM     18  C   UNL     1      46.114   1.494   8.347  0.00  0.00    +0.000 A 
ENDBRANCH  10  13
ENDBRANCH   8   9
ENDBRANCH   5   8
ENDBRANCH   1   2
BRANCH   1  19
ATOM     19  N   UNL     1      48.637   7.550  14.911  0.00  0.00    +0.000 N 
ATOM     20  C   UNL     1      48.947   7.574  16.246  0.00  0.00    +0.000 C 
ATOM     21  O   UNL     1      48.464   8.402  17.011  0.00  0.00    +0.000 OA
ATOM     22  H   UNL     1      49.209   7.003  14.277  0.00  0.00    +0.000 HD
BRANCH  20  23
ATOM     23  C   UNL     1      49.824   6.497  16.731  0.00  0.00    +0.000 A 
ATOM     24  C   UNL     1      51.142   6.765  17.076  0.00  0.00    +0.000 A 
ATOM     25  S   UNL     1      51.999   5.393  17.629  0.00  0.00    +0.000 S 
ATOM     26  C   UNL     1      50.651   4.385  17.381  0.00  0.00    +0.000 A 
ATOM     27  N   UNL     1      50.718   3.047  17.617  0.00  0.00    +0.000 NA
ATOM     28  C   UNL     1      49.635   2.401  17.341  0.00  0.00    +0.000 A 
ATOM     29  N   UNL     1      48.482   2.975  16.868  0.00  0.00    +0.000 N 
ATOM     30  C   UNL     1      48.349   4.328  16.673  0.00  0.00    +0.000 A 
ATOM     31  O   UNL     1      47.278   4.830  16.346  0.00  0.00    +0.000 OA
ATOM     32  C   UNL     1      49.555   5.093  16.921  0.00  0.00    +0.000 A 
ATOM     33  H   UNL     1      47.660   2.416  16.693  0.00  0.00    +0.000 HD
ENDBRANCH  20  23
ENDBRANCH   1  19
BRANCH   1  35
ATOM     34  N   UNL     1      48.832  10.621  13.270  0.00  0.00    +0.000 NA
ATOM     35  C   UNL     1      48.324   9.662  13.693  0.00  0.00    +0.000 C 
ENDBRANCH   1  35
TORSDOF 7
ENDMDL
MODEL 2
REMARK VINA RESULT:    -8.014      2.423      3.967
REMARK INTER + INTRA:         -12.558
REMARK INTER:                 -11.361
REMARK INTRA:                  -1.197
REMARK UNBOUND:                -1.264
REMARK  Name = 
REMARK  7 active torsions:
REMARK  status: ('A' for Active; 'I' for Inactive)
REMARK    1  A    between atoms: C_2  and  C_3
REMARK    2  A    between atoms: C_3  and  N_4
REMARK    3  A    between atoms: C_3  and  C_17
REMARK    4  A    between atoms: C_5  and  C_7
REMARK    5  A    between atoms: C_20  and  C_21
REMARK    6  A    between atoms: C_21  and  N_22
REMARK    7  A    between atoms: C_23  and  C_25
REMARK                            x       y       z     vdW  Elec       q    Type
REMARK                         _______ _______ _______ _____ _____    ______ ____
ROOT
ATOM      1  C   UNL     1      47.854   4.838  15.719  0.00  0.00    +0.000 C 
ENDROOT
BRANCH   1   2
ATOM      2  C   UNL     1      47.085   4.954  14.399  0.00  0.00    +0.000 A 
ATOM      3  C   UNL     1      46.394   3.835  13.905  0.00  0.00    +0.000 A 
ATOM      4  C   UNL     1      45.641   3.913  12.725  0.00  0.00    +0.000 A 
ATOM      5  C   UNL     1      45.577   5.104  11.990  0.00  0.00    +0.000 A 
ATOM      6  C   UNL     1      46.284   6.215  12.467  0.00  0.00    +0.000 A 
ATOM      7  C   UNL     1      47.043   6.139  13.645  0.00  0.00    +0.000 A 
BRANCH   5   8
ATOM      8  C   UNL     1      44.781   5.192  10.709  0.00  0.00    +0.000 C 
BRANCH   8   9
ATOM      9  N   UNL     1      45.454   4.579   9.589  0.00  0.00    +0.000 N 
ATOM     10  C   UNL     1      45.139   3.287   9.205  0.00  0.00    +0.000 C 
ATOM     11  O   UNL     1      44.298   2.600   9.769  0.00  0.00    +0.000 OA
ATOM     12  H   UNL     1      45.947   5.173   8.936  0.00  0.00    +0.000 HD
BRANCH  10  13
ATOM     13  C   UNL     1      45.880   2.754   8.020  0.00  0.00    +0.000 A 
ATOM     14  C   UNL     1      46.115   3.553   6.893  0.00  0.00    +0.000 A 
ATOM     15  C   UNL     1      46.852   3.046   5.820  0.00  0.00    +0.000 A 
ATOM     16  C   UNL     1      47.358   1.748   5.868  0.00  0.00    +0.000 A 
ATOM     17  C   UNL     1      47.125   0.949   6.989  0.00  0.00    +0.000 A 
ATOM     18  C   UNL     1      46.390   1.454   8.067  0.00  0.00    +0.000 A 
ENDBRANCH  10  13
ENDBRANCH   8   9
ENDBRANCH   5   8
ENDBRANCH   1   2
BRANCH   1  19
ATOM     19  N   UNL     1      48.035   6.163  16.294  0.00  0.00    +0.000 N 
ATOM     20  C   UNL     1      49.269   6.723  16.495  0.00  0.00    +0.000 C 
ATOM     21  O   UNL     1      50.306   6.122  16.234  0.00  0.00    +0.000 OA
ATOM     22  H   UNL     1      47.219   6.592  16.716  0.00  0.00    +0.000 HD
BRANCH  20  23
ATOM     23  C   UNL     1      49.285   8.119  16.959  0.00  0.00    +0.000 A 
ATOM     24  C   UNL     1      50.057   9.069  16.305  0.00  0.00    +0.000 A 
ATOM     25  S   UNL     1      49.936  10.634  16.981  0.00  0.00    +0.000 S 
ATOM     26  C   UNL     1      48.883  10.085  18.199  0.00  0.00    +0.000 A 
ATOM     27  N   UNL     1      48.423  10.926  19.165  0.00  0.00    +0.000 NA
ATOM     28  C   UNL     1      47.672  10.361  20.050  0.00  0.00    +0.000 A 
ATOM     29  N   UNL     1      47.321   9.035  20.047  0.00  0.00    +0.000 N 
ATOM     30  C   UNL     1      47.712   8.164  19.059  0.00  0.00    +0.000 A 
ATOM     31  O   UNL     1      47.305   7.007  19.022  0.00  0.00    +0.000 OA
ATOM     32  C   UNL     1      48.600   8.738  18.067  0.00  0.00    +0.000 A 
ATOM     33  H   UNL     1      46.710   8.660  20.757  0.00  0.00    +0.000 HD
ENDBRANCH  20  23
ENDBRANCH   1  19
BRANCH   1  35
ATOM     34  N   UNL     1      46.703   3.162  17.417  0.00  0.00    +0.000 NA
ATOM     35  C   UNL     1      47.221   3.871  16.652  0.00  0.00    +0.000 C 
ENDBRANCH   1  35
TORSDOF 7
ENDMDL
MODEL 3
REMARK VINA RESULT:    -7.638      1.582      2.063
REMARK INTER + INTRA:         -12.028
REMARK INTER:                 -10.894
REMARK INTRA:                  -1.134
REMARK UNBOUND:                -1.264
REMARK  Name = 
REMARK  7 active torsions:
REMARK  status: ('A' for Active; 'I' for Inactive)
REMARK    1  A    between atoms: C_2  and  C_3
REMARK    2  A    between atoms: C_3  and  N_4
REMARK    3  A    between atoms: C_3  and  C_17
REMARK    4  A    between atoms: C_5  and  C_7
REMARK    5  A    between atoms: C_20  and  C_21
REMARK    6  A    between atoms: C_21  and  N_22
REMARK    7  A    between atoms: C_23  and  C_25
REMARK                            x       y       z     vdW  Elec       q    Type
REMARK                         _______ _______ _______ _____ _____    ______ ____
ROOT
ATOM      1  C   UNL     1      47.832   8.582  14.063  0.00  0.00    +0.000 C 
ENDROOT
BRANCH   1   2
ATOM      2  C   UNL     1      46.900   7.731  13.196  0.00  0.00    +0.000 A 
ATOM      3  C   UNL     1      45.894   8.360  12.443  0.00  0.00    +0.000 A 
ATOM      4  C   UNL     1      45.051   7.621  11.602  0.00  0.00    +0.000 A 
ATOM      5  C   UNL     1      45.170   6.228  11.507  0.00  0.00    +0.000 A 
ATOM      6  C   UNL     1      46.156   5.594  12.274  0.00  0.00    +0.000 A 
ATOM      7  C   UNL     1      46.999   6.330  13.121  0.00  0.00    +0.000 A 
BRANCH   5   8
ATOM      8  C   UNL     1      44.255   5.421  10.615  0.00  0.00    +0.000 C 
BRANCH   8   9
ATOM      9  N   UNL     1      44.955   4.783   9.527  0.00  0.00    +0.000 N 
ATOM     10  C   UNL     1      45.034   3.402   9.459  0.00  0.00    +0.000 C 
ATOM     11  O   UNL     1      44.532   2.655  10.288  0.00  0.00    +0.000 OA
ATOM     12  H   UNL     1      45.150   5.322   8.695  0.00  0.00    +0.000 HD
BRANCH  10  13
ATOM     13  C   UNL     1      45.765   2.843   8.280  0.00  0.00    +0.000 A 
ATOM     14  C   UNL     1      46.070   3.642   7.170  0.00  0.00    +0.000 A 
ATOM     15  C   UNL     1      46.796   3.107   6.104  0.00  0.00    +0.000 A 
ATOM     16  C   UNL     1      47.222   1.780   6.141  0.00  0.00    +0.000 A 
ATOM     17  C   UNL     1      46.920   0.981   7.245  0.00  0.00    +0.000 A 
ATOM     18  C   UNL     1      46.195   1.514   8.317  0.00  0.00    +0.000 A 
ENDBRANCH  10  13
ENDBRANCH   8   9
ENDBRANCH   5   8
ENDBRANCH   1   2
BRANCH   1  19
ATOM     19  N   UNL     1      48.090   7.895  15.320  0.00  0.00    +0.000 N 
ATOM     20  C   UNL     1      48.358   8.559  16.488  0.00  0.00    +0.000 C 
ATOM     21  O   UNL     1      48.434   9.783  16.538  0.00  0.00    +0.000 OA
ATOM     22  H   UNL     1      48.247   6.895  15.269  0.00  0.00    +0.000 HD
BRANCH  20  23
ATOM     23  C   UNL     1      48.464   7.732  17.700  0.00  0.00    +0.000 A 
ATOM     24  C   UNL     1      47.719   8.041  18.830  0.00  0.00    +0.000 A 
ATOM     25  S   UNL     1      47.966   6.960  20.130  0.00  0.00    +0.000 S 
ATOM     26  C   UNL     1      49.112   6.070  19.243  0.00  0.00    +0.000 A 
ATOM     27  N   UNL     1      49.764   5.011  19.796  0.00  0.00    +0.000 NA
ATOM     28  C   UNL     1      50.639   4.460  19.022  0.00  0.00    +0.000 A 
ATOM     29  N   UNL     1      50.908   4.859  17.738  0.00  0.00    +0.000 N 
ATOM     30  C   UNL     1      50.232   5.883  17.119  0.00  0.00    +0.000 A 
ATOM     31  O   UNL     1      50.419   6.156  15.937  0.00  0.00    +0.000 OA
ATOM     32  C   UNL     1      49.273   6.568  17.963  0.00  0.00    +0.000 A 
ATOM     33  H   UNL     1      51.589   4.370  17.176  0.00  0.00    +0.000 HD
ENDBRANCH  20  23
ENDBRANCH   1  19
BRANCH   1  35
ATOM     34  N   UNL     1      50.073   9.260  12.823  0.00  0.00    +0.000 NA
ATOM     35  C   UNL     1      49.069   8.971  13.339  0.00  0.00    +0.000 C 
ENDBRANCH   1  35
TORSDOF 7
ENDMDL
MODEL 4
REMARK VINA RESULT:    -7.523      3.939      6.922
REMARK INTER + INTRA:         -11.866
REMARK INTER:                 -10.748
REMARK INTRA:                  -1.118
REMARK UNBOUND:                -1.264
REMARK  Name = 
REMARK  7 active torsions:
REMARK  status: ('A' for Active; 'I' for Inactive)
REMARK    1  A    between atoms: C_2  and  C_3
REMARK    2  A    between atoms: C_3  and  N_4
REMARK    3  A    between atoms: C_3  and  C_17
REMARK    4  A    between atoms: C_5  and  C_7
REMARK    5  A    between atoms: C_20  and  C_21
REMARK    6  A    between atoms: C_21  and  N_22
REMARK    7  A    between atoms: C_23  and  C_25
REMARK                            x       y       z     vdW  Elec       q    Type
REMARK                         _______ _______ _______ _____ _____    ______ ____
ROOT
ATOM      1  C   UNL     1      46.125   4.958  13.130  0.00  0.00    +0.000 C 
ENDROOT
BRANCH   1   2
ATOM      2  C   UNL     1      45.730   6.378  12.714  0.00  0.00    +0.000 A 
ATOM      3  C   UNL     1      44.724   6.559  11.751  0.00  0.00    +0.000 A 
ATOM      4  C   UNL     1      44.301   7.842  11.378  0.00  0.00    +0.000 A 
ATOM      5  C   UNL     1      44.892   8.984  11.935  0.00  0.00    +0.000 A 
ATOM      6  C   UNL     1      45.913   8.809  12.879  0.00  0.00    +0.000 A 
ATOM      7  C   UNL     1      46.341   7.525  13.251  0.00  0.00    +0.000 A 
BRANCH   5   8
ATOM      8  C   UNL     1      44.454  10.372  11.527  0.00  0.00    +0.000 C 
BRANCH   8   9
ATOM      9  N   UNL     1      43.133  10.704  12.003  0.00  0.00    +0.000 N 
ATOM     10  C   UNL     1      42.044  10.637  11.150  0.00  0.00    +0.000 C 
ATOM     11  O   UNL     1      42.124  10.301   9.977  0.00  0.00    +0.000 OA
ATOM     12  H   UNL     1      42.969  10.724  13.000  0.00  0.00    +0.000 HD
BRANCH  10  13
ATOM     13  C   UNL     1      40.718  10.981  11.750  0.00  0.00    +0.000 A 
ATOM     14  C   UNL     1      39.546  10.328  11.343  0.00  0.00    +0.000 A 
ATOM     15  C   UNL     1      38.329  10.635  11.954  0.00  0.00    +0.000 A 
ATOM     16  C   UNL     1      38.275  11.586  12.972  0.00  0.00    +0.000 A 
ATOM     17  C   UNL     1      39.439  12.239  13.379  0.00  0.00    +0.000 A 
ATOM     18  C   UNL     1      40.662  11.933  12.772  0.00  0.00    +0.000 A 
ENDBRANCH  10  13
ENDBRANCH   8   9
ENDBRANCH   5   8
ENDBRANCH   1   2
BRANCH   1  19
ATOM     19  N   UNL     1      46.611   4.970  14.502  0.00  0.00    +0.000 N 
ATOM     20  C   UNL     1      47.332   3.938  15.044  0.00  0.00    +0.000 C 
ATOM     21  O   UNL     1      47.581   2.917  14.411  0.00  0.00    +0.000 OA
ATOM     22  H   UNL     1      46.242   5.692  15.110  0.00  0.00    +0.000 HD
BRANCH  20  23
ATOM     23  C   UNL     1      47.867   4.155  16.397  0.00  0.00    +0.000 A 
ATOM     24  C   UNL     1      47.535   3.290  17.431  0.00  0.00    +0.000 A 
ATOM     25  S   UNL     1      48.261   3.697  18.924  0.00  0.00    +0.000 S 
ATOM     26  C   UNL     1      49.007   5.069  18.249  0.00  0.00    +0.000 A 
ATOM     27  N   UNL     1      49.757   5.909  19.010  0.00  0.00    +0.000 NA
ATOM     28  C   UNL     1      50.221   6.933  18.375  0.00  0.00    +0.000 A 
ATOM     29  N   UNL     1      50.020   7.183  17.041  0.00  0.00    +0.000 N 
ATOM     30  C   UNL     1      49.322   6.331  16.221  0.00  0.00    +0.000 A 
ATOM     31  O   UNL     1      49.240   6.523  15.012  0.00  0.00    +0.000 OA
ATOM     32  C   UNL     1      48.736   5.190  16.898  0.00  0.00    +0.000 A 
ATOM     33  H   UNL     1      50.431   7.991  16.599  0.00  0.00    +0.000 HD
ENDBRANCH  20  23
ENDBRANCH   1  19
BRANCH   1  35
ATOM     34  N   UNL     1      44.162   3.212  12.786  0.00  0.00    +0.000 NA
ATOM     35  C   UNL     1      45.028   3.983  12.902  0.00  0.00    +0.000 C 
ENDBRANCH   1  35
TORSDOF 7
ENDMDL
MODEL 5
REMARK VINA RESULT:    -7.337      1.980      2.647
REMARK INTER + INTRA:         -11.603
REMARK INTER:                 -10.346
REMARK INTRA:                  -1.258
REMARK UNBOUND:                -1.264
REMARK  Name = 
REMARK  7 active torsions:
REMARK  status: ('A' for Active; 'I' for Inactive)
REMARK    1  A    between atoms: C_2  and  C_3
REMARK    2  A    between atoms: C_3  and  N_4
REMARK    3  A    between atoms: C_3  and  C_17
REMARK    4  A    between atoms: C_5  and  C_7
REMARK    5  A    between atoms: C_20  and  C_21
REMARK    6  A    between atoms: C_21  and  N_22
REMARK    7  A    between atoms: C_23  and  C_25
REMARK                            x       y       z     vdW  Elec       q    Type
REMARK                         _______ _______ _______ _____ _____    ______ ____
ROOT
ATOM      1  C   UNL     1      47.031   8.059  13.916  0.00  0.00    +0.000 C 
ENDROOT
BRANCH   1   2
ATOM      2  C   UNL     1      46.314   6.893  13.227  0.00  0.00    +0.000 A 
ATOM      3  C   UNL     1      46.680   5.575  13.546  0.00  0.00    +0.000 A 
ATOM      4  C   UNL     1      46.017   4.481  12.972  0.00  0.00    +0.000 A 
ATOM      5  C   UNL     1      44.987   4.672  12.041  0.00  0.00    +0.000 A 
ATOM      6  C   UNL     1      44.636   5.985  11.702  0.00  0.00    +0.000 A 
ATOM      7  C   UNL     1      45.300   7.082  12.271  0.00  0.00    +0.000 A 
BRANCH   5   8
ATOM      8  C   UNL     1      44.278   3.499  11.405  0.00  0.00    +0.000 C 
BRANCH   8   9
ATOM      9  N   UNL     1      45.034   2.906  10.327  0.00  0.00    +0.000 N 
ATOM     10  C   UNL     1      44.918   3.397   9.038  0.00  0.00    +0.000 C 
ATOM     11  O   UNL     1      44.193   4.334   8.734  0.00  0.00    +0.000 OA
ATOM     12  H   UNL     1      45.829   2.325  10.556  0.00  0.00    +0.000 HD
BRANCH  10  13
ATOM     13  C   UNL     1      45.760   2.725   8.001  0.00  0.00    +0.000 A 
ATOM     14  C   UNL     1      46.154   3.400   6.838  0.00  0.00    +0.000 A 
ATOM     15  C   UNL     1      46.981   2.764   5.909  0.00  0.00    +0.000 A 
ATOM     16  C   UNL     1      47.421   1.461   6.137  0.00  0.00    +0.000 A 
ATOM     17  C   UNL     1      47.030   0.786   7.294  0.00  0.00    +0.000 A 
ATOM     18  C   UNL     1      46.204   1.419   8.229  0.00  0.00    +0.000 A 
ENDBRANCH  10  13
ENDBRANCH   8   9
ENDBRANCH   5   8
ENDBRANCH   1   2
BRANCH   1  19
ATOM     19  N   UNL     1      48.253   7.576  14.543  0.00  0.00    +0.000 N 
ATOM     20  C   UNL     1      48.700   8.040  15.752  0.00  0.00    +0.000 C 
ATOM     21  O   UNL     1      48.112   8.924  16.367  0.00  0.00    +0.000 OA
ATOM     22  H   UNL     1      48.868   7.011  13.969  0.00  0.00    +0.000 HD
BRANCH  20  23
ATOM     23  C   UNL     1      49.876   7.360  16.318  0.00  0.00    +0.000 A 
ATOM     24  C   UNL     1      49.783   6.688  17.529  0.00  0.00    +0.000 A 
ATOM     25  S   UNL     1      51.247   5.952  18.017  0.00  0.00    +0.000 S 
ATOM     26  C   UNL     1      52.064   6.547  16.649  0.00  0.00    +0.000 A 
ATOM     27  N   UNL     1      53.393   6.317  16.467  0.00  0.00    +0.000 NA
ATOM     28  C   UNL     1      53.890   6.869  15.410  0.00  0.00    +0.000 A 
ATOM     29  N   UNL     1      53.174   7.613  14.507  0.00  0.00    +0.000 N 
ATOM     30  C   UNL     1      51.820   7.819  14.618  0.00  0.00    +0.000 A 
ATOM     31  O   UNL     1      51.183   8.402  13.746  0.00  0.00    +0.000 OA
ATOM     32  C   UNL     1      51.223   7.262  15.816  0.00  0.00    +0.000 A 
ATOM     33  H   UNL     1      53.618   7.998  13.687  0.00  0.00    +0.000 HD
ENDBRANCH  20  23
ENDBRANCH   1  19
BRANCH   1  35
ATOM     34  N   UNL     1      47.483  10.071  12.252  0.00  0.00    +0.000 NA
ATOM     35  C   UNL     1      47.254   9.202  12.993  0.00  0.00    +0.000 C 
ENDBRANCH   1  35
TORSDOF 7
ENDMDL
MODEL 6
REMARK VINA RESULT:    -7.141      4.169      5.181
REMARK INTER + INTRA:         -11.328
REMARK INTER:                 -10.102
REMARK INTRA:                  -1.226
REMARK UNBOUND:                -1.264
REMARK  Name = 
REMARK  7 active torsions:
REMARK  status: ('A' for Active; 'I' for Inactive)
REMARK    1  A    between atoms: C_2  and  C_3
REMARK    2  A    between atoms: C_3  and  N_4
REMARK    3  A    between atoms: C_3  and  C_17
REMARK    4  A    between atoms: C_5  and  C_7
REMARK    5  A    between atoms: C_20  and  C_21
REMARK    6  A    between atoms: C_21  and  N_22
REMARK    7  A    between atoms: C_23  and  C_25
REMARK                            x       y       z     vdW  Elec       q    Type
REMARK                         _______ _______ _______ _____ _____    ______ ____
ROOT
ATOM      1  C   UNL     1      46.660  10.056  12.259  0.00  0.00    +0.000 C 
ENDROOT
BRANCH   1   2
ATOM      2  C   UNL     1      46.100   8.639  12.105  0.00  0.00    +0.000 A 
ATOM      3  C   UNL     1      44.798   8.463  11.606  0.00  0.00    +0.000 A 
ATOM      4  C   UNL     1      44.266   7.182  11.407  0.00  0.00    +0.000 A 
ATOM      5  C   UNL     1      45.010   6.037  11.725  0.00  0.00    +0.000 A 
ATOM      6  C   UNL     1      46.299   6.208  12.244  0.00  0.00    +0.000 A 
ATOM      7  C   UNL     1      46.833   7.489  12.450  0.00  0.00    +0.000 A 
BRANCH   5   8
ATOM      8  C   UNL     1      44.438   4.652  11.528  0.00  0.00    +0.000 C 
BRANCH   8   9
ATOM      9  N   UNL     1      45.188   3.868  10.576  0.00  0.00    +0.000 N 
ATOM     10  C   UNL     1      44.808   3.832   9.245  0.00  0.00    +0.000 C 
ATOM     11  O   UNL     1      43.846   4.442   8.800  0.00  0.00    +0.000 OA
ATOM     12  H   UNL     1      46.122   3.570  10.823  0.00  0.00    +0.000 HD
BRANCH  10  13
ATOM     13  C   UNL     1      45.666   3.007   8.339  0.00  0.00    +0.000 A 
ATOM     14  C   UNL     1      45.864   1.640   8.575  0.00  0.00    +0.000 A 
ATOM     15  C   UNL     1      46.629   0.882   7.685  0.00  0.00    +0.000 A 
ATOM     16  C   UNL     1      47.193   1.481   6.560  0.00  0.00    +0.000 A 
ATOM     17  C   UNL     1      46.998   2.842   6.322  0.00  0.00    +0.000 A 
ATOM     18  C   UNL     1      46.230   3.604   7.209  0.00  0.00    +0.000 A 
ENDBRANCH  10  13
ENDBRANCH   8   9
ENDBRANCH   5   8
ENDBRANCH   1   2
BRANCH   1  19
ATOM     19  N   UNL     1      47.905  10.171  11.515  0.00  0.00    +0.000 N 
ATOM     20  C   UNL     1      49.121  10.344  12.124  0.00  0.00    +0.000 C 
ATOM     21  O   UNL     1      49.229  10.450  13.341  0.00  0.00    +0.000 OA
ATOM     22  H   UNL     1      47.827  10.304  10.513  0.00  0.00    +0.000 HD
BRANCH  20  23
ATOM     23  C   UNL     1      50.301  10.308  11.246  0.00  0.00    +0.000 A 
ATOM     24  C   UNL     1      50.775  11.473  10.658  0.00  0.00    +0.000 A 
ATOM     25  S   UNL     1      52.159  11.233   9.684  0.00  0.00    +0.000 S 
ATOM     26  C   UNL     1      52.143   9.558   9.978  0.00  0.00    +0.000 A 
ATOM     27  N   UNL     1      53.052   8.731   9.395  0.00  0.00    +0.000 NA
ATOM     28  C   UNL     1      52.890   7.480   9.671  0.00  0.00    +0.000 A 
ATOM     29  N   UNL     1      51.913   6.982  10.496  0.00  0.00    +0.000 N 
ATOM     30  C   UNL     1      51.013   7.784  11.154  0.00  0.00    +0.000 A 
ATOM     31  O   UNL     1      50.214   7.327  11.964  0.00  0.00    +0.000 OA
ATOM     32  C   UNL     1      51.121   9.195  10.837  0.00  0.00    +0.000 A 
ATOM     33  H   UNL     1      51.855   5.993  10.690  0.00  0.00    +0.000 HD
ENDBRANCH  20  23
ENDBRANCH   1  19
BRANCH   1  35
ATOM     34  N   UNL     1      44.857  11.909  11.678  0.00  0.00    +0.000 NA
ATOM     35  C   UNL     1      45.660  11.094  11.900  0.00  0.00    +0.000 C 
ENDBRANCH   1  35
TORSDOF 7
ENDMDL
MODEL 7
REMARK VINA RESULT:    -7.064      2.414      4.961
REMARK INTER + INTRA:         -11.219
REMARK INTER:                  -9.877
REMARK INTRA:                  -1.342
REMARK UNBOUND:                -1.264
REMARK  Name = 
REMARK  7 active torsions:
REMARK  status: ('A' for Active; 'I' for Inactive)
REMARK    1  A    between atoms: C_2  and  C_3
REMARK    2  A    between atoms: C_3  and  N_4
REMARK    3  A    between atoms: C_3  and  C_17
REMARK    4  A    between atoms: C_5  and  C_7
REMARK    5  A    between atoms: C_20  and  C_21
REMARK    6  A    between atoms: C_21  and  N_22
REMARK    7  A    between atoms: C_23  and  C_25
REMARK                            x       y       z     vdW  Elec       q    Type
REMARK                         _______ _______ _______ _____ _____    ______ ____
ROOT
ATOM      1  C   UNL     1      48.335   5.930  15.285  0.00  0.00    +0.000 C 
ENDROOT
BRANCH   1   2
ATOM      2  C   UNL     1      47.357   5.237  14.332  0.00  0.00    +0.000 A 
ATOM      3  C   UNL     1      46.611   6.011  13.428  0.00  0.00    +0.000 A 
ATOM      4  C   UNL     1      45.740   5.411  12.508  0.00  0.00    +0.000 A 
ATOM      5  C   UNL     1      45.569   4.020  12.481  0.00  0.00    +0.000 A 
ATOM      6  C   UNL     1      46.294   3.246  13.397  0.00  0.00    +0.000 A 
ATOM      7  C   UNL     1      47.162   3.844  14.322  0.00  0.00    +0.000 A 
BRANCH   5   8
ATOM      8  C   UNL     1      44.620   3.366  11.504  0.00  0.00    +0.000 C 
BRANCH   8   9
ATOM      9  N   UNL     1      45.294   2.829  10.345  0.00  0.00    +0.000 N 
ATOM     10  C   UNL     1      45.093   3.390   9.096  0.00  0.00    +0.000 C 
ATOM     11  O   UNL     1      44.357   4.347   8.895  0.00  0.00    +0.000 OA
ATOM     12  H   UNL     1      46.097   2.232  10.487  0.00  0.00    +0.000 HD
BRANCH  10  13
ATOM     13  C   UNL     1      45.855   2.771   7.967  0.00  0.00    +0.000 A 
ATOM     14  C   UNL     1      46.159   3.502   6.811  0.00  0.00    +0.000 A 
ATOM     15  C   UNL     1      46.914   2.914   5.794  0.00  0.00    +0.000 A 
ATOM     16  C   UNL     1      47.371   1.604   5.926  0.00  0.00    +0.000 A 
ATOM     17  C   UNL     1      47.068   0.873   7.076  0.00  0.00    +0.000 A 
ATOM     18  C   UNL     1      46.315   1.458   8.099  0.00  0.00    +0.000 A 
ENDBRANCH  10  13
ENDBRANCH   8   9
ENDBRANCH   5   8
ENDBRANCH   1   2
BRANCH   1  19
ATOM     19  N   UNL     1      48.276   7.370  15.080  0.00  0.00    +0.000 N 
ATOM     20  C   UNL     1      49.392   8.165  15.077  0.00  0.00    +0.000 C 
ATOM     21  O   UNL     1      50.513   7.713  15.287  0.00  0.00    +0.000 OA
ATOM     22  H   UNL     1      47.359   7.799  15.120  0.00  0.00    +0.000 HD
BRANCH  20  23
ATOM     23  C   UNL     1      49.186   9.578  14.723  0.00  0.00    +0.000 A 
ATOM     24  C   UNL     1      49.354  10.574  15.676  0.00  0.00    +0.000 A 
ATOM     25  S   UNL     1      49.082  12.150  15.075  0.00  0.00    +0.000 S 
ATOM     26  C   UNL     1      48.685  11.552  13.533  0.00  0.00    +0.000 A 
ATOM     27  N   UNL     1      48.301  12.387  12.530  0.00  0.00    +0.000 NA
ATOM     28  C   UNL     1      47.984  11.790  11.430  0.00  0.00    +0.000 A 
ATOM     29  N   UNL     1      48.037  10.433  11.234  0.00  0.00    +0.000 N 
ATOM     30  C   UNL     1      48.477   9.558  12.197  0.00  0.00    +0.000 A 
ATOM     31  O   UNL     1      48.611   8.361  11.967  0.00  0.00    +0.000 OA
ATOM     32  C   UNL     1      48.796  10.175  13.469  0.00  0.00    +0.000 A 
ATOM     33  H   UNL     1      47.798  10.030  10.340  0.00  0.00    +0.000 HD
ENDBRANCH  20  23
ENDBRANCH   1  19
BRANCH   1  35
ATOM     34  N   UNL     1      47.921   5.158  17.786  0.00  0.00    +0.000 NA
ATOM     35  C   UNL     1      48.118   5.527  16.699  0.00  0.00    +0.000 C 
ENDBRANCH   1  35
TORSDOF 7
ENDMDL
MODEL 8
REMARK VINA RESULT:    -6.833      4.393     10.630
REMARK INTER + INTRA:         -10.894
REMARK INTER:                 -10.442
REMARK INTRA:                  -0.452
REMARK UNBOUND:                -1.264
REMARK  Name = 
REMARK  7 active torsions:
REMARK  status: ('A' for Active; 'I' for Inactive)
REMARK    1  A    between atoms: C_2  and  C_3
REMARK    2  A    between atoms: C_3  and  N_4
REMARK    3  A    between atoms: C_3  and  C_17
REMARK    4  A    between atoms: C_5  and  C_7
REMARK    5  A    between atoms: C_20  and  C_21
REMARK    6  A    between atoms: C_21  and  N_22
REMARK    7  A    between atoms: C_23  and  C_25
REMARK                            x       y       z     vdW  Elec       q    Type
REMARK                         _______ _______ _______ _____ _____    ______ ____
ROOT
ATOM      1  C   UNL     1      47.390   3.534  16.723  0.00  0.00    +0.000 C 
ENDROOT
BRANCH   1   2
ATOM      2  C   UNL     1      47.671   4.265  18.039  0.00  0.00    +0.000 A 
ATOM      3  C   UNL     1      46.953   5.432  18.345  0.00  0.00    +0.000 A 
ATOM      4  C   UNL     1      47.148   6.105  19.560  0.00  0.00    +0.000 A 
ATOM      5  C   UNL     1      48.086   5.645  20.494  0.00  0.00    +0.000 A 
ATOM      6  C   UNL     1      48.821   4.494  20.182  0.00  0.00    +0.000 A 
ATOM      7  C   UNL     1      48.632   3.822  18.965  0.00  0.00    +0.000 A 
BRANCH   5   8
ATOM      8  C   UNL     1      48.314   6.372  21.798  0.00  0.00    +0.000 C 
BRANCH   8   9
ATOM      9  N   UNL     1      47.614   7.633  21.866  0.00  0.00    +0.000 N 
ATOM     10  C   UNL     1      48.274   8.816  21.581  0.00  0.00    +0.000 C 
ATOM     11  O   UNL     1      49.454   8.873  21.263  0.00  0.00    +0.000 OA
ATOM     12  H   UNL     1      46.603   7.626  21.857  0.00  0.00    +0.000 HD
BRANCH  10  13
ATOM     13  C   UNL     1      47.451  10.063  21.660  0.00  0.00    +0.000 A 
ATOM     14  C   UNL     1      48.016  11.322  21.417  0.00  0.00    +0.000 A 
ATOM     15  C   UNL     1      47.214  12.464  21.450  0.00  0.00    +0.000 A 
ATOM     16  C   UNL     1      45.850  12.357  21.718  0.00  0.00    +0.000 A 
ATOM     17  C   UNL     1      45.284  11.105  21.961  0.00  0.00    +0.000 A 
ATOM     18  C   UNL     1      46.083   9.957  21.927  0.00  0.00    +0.000 A 
ENDBRANCH  10  13
ENDBRANCH   8   9
ENDBRANCH   5   8
ENDBRANCH   1   2
BRANCH   1  19
ATOM     19  N   UNL     1      47.011   4.499  15.702  0.00  0.00    +0.000 N 
ATOM     20  C   UNL     1      46.809   4.153  14.391  0.00  0.00    +0.000 C 
ATOM     21  O   UNL     1      46.974   3.006  13.989  0.00  0.00    +0.000 OA
ATOM     22  H   UNL     1      47.078   5.479  15.953  0.00  0.00    +0.000 HD
BRANCH  20  23
ATOM     23  C   UNL     1      46.299   5.213  13.507  0.00  0.00    +0.000 A 
ATOM     24  C   UNL     1      47.067   6.340  13.247  0.00  0.00    +0.000 A 
ATOM     25  S   UNL     1      46.313   7.452  12.190  0.00  0.00    +0.000 S 
ATOM     26  C   UNL     1      44.917   6.487  12.082  0.00  0.00    +0.000 A 
ATOM     27  N   UNL     1      43.838   6.886  11.357  0.00  0.00    +0.000 NA
ATOM     28  C   UNL     1      42.834   6.076  11.404  0.00  0.00    +0.000 A 
ATOM     29  N   UNL     1      42.817   4.891  12.095  0.00  0.00    +0.000 N 
ATOM     30  C   UNL     1      43.903   4.419  12.790  0.00  0.00    +0.000 A 
ATOM     31  O   UNL     1      43.900   3.311  13.317  0.00  0.00    +0.000 OA
ATOM     32  C   UNL     1      45.041   5.317  12.810  0.00  0.00    +0.000 A 
ATOM     33  H   UNL     1      42.007   4.290  12.072  0.00  0.00    +0.000 HD
ENDBRANCH  20  23
ENDBRANCH   1  19
BRANCH   1  35
ATOM     34  N   UNL     1      49.385   1.930  16.037  0.00  0.00    +0.000 NA
ATOM     35  C   UNL     1      48.521   2.660  16.316  0.00  0.00    +0.000 C 
ENDBRANCH   1  35
TORSDOF 7
ENDMDL
MODEL 9
REMARK VINA RESULT:    -6.747      1.928      2.737
REMARK INTER + INTRA:         -10.773
REMARK INTER:                  -9.873
REMARK INTRA:                  -0.900
REMARK UNBOUND:                -1.264
REMARK  Name = 
REMARK  7 active torsions:
REMARK  status: ('A' for Active; 'I' for Inactive)
REMARK    1  A    between atoms: C_2  and  C_3
REMARK    2  A    between atoms: C_3  and  N_4
REMARK    3  A    between atoms: C_3  and  C_17
REMARK    4  A    between atoms: C_5  and  C_7
REMARK    5  A    between atoms: C_20  and  C_21
REMARK    6  A    between atoms: C_21  and  N_22
REMARK    7  A    between atoms: C_23  and  C_25
REMARK                            x       y       z     vdW  Elec       q    Type
REMARK                         _______ _______ _______ _____ _____    ______ ____
ROOT
ATOM      1  C   UNL     1      47.920   8.975  14.223  0.00  0.00    +0.000 C 
ENDROOT
BRANCH   1   2
ATOM      2  C   UNL     1      47.026   8.124  13.315  0.00  0.00    +0.000 A 
ATOM      3  C   UNL     1      47.287   6.750  13.185  0.00  0.00    +0.000 A 
ATOM      4  C   UNL     1      46.465   5.928  12.401  0.00  0.00    +0.000 A 
ATOM      5  C   UNL     1      45.374   6.461  11.702  0.00  0.00    +0.000 A 
ATOM      6  C   UNL     1      45.125   7.835  11.810  0.00  0.00    +0.000 A 
ATOM      7  C   UNL     1      45.948   8.661  12.590  0.00  0.00    +0.000 A 
BRANCH   5   8
ATOM      8  C   UNL     1      44.492   5.586  10.841  0.00  0.00    +0.000 C 
BRANCH   8   9
ATOM      9  N   UNL     1      45.233   4.866   9.833  0.00  0.00    +0.000 N 
ATOM     10  C   UNL     1      44.832   3.601   9.439  0.00  0.00    +0.000 C 
ATOM     11  O   UNL     1      43.856   3.027   9.901  0.00  0.00    +0.000 OA
ATOM     12  H   UNL     1      45.867   5.382   9.238  0.00  0.00    +0.000 HD
BRANCH  10  13
ATOM     13  C   UNL     1      45.656   2.952   8.372  0.00  0.00    +0.000 A 
ATOM     14  C   UNL     1      46.014   1.601   8.454  0.00  0.00    +0.000 A 
ATOM     15  C   UNL     1      46.743   1.008   7.421  0.00  0.00    +0.000 A 
ATOM     16  C   UNL     1      47.112   1.756   6.304  0.00  0.00    +0.000 A 
ATOM     17  C   UNL     1      46.757   3.103   6.219  0.00  0.00    +0.000 A 
ATOM     18  C   UNL     1      46.024   3.701   7.251  0.00  0.00    +0.000 A 
ENDBRANCH  10  13
ENDBRANCH   8   9
ENDBRANCH   5   8
ENDBRANCH   1   2
BRANCH   1  19
ATOM     19  N   UNL     1      48.494   8.136  15.264  0.00  0.00    +0.000 N 
ATOM     20  C   UNL     1      48.368   8.420  16.600  0.00  0.00    +0.000 C 
ATOM     21  O   UNL     1      47.791   9.426  16.999  0.00  0.00    +0.000 OA
ATOM     22  H   UNL     1      49.153   7.426  14.967  0.00  0.00    +0.000 HD
BRANCH  20  23
ATOM     23  C   UNL     1      48.887   7.408  17.533  0.00  0.00    +0.000 A 
ATOM     24  C   UNL     1      48.391   6.111  17.511  0.00  0.00    +0.000 A 
ATOM     25  S   UNL     1      49.124   5.078  18.659  0.00  0.00    +0.000 S 
ATOM     26  C   UNL     1      50.096   6.341  19.255  0.00  0.00    +0.000 A 
ATOM     27  N   UNL     1      50.944   6.145  20.301  0.00  0.00    +0.000 NA
ATOM     28  C   UNL     1      51.582   7.203  20.676  0.00  0.00    +0.000 A 
ATOM     29  N   UNL     1      51.464   8.436  20.087  0.00  0.00    +0.000 N 
ATOM     30  C   UNL     1      50.668   8.667  18.993  0.00  0.00    +0.000 A 
ATOM     31  O   UNL     1      50.655   9.752  18.421  0.00  0.00    +0.000 OA
ATOM     32  C   UNL     1      49.891   7.521  18.563  0.00  0.00    +0.000 A 
ATOM     33  H   UNL     1      52.010   9.219  20.415  0.00  0.00    +0.000 HD
ENDBRANCH  20  23
ENDBRANCH   1  19
BRANCH   1  35
ATOM     34  N   UNL     1      49.686  10.370  12.825  0.00  0.00    +0.000 NA
ATOM     35  C   UNL     1      48.936   9.737  13.452  0.00  0.00    +0.000 C 
ENDBRANCH   1  35
TORSDOF 7
ENDMDL
