MODEL 1
REMARK VINA RESULT:    -8.771      0.000      0.000
REMARK INTER + INTRA:         -12.186
REMARK INTER:                 -11.334
REMARK INTRA:                  -0.852
REMARK UNBOUND:                -0.852
REMARK  Name = 
REMARK  5 active torsions:
REMARK  status: ('A' for Active; 'I' for Inactive)
REMARK    1  A    between atoms: C_2  and  C_20
REMARK    2  A    between atoms: N_3  and  C_4
REMARK    3  A    between atoms: C_4  and  C_5
REMARK    4  A    between atoms: C_8  and  C_9
REMARK    5  A    between atoms: C_9  and  N_10
REMARK                            x       y       z     vdW  Elec       q    Type
REMARK                         _______ _______ _______ _____ _____    ______ ____
ROOT
ATOM      1  C   UNL     1      48.380   6.595  13.905  0.00  0.00    +0.000 C 
ENDROOT
BRANCH   1   2
ATOM      2  C   UNL     1      47.134   6.166  13.175  0.00  0.00    +0.000 A 
ATOM      3  C   UNL     1      46.524   4.946  13.482  0.00  0.00    +0.000 A 
ATOM      4  C   UNL     1      45.377   4.534  12.799  0.00  0.00    +0.000 A 
ATOM      5  C   UNL     1      44.831   5.324  11.777  0.00  0.00    +0.000 A 
ATOM      6  C   UNL     1      45.442   6.547  11.469  0.00  0.00    +0.000 A 
ATOM      7  C   UNL     1      46.588   6.959  12.155  0.00  0.00    +0.000 A 
BRANCH   5   8
ATOM      8  C   UNL     1      43.613   4.855  11.018  0.00  0.00    +0.000 C 
BRANCH   8   9
ATOM      9  N   UNL     1      43.864   4.887   9.592  0.00  0.00    +0.000 N 
ATOM     10  C   UNL     1      44.717   3.964   9.019  0.00  0.00    +0.000 A 
ATOM     11  C   UNL     1      44.828   2.648   9.462  0.00  0.00    +0.000 A 
ATOM     12  C   UNL     1      45.657   1.752   8.785  0.00  0.00    +0.000 A 
ATOM     13  C   UNL     1      46.341   2.185   7.662  0.00  0.00    +0.000 A 
ATOM     14 CL   UNL     1      47.345   1.112   6.777  0.00  0.00    +0.000 Cl
ATOM     15  C   UNL     1      46.179   3.504   7.276  0.00  0.00    +0.000 A 
ATOM     16  N   UNL     1      45.394   4.396   7.934  0.00  0.00    +0.000 NA
ATOM     17  H   UNL     1      44.064   5.803   9.200  0.00  0.00    +0.000 HD
ENDBRANCH   8   9
ENDBRANCH   5   8
ENDBRANCH   1   2
BRANCH   1  20
ATOM     18  O   UNL     1      50.272   6.212  15.958  0.00  0.00    +0.000 OA
ATOM     19  C   UNL     1      49.132   6.561  16.254  0.00  0.00    +0.000 C 
ATOM     20  N   UNL     1      48.140   6.705  15.322  0.00  0.00    +0.000 N 
ATOM     21  H   UNL     1      47.278   7.167  15.587  0.00  0.00    +0.000 HD
BRANCH  19  22
ATOM     22  C   UNL     1      48.743   6.793  17.653  0.00  0.00    +0.000 A 
ATOM     23  C   UNL     1      48.327   8.057  18.053  0.00  0.00    +0.000 A 
ATOM     24  S   UNL     1      47.933   8.155  19.708  0.00  0.00    +0.000 S 
ATOM     25  C   UNL     1      48.258   6.503  19.943  0.00  0.00    +0.000 A 
ATOM     26  N   UNL     1      48.089   5.920  21.158  0.00  0.00    +0.000 NA
ATOM     27  C   UNL     1      48.326   4.654  21.183  0.00  0.00    +0.000 A 
ATOM     28  N   UNL     1      48.731   3.914  20.103  0.00  0.00    +0.000 N 
ATOM     29  C   UNL     1      48.991   4.472  18.875  0.00  0.00    +0.000 A 
ATOM     30  O   UNL     1      49.481   3.805  17.967  0.00  0.00    +0.000 OA
ATOM     31  C   UNL     1      48.690   5.888  18.777  0.00  0.00    +0.000 A 
ATOM     32  H   UNL     1      48.931   2.929  20.195  0.00  0.00    +0.000 HD
ENDBRANCH  19  22
ENDBRANCH   1  20
TORSDOF 5
ENDMDL
MODEL 2
REMARK VINA RESULT:    -8.635      1.613      1.991
REMARK INTER + INTRA:         -12.011
REMARK INTER:                 -11.028
REMARK INTRA:                  -0.983
REMARK UNBOUND:                -0.852
REMARK  Name = 
REMARK  5 active torsions:
REMARK  status: ('A' for Active; 'I' for Inactive)
REMARK    1  A    between atoms: C_2  and  C_20
REMARK    2  A    between atoms: N_3  and  C_4
REMARK    3  A    between atoms: C_4  and  C_5
REMARK    4  A    between atoms: C_8  and  C_9
REMARK    5  A    between atoms: C_9  and  N_10
REMARK                            x       y       z     vdW  Elec       q    Type
REMARK                         _______ _______ _______ _____ _____    ______ ____
ROOT
ATOM      1  C   UNL     1      47.240   8.048  13.655  0.00  0.00    +0.000 C 
ENDROOT
BRANCH   1   2
ATOM      2  C   UNL     1      46.304   7.156  12.881  0.00  0.00    +0.000 A 
ATOM      3  C   UNL     1      45.237   7.710  12.164  0.00  0.00    +0.000 A 
ATOM      4  C   UNL     1      44.357   6.889  11.457  0.00  0.00    +0.000 A 
ATOM      5  C   UNL     1      44.509   5.494  11.472  0.00  0.00    +0.000 A 
ATOM      6  C   UNL     1      45.578   4.940  12.189  0.00  0.00    +0.000 A 
ATOM      7  C   UNL     1      46.460   5.763  12.895  0.00  0.00    +0.000 A 
BRANCH   5   8
ATOM      8  C   UNL     1      43.531   4.612  10.735  0.00  0.00    +0.000 C 
BRANCH   8   9
ATOM      9  N   UNL     1      43.797   4.643   9.312  0.00  0.00    +0.000 N 
ATOM     10  C   UNL     1      44.741   3.795   8.765  0.00  0.00    +0.000 A 
ATOM     11  C   UNL     1      44.972   2.504   9.234  0.00  0.00    +0.000 A 
ATOM     12  C   UNL     1      45.891   1.680   8.583  0.00  0.00    +0.000 A 
ATOM     13  C   UNL     1      46.545   2.157   7.460  0.00  0.00    +0.000 A 
ATOM     14 CL   UNL     1      47.658   1.169   6.607  0.00  0.00    +0.000 Cl
ATOM     15  C   UNL     1      46.264   3.447   7.049  0.00  0.00    +0.000 A 
ATOM     16  N   UNL     1      45.388   4.271   7.680  0.00  0.00    +0.000 NA
ATOM     17  H   UNL     1      43.913   5.567   8.905  0.00  0.00    +0.000 HD
ENDBRANCH   8   9
ENDBRANCH   5   8
ENDBRANCH   1   2
BRANCH   1  20
ATOM     18  O   UNL     1      49.850   7.050  14.014  0.00  0.00    +0.000 OA
ATOM     19  C   UNL     1      49.049   6.976  14.942  0.00  0.00    +0.000 C 
ATOM     20  N   UNL     1      47.747   7.379  14.826  0.00  0.00    +0.000 N 
ATOM     21  H   UNL     1      47.181   7.468  15.662  0.00  0.00    +0.000 HD
BRANCH  19  22
ATOM     22  C   UNL     1      49.431   6.388  16.236  0.00  0.00    +0.000 A 
ATOM     23  C   UNL     1      50.480   6.941  16.960  0.00  0.00    +0.000 A 
ATOM     24  S   UNL     1      50.802   6.129  18.423  0.00  0.00    +0.000 S 
ATOM     25  C   UNL     1      49.524   5.038  18.166  0.00  0.00    +0.000 A 
ATOM     26  N   UNL     1      49.228   4.075  19.079  0.00  0.00    +0.000 NA
ATOM     27  C   UNL     1      48.207   3.348  18.779  0.00  0.00    +0.000 A 
ATOM     28  N   UNL     1      47.457   3.487  17.641  0.00  0.00    +0.000 N 
ATOM     29  C   UNL     1      47.764   4.392  16.653  0.00  0.00    +0.000 A 
ATOM     30  O   UNL     1      47.153   4.398  15.588  0.00  0.00    +0.000 OA
ATOM     31  C   UNL     1      48.875   5.273  16.963  0.00  0.00    +0.000 A 
ATOM     32  H   UNL     1      46.686   2.865  17.449  0.00  0.00    +0.000 HD
ENDBRANCH  19  22
ENDBRANCH   1  20
TORSDOF 5
ENDMDL
MODEL 3
REMARK VINA RESULT:    -8.611      1.331      2.026
REMARK INTER + INTRA:         -11.980
REMARK INTER:                 -10.893
REMARK INTRA:                  -1.086
REMARK UNBOUND:                -0.852
REMARK  Name = 
REMARK  5 active torsions:
REMARK  status: ('A' for Active; 'I' for Inactive)
REMARK    1  A    between atoms: C_2  and  C_20
REMARK    2  A    between atoms: N_3  and  C_4
REMARK    3  A    between atoms: C_4  and  C_5
REMARK    4  A    between atoms: C_8  and  C_9
REMARK    5  A    between atoms: C_9  and  N_10
REMARK                            x       y       z     vdW  Elec       q    Type
REMARK                         _______ _______ _______ _____ _____    ______ ____
ROOT
ATOM      1  C   UNL     1      48.274   6.679  14.147  0.00  0.00    +0.000 C 
ENDROOT
BRANCH   1   2
ATOM      2  C   UNL     1      47.068   6.222  13.368  0.00  0.00    +0.000 A 
ATOM      3  C   UNL     1      46.528   4.951  13.590  0.00  0.00    +0.000 A 
ATOM      4  C   UNL     1      45.420   4.514  12.862  0.00  0.00    +0.000 A 
ATOM      5  C   UNL     1      44.843   5.330  11.878  0.00  0.00    +0.000 A 
ATOM      6  C   UNL     1      45.383   6.604  11.656  0.00  0.00    +0.000 A 
ATOM      7  C   UNL     1      46.492   7.041  12.386  0.00  0.00    +0.000 A 
BRANCH   5   8
ATOM      8  C   UNL     1      43.668   4.836  11.069  0.00  0.00    +0.000 C 
BRANCH   8   9
ATOM      9  N   UNL     1      43.960   4.920   9.653  0.00  0.00    +0.000 N 
ATOM     10  C   UNL     1      44.791   3.989   9.062  0.00  0.00    +0.000 A 
ATOM     11  C   UNL     1      44.839   2.651   9.449  0.00  0.00    +0.000 A 
ATOM     12  C   UNL     1      45.651   1.753   8.755  0.00  0.00    +0.000 A 
ATOM     13  C   UNL     1      46.383   2.207   7.671  0.00  0.00    +0.000 A 
ATOM     14 CL   UNL     1      47.368   1.134   6.766  0.00  0.00    +0.000 Cl
ATOM     15  C   UNL     1      46.283   3.546   7.340  0.00  0.00    +0.000 A 
ATOM     16  N   UNL     1      45.515   4.440   8.015  0.00  0.00    +0.000 NA
ATOM     17  H   UNL     1      44.205   5.844   9.307  0.00  0.00    +0.000 HD
ENDBRANCH   8   9
ENDBRANCH   5   8
ENDBRANCH   1   2
BRANCH   1  20
ATOM     18  O   UNL     1      50.307   6.169  16.031  0.00  0.00    +0.000 OA
ATOM     19  C   UNL     1      49.146   6.274  16.418  0.00  0.00    +0.000 C 
ATOM     20  N   UNL     1      48.097   6.457  15.559  0.00  0.00    +0.000 N 
ATOM     21  H   UNL     1      47.192   6.719  15.934  0.00  0.00    +0.000 HD
BRANCH  19  22
ATOM     22  C   UNL     1      48.803   6.150  17.843  0.00  0.00    +0.000 A 
ATOM     23  C   UNL     1      49.037   4.952  18.506  0.00  0.00    +0.000 A 
ATOM     24  S   UNL     1      48.564   4.974  20.143  0.00  0.00    +0.000 S 
ATOM     25  C   UNL     1      48.072   6.598  20.040  0.00  0.00    +0.000 A 
ATOM     26  N   UNL     1      47.584   7.254  21.124  0.00  0.00    +0.000 NA
ATOM     27  C   UNL     1      47.293   8.493  20.916  0.00  0.00    +0.000 A 
ATOM     28  N   UNL     1      47.436   9.136  19.715  0.00  0.00    +0.000 N 
ATOM     29  C   UNL     1      47.851   8.495  18.572  0.00  0.00    +0.000 A 
ATOM     30  O   UNL     1      47.838   9.067  17.485  0.00  0.00    +0.000 OA
ATOM     31  C   UNL     1      48.241   7.111  18.762  0.00  0.00    +0.000 A 
ATOM     32  H   UNL     1      47.161  10.101  19.608  0.00  0.00    +0.000 HD
ENDBRANCH  19  22
ENDBRANCH   1  20
TORSDOF 5
ENDMDL
MODEL 4
REMARK VINA RESULT:    -7.888      2.582      4.216
REMARK INTER + INTRA:         -11.046
REMARK INTER:                 -10.002
REMARK INTRA:                  -1.044
REMARK UNBOUND:                -0.852
REMARK  Name = 
REMARK  5 active torsions:
REMARK  status: ('A' for Active; 'I' for Inactive)
REMARK    1  A    between atoms: C_2  and  C_20
REMARK    2  A    between atoms: N_3  and  C_4
REMARK    3  A    between atoms: C_4  and  C_5
REMARK    4  A    between atoms: C_8  and  C_9
REMARK    5  A    between atoms: C_9  and  N_10
REMARK                            x       y       z     vdW  Elec       q    Type
REMARK                         _______ _______ _______ _____ _____    ______ ____
ROOT
ATOM      1  C   UNL     1      47.340   4.697  14.999  0.00  0.00    +0.000 C 
ENDROOT
BRANCH   1   2
ATOM      2  C   UNL     1      46.361   4.567  13.861  0.00  0.00    +0.000 A 
ATOM      3  C   UNL     1      45.639   5.682  13.424  0.00  0.00    +0.000 A 
ATOM      4  C   UNL     1      44.719   5.567  12.380  0.00  0.00    +0.000 A 
ATOM      5  C   UNL     1      44.483   4.327  11.768  0.00  0.00    +0.000 A 
ATOM      6  C   UNL     1      45.206   3.209  12.206  0.00  0.00    +0.000 A 
ATOM      7  C   UNL     1      46.128   3.326  13.250  0.00  0.00    +0.000 A 
BRANCH   5   8
ATOM      8  C   UNL     1      43.460   4.203  10.665  0.00  0.00    +0.000 C 
BRANCH   8   9
ATOM      9  N   UNL     1      44.004   4.692   9.415  0.00  0.00    +0.000 N 
ATOM     10  C   UNL     1      44.978   3.968   8.754  0.00  0.00    +0.000 A 
ATOM     11  C   UNL     1      45.024   2.576   8.747  0.00  0.00    +0.000 A 
ATOM     12  C   UNL     1      45.996   1.915   7.995  0.00  0.00    +0.000 A 
ATOM     13  C   UNL     1      46.891   2.660   7.247  0.00  0.00    +0.000 A 
ATOM     14 CL   UNL     1      48.081   1.892   6.281  0.00  0.00    +0.000 Cl
ATOM     15  C   UNL     1      46.784   4.038   7.298  0.00  0.00    +0.000 A 
ATOM     16  N   UNL     1      45.858   4.701   8.039  0.00  0.00    +0.000 NA
ATOM     17  H   UNL     1      44.260   5.675   9.400  0.00  0.00    +0.000 HD
ENDBRANCH   8   9
ENDBRANCH   5   8
ENDBRANCH   1   2
BRANCH   1  20
ATOM     18  O   UNL     1      49.583   5.509  16.499  0.00  0.00    +0.000 OA
ATOM     19  C   UNL     1      49.025   6.324  15.769  0.00  0.00    +0.000 C 
ATOM     20  N   UNL     1      47.894   6.025  15.059  0.00  0.00    +0.000 N 
ATOM     21  H   UNL     1      47.580   6.665  14.338  0.00  0.00    +0.000 HD
BRANCH  19  22
ATOM     22  C   UNL     1      49.513   7.707  15.656  0.00  0.00    +0.000 A 
ATOM     23  C   UNL     1      49.785   8.438  16.806  0.00  0.00    +0.000 A 
ATOM     24  S   UNL     1      50.323  10.025  16.495  0.00  0.00    +0.000 S 
ATOM     25  C   UNL     1      50.258   9.780  14.814  0.00  0.00    +0.000 A 
ATOM     26  N   UNL     1      50.626  10.759  13.947  0.00  0.00    +0.000 NA
ATOM     27  C   UNL     1      50.572  10.423  12.704  0.00  0.00    +0.000 A 
ATOM     28  N   UNL     1      50.171   9.196  12.244  0.00  0.00    +0.000 N 
ATOM     29  C   UNL     1      49.715   8.202  13.076  0.00  0.00    +0.000 A 
ATOM     30  O   UNL     1      49.237   7.166  12.623  0.00  0.00    +0.000 OA
ATOM     31  C   UNL     1      49.804   8.510  14.492  0.00  0.00    +0.000 A 
ATOM     32  H   UNL     1      50.121   9.005  11.254  0.00  0.00    +0.000 HD
ENDBRANCH  19  22
ENDBRANCH   1  20
TORSDOF 5
ENDMDL
MODEL 5
REMARK VINA RESULT:    -7.669      3.673      5.671
REMARK INTER + INTRA:         -10.762
REMARK INTER:                  -9.592
REMARK INTRA:                  -1.170
REMARK UNBOUND:                -0.852
REMARK  Name = 
REMARK  5 active torsions:
REMARK  status: ('A' for Active; 'I' for Inactive)
REMARK    1  A    between atoms: C_2  and  C_20
REMARK    2  A    between atoms: N_3  and  C_4
REMARK    3  A    between atoms: C_4  and  C_5
REMARK    4  A    between atoms: C_8  and  C_9
REMARK    5  A    between atoms: C_9  and  N_10
REMARK                            x       y       z     vdW  Elec       q    Type
REMARK                         _______ _______ _______ _____ _____    ______ ____
ROOT
ATOM      1  C   UNL     1      48.156   6.247  14.293  0.00  0.00    +0.000 C 
ENDROOT
BRANCH   1   2
ATOM      2  C   UNL     1      46.954   5.906  13.451  0.00  0.00    +0.000 A 
ATOM      3  C   UNL     1      46.278   4.697  13.647  0.00  0.00    +0.000 A 
ATOM      4  C   UNL     1      45.173   4.367  12.860  0.00  0.00    +0.000 A 
ATOM      5  C   UNL     1      44.735   5.229  11.844  0.00  0.00    +0.000 A 
ATOM      6  C   UNL     1      45.411   6.440  11.648  0.00  0.00    +0.000 A 
ATOM      7  C   UNL     1      46.517   6.770  12.437  0.00  0.00    +0.000 A 
BRANCH   5   8
ATOM      8  C   UNL     1      43.562   4.848  10.973  0.00  0.00    +0.000 C 
BRANCH   8   9
ATOM      9  N   UNL     1      43.922   4.942   9.573  0.00  0.00    +0.000 N 
ATOM     10  C   UNL     1      44.776   4.011   9.015  0.00  0.00    +0.000 A 
ATOM     11  C   UNL     1      44.800   2.670   9.393  0.00  0.00    +0.000 A 
ATOM     12  C   UNL     1      45.640   1.774   8.731  0.00  0.00    +0.000 A 
ATOM     13  C   UNL     1      46.424   2.233   7.687  0.00  0.00    +0.000 A 
ATOM     14 CL   UNL     1      47.447   1.162   6.821  0.00  0.00    +0.000 Cl
ATOM     15  C   UNL     1      46.346   3.575   7.362  0.00  0.00    +0.000 A 
ATOM     16  N   UNL     1      45.551   4.467   8.008  0.00  0.00    +0.000 NA
ATOM     17  H   UNL     1      44.187   5.867   9.247  0.00  0.00    +0.000 HD
ENDBRANCH   8   9
ENDBRANCH   5   8
ENDBRANCH   1   2
BRANCH   1  20
ATOM     18  O   UNL     1      49.904   8.147  15.423  0.00  0.00    +0.000 OA
ATOM     19  C   UNL     1      49.926   7.962  14.209  0.00  0.00    +0.000 C 
ATOM     20  N   UNL     1      49.066   7.105  13.578  0.00  0.00    +0.000 N 
ATOM     21  H   UNL     1      49.243   6.850  12.613  0.00  0.00    +0.000 HD
BRANCH  19  22
ATOM     22  C   UNL     1      50.854   8.703  13.341  0.00  0.00    +0.000 A 
ATOM     23  C   UNL     1      52.225   8.525  13.487  0.00  0.00    +0.000 A 
ATOM     24  S   UNL     1      53.154   9.472  12.417  0.00  0.00    +0.000 S 
ATOM     25  C   UNL     1      51.761  10.118  11.687  0.00  0.00    +0.000 A 
ATOM     26  N   UNL     1      51.852  10.995  10.653  0.00  0.00    +0.000 NA
ATOM     27  C   UNL     1      50.719  11.368  10.165  0.00  0.00    +0.000 A 
ATOM     28  N   UNL     1      49.497  10.953  10.624  0.00  0.00    +0.000 N 
ATOM     29  C   UNL     1      49.352  10.130  11.715  0.00  0.00    +0.000 A 
ATOM     30  O   UNL     1      48.243   9.887  12.182  0.00  0.00    +0.000 OA
ATOM     31  C   UNL     1      50.598   9.638  12.272  0.00  0.00    +0.000 A 
ATOM     32  H   UNL     1      48.644  11.307  10.218  0.00  0.00    +0.000 HD
ENDBRANCH  19  22
ENDBRANCH   1  20
TORSDOF 5
ENDMDL
MODEL 6
REMARK VINA RESULT:    -7.479      1.720      2.255
REMARK INTER + INTRA:         -10.517
REMARK INTER:                  -9.645
REMARK INTRA:                  -0.872
REMARK UNBOUND:                -0.852
REMARK  Name = 
REMARK  5 active torsions:
REMARK  status: ('A' for Active; 'I' for Inactive)
REMARK    1  A    between atoms: C_2  and  C_20
REMARK    2  A    between atoms: N_3  and  C_4
REMARK    3  A    between atoms: C_4  and  C_5
REMARK    4  A    between atoms: C_8  and  C_9
REMARK    5  A    between atoms: C_9  and  N_10
REMARK                            x       y       z     vdW  Elec       q    Type
REMARK                         _______ _______ _______ _____ _____    ______ ____
ROOT
ATOM      1  C   UNL     1      48.019   7.431  13.928  0.00  0.00    +0.000 C 
ENDROOT
BRANCH   1   2
ATOM      2  C   UNL     1      46.929   6.707  13.180  0.00  0.00    +0.000 A 
ATOM      3  C   UNL     1      46.133   7.395  12.258  0.00  0.00    +0.000 A 
ATOM      4  C   UNL     1      45.111   6.735  11.573  0.00  0.00    +0.000 A 
ATOM      5  C   UNL     1      44.847   5.379  11.813  0.00  0.00    +0.000 A 
ATOM      6  C   UNL     1      45.645   4.690  12.737  0.00  0.00    +0.000 A 
ATOM      7  C   UNL     1      46.669   5.351  13.421  0.00  0.00    +0.000 A 
BRANCH   5   8
ATOM      8  C   UNL     1      43.717   4.682  11.095  0.00  0.00    +0.000 C 
BRANCH   8   9
ATOM      9  N   UNL     1      43.898   4.773   9.662  0.00  0.00    +0.000 N 
ATOM     10  C   UNL     1      44.743   3.892   9.013  0.00  0.00    +0.000 A 
ATOM     11  C   UNL     1      44.905   2.564   9.400  0.00  0.00    +0.000 A 
ATOM     12  C   UNL     1      45.721   1.715   8.651  0.00  0.00    +0.000 A 
ATOM     13  C   UNL     1      46.340   2.206   7.514  0.00  0.00    +0.000 A 
ATOM     14 CL   UNL     1      47.323   1.192   6.543  0.00  0.00    +0.000 Cl
ATOM     15  C   UNL     1      46.129   3.533   7.187  0.00  0.00    +0.000 A 
ATOM     16  N   UNL     1      45.357   4.381   7.915  0.00  0.00    +0.000 NA
ATOM     17  H   UNL     1      44.057   5.708   9.296  0.00  0.00    +0.000 HD
ENDBRANCH   8   9
ENDBRANCH   5   8
ENDBRANCH   1   2
BRANCH   1  20
ATOM     18  O   UNL     1      48.712   8.516  16.435  0.00  0.00    +0.000 OA
ATOM     19  C   UNL     1      48.689   7.296  16.297  0.00  0.00    +0.000 C 
ATOM     20  N   UNL     1      48.425   6.694  15.097  0.00  0.00    +0.000 N 
ATOM     21  H   UNL     1      48.238   5.697  15.075  0.00  0.00    +0.000 HD
BRANCH  19  22
ATOM     22  C   UNL     1      49.004   6.396  17.417  0.00  0.00    +0.000 A 
ATOM     23  C   UNL     1      48.037   5.514  17.885  0.00  0.00    +0.000 A 
ATOM     24  S   UNL     1      48.561   4.560  19.197  0.00  0.00    +0.000 S 
ATOM     25  C   UNL     1      50.111   5.255  19.159  0.00  0.00    +0.000 A 
ATOM     26  N   UNL     1      51.082   4.854  20.021  0.00  0.00    +0.000 NA
ATOM     27  C   UNL     1      52.222   5.431  19.851  0.00  0.00    +0.000 A 
ATOM     28  N   UNL     1      52.480   6.384  18.901  0.00  0.00    +0.000 N 
ATOM     29  C   UNL     1      51.512   6.878  18.060  0.00  0.00    +0.000 A 
ATOM     30  O   UNL     1      51.745   7.825  17.314  0.00  0.00    +0.000 OA
ATOM     31  C   UNL     1      50.221   6.225  18.174  0.00  0.00    +0.000 A 
ATOM     32  H   UNL     1      53.388   6.822  18.839  0.00  0.00    +0.000 HD
ENDBRANCH  19  22
ENDBRANCH   1  20
TORSDOF 5
ENDMDL
MODEL 7
REMARK VINA RESULT:    -7.425      3.874      5.152
REMARK INTER + INTRA:         -10.447
REMARK INTER:                  -9.587
REMARK INTRA:                  -0.861
REMARK UNBOUND:                -0.852
REMARK  Name = 
REMARK  5 active torsions:
REMARK  status: ('A' for Active; 'I' for Inactive)
REMARK    1  A    between atoms: C_2  and  C_20
REMARK    2  A    between atoms: N_3  and  C_4
REMARK    3  A    between atoms: C_4  and  C_5
REMARK    4  A    between atoms: C_8  and  C_9
REMARK    5  A    between atoms: C_9  and  N_10
REMARK                            x       y       z     vdW  Elec       q    Type
REMARK                         _______ _______ _______ _____ _____    ______ ____
ROOT
ATOM      1  C   UNL     1      47.930   6.255  14.108  0.00  0.00    +0.000 C 
ENDROOT
BRANCH   1   2
ATOM      2  C   UNL     1      46.769   5.836  13.244  0.00  0.00    +0.000 A 
ATOM      3  C   UNL     1      46.064   4.663  13.534  0.00  0.00    +0.000 A 
ATOM      4  C   UNL     1      44.996   4.260  12.730  0.00  0.00    +0.000 A 
ATOM      5  C   UNL     1      44.626   5.010  11.603  0.00  0.00    +0.000 A 
ATOM      6  C   UNL     1      45.331   6.185  11.313  0.00  0.00    +0.000 A 
ATOM      7  C   UNL     1      46.399   6.588  12.120  0.00  0.00    +0.000 A 
BRANCH   5   8
ATOM      8  C   UNL     1      43.494   4.548  10.717  0.00  0.00    +0.000 C 
BRANCH   8   9
ATOM      9  N   UNL     1      43.859   4.680   9.323  0.00  0.00    +0.000 N 
ATOM     10  C   UNL     1      44.809   3.839   8.774  0.00  0.00    +0.000 A 
ATOM     11  C   UNL     1      44.961   2.507   9.152  0.00  0.00    +0.000 A 
ATOM     12  C   UNL     1      45.894   1.700   8.499  0.00  0.00    +0.000 A 
ATOM     13  C   UNL     1      46.641   2.236   7.465  0.00  0.00    +0.000 A 
ATOM     14 CL   UNL     1      47.776   1.274   6.611  0.00  0.00    +0.000 Cl
ATOM     15  C   UNL     1      46.435   3.565   7.141  0.00  0.00    +0.000 A 
ATOM     16  N   UNL     1      45.547   4.372   7.777  0.00  0.00    +0.000 NA
ATOM     17  H   UNL     1      44.036   5.627   9.000  0.00  0.00    +0.000 HD
ENDBRANCH   8   9
ENDBRANCH   5   8
ENDBRANCH   1   2
BRANCH   1  20
ATOM     18  O   UNL     1      49.140   8.728  14.708  0.00  0.00    +0.000 OA
ATOM     19  C   UNL     1      49.521   8.100  13.724  0.00  0.00    +0.000 C 
ATOM     20  N   UNL     1      48.942   6.925  13.330  0.00  0.00    +0.000 N 
ATOM     21  H   UNL     1      49.404   6.356  12.629  0.00  0.00    +0.000 HD
BRANCH  19  22
ATOM     22  C   UNL     1      50.602   8.608  12.865  0.00  0.00    +0.000 A 
ATOM     23  C   UNL     1      50.296   9.159  11.627  0.00  0.00    +0.000 A 
ATOM     24  S   UNL     1      51.664   9.680  10.754  0.00  0.00    +0.000 S 
ATOM     25  C   UNL     1      52.711   9.234  12.017  0.00  0.00    +0.000 A 
ATOM     26  N   UNL     1      54.051   9.441  11.924  0.00  0.00    +0.000 NA
ATOM     27  C   UNL     1      54.720   9.098  12.972  0.00  0.00    +0.000 A 
ATOM     28  N   UNL     1      54.173   8.554  14.104  0.00  0.00    +0.000 N 
ATOM     29  C   UNL     1      52.836   8.253  14.214  0.00  0.00    +0.000 A 
ATOM     30  O   UNL     1      52.403   7.643  15.187  0.00  0.00    +0.000 OA
ATOM     31  C   UNL     1      52.027   8.666  13.082  0.00  0.00    +0.000 A 
ATOM     32  H   UNL     1      54.756   8.277  14.880  0.00  0.00    +0.000 HD
ENDBRANCH  19  22
ENDBRANCH   1  20
TORSDOF 5
ENDMDL
MODEL 8
REMARK VINA RESULT:    -7.185      4.833      6.324
REMARK INTER + INTRA:         -10.137
REMARK INTER:                  -9.053
REMARK INTRA:                  -1.083
REMARK UNBOUND:                -0.852
REMARK  Name = 
REMARK  5 active torsions:
REMARK  status: ('A' for Active; 'I' for Inactive)
REMARK    1  A    between atoms: C_2  and  C_20
REMARK    2  A    between atoms: N_3  and  C_4
REMARK    3  A    between atoms: C_4  and  C_5
REMARK    4  A    between atoms: C_8  and  C_9
REMARK    5  A    between atoms: C_9  and  N_10
REMARK                            x       y       z     vdW  Elec       q    Type
REMARK                         _______ _______ _______ _____ _____    ______ ____
ROOT
ATOM      1  C   UNL     1      46.053   4.983  13.119  0.00  0.00    +0.000 C 
ENDROOT
BRANCH   1   2
ATOM      2  C   UNL     1      45.629   6.332  12.600  0.00  0.00    +0.000 A 
ATOM      3  C   UNL     1      46.301   7.488  13.012  0.00  0.00    +0.000 A 
ATOM      4  C   UNL     1      45.905   8.743  12.547  0.00  0.00    +0.000 A 
ATOM      5  C   UNL     1      44.811   8.872  11.679  0.00  0.00    +0.000 A 
ATOM      6  C   UNL     1      44.138   7.714  11.265  0.00  0.00    +0.000 A 
ATOM      7  C   UNL     1      44.537   6.458  11.730  0.00  0.00    +0.000 A 
BRANCH   5   8
ATOM      8  C   UNL     1      44.365  10.236  11.210  0.00  0.00    +0.000 C 
BRANCH   8   9
ATOM      9  N   UNL     1      43.391  10.790  12.127  0.00  0.00    +0.000 N 
ATOM     10  C   UNL     1      42.120  11.101  11.683  0.00  0.00    +0.000 A 
ATOM     11  C   UNL     1      41.448  10.362  10.711  0.00  0.00    +0.000 A 
ATOM     12  C   UNL     1      40.137  10.693  10.367  0.00  0.00    +0.000 A 
ATOM     13  C   UNL     1      39.515  11.744  11.020  0.00  0.00    +0.000 A 
ATOM     14 CL   UNL     1      37.893  12.166  10.656  0.00  0.00    +0.000 Cl
ATOM     15  C   UNL     1      40.241  12.430  11.977  0.00  0.00    +0.000 A 
ATOM     16  N   UNL     1      41.524  12.136  12.311  0.00  0.00    +0.000 NA
ATOM     17  H   UNL     1      43.724  11.546  12.719  0.00  0.00    +0.000 HD
ENDBRANCH   8   9
ENDBRANCH   5   8
ENDBRANCH   1   2
BRANCH   1  20
ATOM     18  O   UNL     1      47.434   2.972  14.529  0.00  0.00    +0.000 OA
ATOM     19  C   UNL     1      47.294   4.076  15.048  0.00  0.00    +0.000 C 
ATOM     20  N   UNL     1      46.582   5.083  14.456  0.00  0.00    +0.000 N 
ATOM     21  H   UNL     1      46.649   6.022  14.832  0.00  0.00    +0.000 HD
BRANCH  19  22
ATOM     22  C   UNL     1      47.843   4.368  16.381  0.00  0.00    +0.000 A 
ATOM     23  C   UNL     1      47.488   3.570  17.462  0.00  0.00    +0.000 A 
ATOM     24  S   UNL     1      48.196   4.059  18.933  0.00  0.00    +0.000 S 
ATOM     25  C   UNL     1      49.040   5.324  18.173  0.00  0.00    +0.000 A 
ATOM     26  N   UNL     1      49.874   6.134  18.877  0.00  0.00    +0.000 NA
ATOM     27  C   UNL     1      50.484   7.021  18.168  0.00  0.00    +0.000 A 
ATOM     28  N   UNL     1      50.328   7.183  16.817  0.00  0.00    +0.000 N 
ATOM     29  C   UNL     1      49.439   6.441  16.076  0.00  0.00    +0.000 A 
ATOM     30  O   UNL     1      49.225   6.703  14.896  0.00  0.00    +0.000 OA
ATOM     31  C   UNL     1      48.762   5.392  16.816  0.00  0.00    +0.000 A 
ATOM     32  H   UNL     1      50.812   7.918  16.323  0.00  0.00    +0.000 HD
ENDBRANCH  19  22
ENDBRANCH   1  20
TORSDOF 5
ENDMDL
MODEL 9
REMARK VINA RESULT:    -6.997      3.844      8.924
REMARK INTER + INTRA:          -9.895
REMARK INTER:                  -8.928
REMARK INTRA:                  -0.967
REMARK UNBOUND:                -0.852
REMARK  Name = 
REMARK  5 active torsions:
REMARK  status: ('A' for Active; 'I' for Inactive)
REMARK    1  A    between atoms: C_2  and  C_20
REMARK    2  A    between atoms: N_3  and  C_4
REMARK    3  A    between atoms: C_4  and  C_5
REMARK    4  A    between atoms: C_8  and  C_9
REMARK    5  A    between atoms: C_9  and  N_10
REMARK                            x       y       z     vdW  Elec       q    Type
REMARK                         _______ _______ _______ _____ _____    ______ ____
ROOT
ATOM      1  C   UNL     1      47.777   7.974  11.767  0.00  0.00    +0.000 C 
ENDROOT
BRANCH   1   2
ATOM      2  C   UNL     1      48.438   8.154  13.109  0.00  0.00    +0.000 A 
ATOM      3  C   UNL     1      49.738   7.682  13.321  0.00  0.00    +0.000 A 
ATOM      4  C   UNL     1      50.351   7.831  14.567  0.00  0.00    +0.000 A 
ATOM      5  C   UNL     1      49.668   8.432  15.634  0.00  0.00    +0.000 A 
ATOM      6  C   UNL     1      48.366   8.905  15.421  0.00  0.00    +0.000 A 
ATOM      7  C   UNL     1      47.753   8.757  14.174  0.00  0.00    +0.000 A 
BRANCH   5   8
ATOM      8  C   UNL     1      50.324   8.555  16.988  0.00  0.00    +0.000 C 
BRANCH   8   9
ATOM      9  N   UNL     1      49.474   7.989  18.014  0.00  0.00    +0.000 N 
ATOM     10  C   UNL     1      48.976   6.708  17.871  0.00  0.00    +0.000 A 
ATOM     11  C   UNL     1      49.684   5.677  17.258  0.00  0.00    +0.000 A 
ATOM     12  C   UNL     1      49.146   4.390  17.216  0.00  0.00    +0.000 A 
ATOM     13  C   UNL     1      47.917   4.155  17.810  0.00  0.00    +0.000 A 
ATOM     14 CL   UNL     1      47.231   2.584  17.814  0.00  0.00    +0.000 Cl
ATOM     15  C   UNL     1      47.273   5.225  18.404  0.00  0.00    +0.000 A 
ATOM     16  N   UNL     1      47.771   6.488  18.437  0.00  0.00    +0.000 NA
ATOM     17  H   UNL     1      48.730   8.592  18.354  0.00  0.00    +0.000 HD
ENDBRANCH   8   9
ENDBRANCH   5   8
ENDBRANCH   1   2
BRANCH   1  20
ATOM     18  O   UNL     1      44.977   7.740  11.976  0.00  0.00    +0.000 OA
ATOM     19  C   UNL     1      45.647   6.732  11.771  0.00  0.00    +0.000 C 
ATOM     20  N   UNL     1      47.014   6.753  11.721  0.00  0.00    +0.000 N 
ATOM     21  H   UNL     1      47.509   5.940  11.371  0.00  0.00    +0.000 HD
BRANCH  19  22
ATOM     22  C   UNL     1      45.015   5.412  11.622  0.00  0.00    +0.000 A 
ATOM     23  C   UNL     1      44.313   4.860  12.687  0.00  0.00    +0.000 A 
ATOM     24  S   UNL     1      43.662   3.321  12.352  0.00  0.00    +0.000 S 
ATOM     25  C   UNL     1      44.252   3.355  10.758  0.00  0.00    +0.000 A 
ATOM     26  N   UNL     1      44.013   2.329   9.899  0.00  0.00    +0.000 NA
ATOM     27  C   UNL     1      44.478   2.507   8.710  0.00  0.00    +0.000 A 
ATOM     28  N   UNL     1      45.173   3.614   8.301  0.00  0.00    +0.000 N 
ATOM     29  C   UNL     1      45.507   4.640   9.152  0.00  0.00    +0.000 A 
ATOM     30  O   UNL     1      46.245   5.551   8.787  0.00  0.00    +0.000 OA
ATOM     31  C   UNL     1      44.963   4.516  10.492  0.00  0.00    +0.000 A 
ATOM     32  H   UNL     1      45.539   3.679   7.362  0.00  0.00    +0.000 HD
ENDBRANCH  19  22
ENDBRANCH   1  20
TORSDOF 5
ENDMDL
