MODEL 1
REMARK VINA RESULT:    -7.496      0.000      0.000
REMARK INTER + INTRA:         -10.491
REMARK INTER:                  -9.687
REMARK INTRA:                  -0.804
REMARK UNBOUND:                -0.804
REMARK  Name = 
REMARK  5 active torsions:
REMARK  status: ('A' for Active; 'I' for Inactive)
REMARK    1  A    between atoms: C_2  and  C_4
REMARK    2  A    between atoms: C_8  and  C_9
REMARK    3  A    between atoms: C_9  and  O_10
REMARK    4  A    between atoms: O_10  and  C_11
REMARK    5  A    between atoms: C_16  and  N_17
REMARK                            x       y       z     vdW  Elec       q    Type
REMARK                         _______ _______ _______ _____ _____    ______ ____
ROOT
ATOM      1  C   UNL     1      44.399   5.199  10.337  0.00  0.00    +0.000 A 
ATOM      2  C   UNL     1      43.589   4.400  11.133  0.00  0.00    +0.000 A 
ATOM      3  C   UNL     1      43.634   3.025  10.971  0.00  0.00    +0.000 A 
ATOM      4  F   UNL     1      42.867   2.245  11.744  0.00  0.00    +0.000 F 
ATOM      5  C   UNL     1      44.454   2.438  10.010  0.00  0.00    +0.000 A 
ATOM      6  C   UNL     1      45.241   3.224   9.159  0.00  0.00    +0.000 A 
ATOM      7  C   UNL     1      45.195   4.612   9.351  0.00  0.00    +0.000 A 
ENDROOT
BRANCH   6   8
ATOM      8  N   UNL     1      45.982   2.662   8.139  0.00  0.00    +0.000 N 
ATOM      9  C   UNL     1      46.022   1.208   7.921  0.00  0.00    +0.000 C 
ATOM     10  C   UNL     1      47.445   0.797   7.481  0.00  0.00    +0.000 C 
ATOM     11  N   UNL     1      47.939   1.539   6.300  0.00  0.00    +0.000 NA
ATOM     12  C   UNL     1      47.855   2.991   6.579  0.00  0.00    +0.000 C 
ATOM     13  C   UNL     1      46.444   3.463   6.998  0.00  0.00    +0.000 C 
ATOM     14  H   UNL     1      47.319   1.331   5.518  0.00  0.00    +0.000 HD
ENDBRANCH   6   8
BRANCH   1  15
ATOM     15  O   UNL     1      44.335   6.543  10.575  0.00  0.00    +0.000 OA
BRANCH  15  16
ATOM     16  C   UNL     1      44.406   6.919  11.954  0.00  0.00    +0.000 C 
BRANCH  16  21
ATOM     17  C   UNL     1      47.150   5.270  14.018  0.00  0.00    +0.000 A 
ATOM     18  C   UNL     1      48.283   5.968  13.587  0.00  0.00    +0.000 A 
ATOM     19  C   UNL     1      48.160   6.986  12.642  0.00  0.00    +0.000 A 
ATOM     20  C   UNL     1      46.908   7.300  12.117  0.00  0.00    +0.000 A 
ATOM     21  C   UNL     1      45.769   6.586  12.509  0.00  0.00    +0.000 A 
ATOM     22  C   UNL     1      45.895   5.582  13.480  0.00  0.00    +0.000 A 
BRANCH  17  24
ATOM     23  N   UNL     1      46.800   4.445  16.285  0.00  0.00    +0.000 N 
ATOM     24  C   UNL     1      47.230   4.173  15.017  0.00  0.00    +0.000 C 
ATOM     25  O   UNL     1      47.631   3.055  14.715  0.00  0.00    +0.000 OA
ATOM     26  H   UNL     1      46.776   3.663  16.927  0.00  0.00    +0.000 HD
ATOM     27  H   UNL     1      46.237   5.253  16.507  0.00  0.00    +0.000 HD
ENDBRANCH  17  24
ENDBRANCH  16  21
ENDBRANCH  15  16
ENDBRANCH   1  15
TORSDOF 5
ENDMDL
MODEL 2
REMARK VINA RESULT:    -7.409      2.688      7.441
REMARK INTER + INTRA:         -10.379
REMARK INTER:                  -9.579
REMARK INTRA:                  -0.800
REMARK UNBOUND:                -0.804
REMARK  Name = 
REMARK  5 active torsions:
REMARK  status: ('A' for Active; 'I' for Inactive)
REMARK    1  A    between atoms: C_2  and  C_4
REMARK    2  A    between atoms: C_8  and  C_9
REMARK    3  A    between atoms: C_9  and  O_10
REMARK    4  A    between atoms: O_10  and  C_11
REMARK    5  A    between atoms: C_16  and  N_17
REMARK                            x       y       z     vdW  Elec       q    Type
REMARK                         _______ _______ _______ _____ _____    ______ ____
ROOT
ATOM      1  C   UNL     1      46.071   5.723  12.052  0.00  0.00    +0.000 A 
ATOM      2  C   UNL     1      46.825   6.731  11.465  0.00  0.00    +0.000 A 
ATOM      3  C   UNL     1      47.950   7.198  12.124  0.00  0.00    +0.000 A 
ATOM      4  F   UNL     1      48.692   8.161  11.559  0.00  0.00    +0.000 F 
ATOM      5  C   UNL     1      48.318   6.695  13.370  0.00  0.00    +0.000 A 
ATOM      6  C   UNL     1      47.546   5.717  14.007  0.00  0.00    +0.000 A 
ATOM      7  C   UNL     1      46.421   5.244  13.316  0.00  0.00    +0.000 A 
ENDROOT
BRANCH   6   8
ATOM      8  N   UNL     1      47.844   5.281  15.283  0.00  0.00    +0.000 N 
ATOM      9  C   UNL     1      48.659   6.085  16.205  0.00  0.00    +0.000 C 
ATOM     10  C   UNL     1      49.568   5.149  17.033  0.00  0.00    +0.000 C 
ATOM     11  N   UNL     1      48.829   4.082  17.746  0.00  0.00    +0.000 NA
ATOM     12  C   UNL     1      48.018   3.326  16.764  0.00  0.00    +0.000 C 
ATOM     13  C   UNL     1      47.069   4.212  15.926  0.00  0.00    +0.000 C 
ATOM     14  H   UNL     1      48.192   4.530  18.404  0.00  0.00    +0.000 HD
ENDBRANCH   6   8
BRANCH   1  15
ATOM     15  O   UNL     1      44.998   5.281  11.332  0.00  0.00    +0.000 OA
BRANCH  15  16
ATOM     16  C   UNL     1      45.136   5.383   9.911  0.00  0.00    +0.000 C 
BRANCH  16  21
ATOM     17  C   UNL     1      46.404   2.590   7.653  0.00  0.00    +0.000 A 
ATOM     18  C   UNL     1      45.708   1.485   8.156  0.00  0.00    +0.000 A 
ATOM     19  C   UNL     1      44.813   1.645   9.214  0.00  0.00    +0.000 A 
ATOM     20  C   UNL     1      44.622   2.903   9.779  0.00  0.00    +0.000 A 
ATOM     21  C   UNL     1      45.338   4.013   9.313  0.00  0.00    +0.000 A 
ATOM     22  C   UNL     1      46.215   3.851   8.231  0.00  0.00    +0.000 A 
BRANCH  17  24
ATOM     23  N   UNL     1      47.219   3.323   5.476  0.00  0.00    +0.000 N 
ATOM     24  C   UNL     1      47.372   2.471   6.533  0.00  0.00    +0.000 C 
ATOM     25  O   UNL     1      48.296   1.667   6.563  0.00  0.00    +0.000 OA
ATOM     26  H   UNL     1      47.940   3.290   4.766  0.00  0.00    +0.000 HD
ATOM     27  H   UNL     1      46.644   4.152   5.525  0.00  0.00    +0.000 HD
ENDBRANCH  17  24
ENDBRANCH  16  21
ENDBRANCH  15  16
ENDBRANCH   1  15
TORSDOF 5
ENDMDL
MODEL 3
REMARK VINA RESULT:    -7.110      2.840      7.263
REMARK INTER + INTRA:          -9.992
REMARK INTER:                  -9.340
REMARK INTRA:                  -0.652
REMARK UNBOUND:                -0.804
REMARK  Name = 
REMARK  5 active torsions:
REMARK  status: ('A' for Active; 'I' for Inactive)
REMARK    1  A    between atoms: C_2  and  C_4
REMARK    2  A    between atoms: C_8  and  C_9
REMARK    3  A    between atoms: C_9  and  O_10
REMARK    4  A    between atoms: O_10  and  C_11
REMARK    5  A    between atoms: C_16  and  N_17
REMARK                            x       y       z     vdW  Elec       q    Type
REMARK                         _______ _______ _______ _____ _____    ______ ____
ROOT
ATOM      1  C   UNL     1      45.335   6.368  11.638  0.00  0.00    +0.000 A 
ATOM      2  C   UNL     1      44.779   7.641  11.665  0.00  0.00    +0.000 A 
ATOM      3  C   UNL     1      45.389   8.622  12.429  0.00  0.00    +0.000 A 
ATOM      4  F   UNL     1      44.869   9.858  12.452  0.00  0.00    +0.000 F 
ATOM      5  C   UNL     1      46.526   8.347  13.185  0.00  0.00    +0.000 A 
ATOM      6  C   UNL     1      47.074   7.059  13.217  0.00  0.00    +0.000 A 
ATOM      7  C   UNL     1      46.454   6.084  12.423  0.00  0.00    +0.000 A 
ENDROOT
BRANCH   6   8
ATOM      8  N   UNL     1      48.140   6.749  14.037  0.00  0.00    +0.000 N 
ATOM      9  C   UNL     1      48.066   5.662  15.025  0.00  0.00    +0.000 C 
ATOM     10  C   UNL     1      48.832   6.078  16.301  0.00  0.00    +0.000 C 
ATOM     11  N   UNL     1      50.231   6.489  16.046  0.00  0.00    +0.000 NA
ATOM     12  C   UNL     1      50.233   7.569  15.033  0.00  0.00    +0.000 C 
ATOM     13  C   UNL     1      49.503   7.197  13.723  0.00  0.00    +0.000 C 
ATOM     14  H   UNL     1      50.725   5.688  15.655  0.00  0.00    +0.000 HD
ENDBRANCH   6   8
BRANCH   1  15
ATOM     15  O   UNL     1      44.707   5.459  10.833  0.00  0.00    +0.000 OA
BRANCH  15  16
ATOM     16  C   UNL     1      45.134   5.459   9.468  0.00  0.00    +0.000 C 
BRANCH  16  21
ATOM     17  C   UNL     1      46.505   2.517   7.473  0.00  0.00    +0.000 A 
ATOM     18  C   UNL     1      45.898   1.434   8.119  0.00  0.00    +0.000 A 
ATOM     19  C   UNL     1      45.030   1.654   9.188  0.00  0.00    +0.000 A 
ATOM     20  C   UNL     1      44.777   2.952   9.622  0.00  0.00    +0.000 A 
ATOM     21  C   UNL     1      45.404   4.046   9.012  0.00  0.00    +0.000 A 
ATOM     22  C   UNL     1      46.255   3.820   7.920  0.00  0.00    +0.000 A 
BRANCH  17  24
ATOM     23  N   UNL     1      47.388   3.252   5.323  0.00  0.00    +0.000 N 
ATOM     24  C   UNL     1      47.442   2.335   6.335  0.00  0.00    +0.000 C 
ATOM     25  O   UNL     1      48.258   1.422   6.312  0.00  0.00    +0.000 OA
ATOM     26  H   UNL     1      48.093   3.166   4.603  0.00  0.00    +0.000 HD
ATOM     27  H   UNL     1      46.921   4.142   5.421  0.00  0.00    +0.000 HD
ENDBRANCH  17  24
ENDBRANCH  16  21
ENDBRANCH  15  16
ENDBRANCH   1  15
TORSDOF 5
ENDMDL
MODEL 4
REMARK VINA RESULT:    -6.892      3.744      5.652
REMARK INTER + INTRA:          -9.711
REMARK INTER:                  -8.873
REMARK INTRA:                  -0.838
REMARK UNBOUND:                -0.804
REMARK  Name = 
REMARK  5 active torsions:
REMARK  status: ('A' for Active; 'I' for Inactive)
REMARK    1  A    between atoms: C_2  and  C_4
REMARK    2  A    between atoms: C_8  and  C_9
REMARK    3  A    between atoms: C_9  and  O_10
REMARK    4  A    between atoms: O_10  and  C_11
REMARK    5  A    between atoms: C_16  and  N_17
REMARK                            x       y       z     vdW  Elec       q    Type
REMARK                         _______ _______ _______ _____ _____    ______ ____
ROOT
ATOM      1  C   UNL     1      48.059   6.810  13.671  0.00  0.00    +0.000 A 
ATOM      2  C   UNL     1      47.901   8.127  13.262  0.00  0.00    +0.000 A 
ATOM      3  C   UNL     1      46.710   8.505  12.663  0.00  0.00    +0.000 A 
ATOM      4  F   UNL     1      46.542   9.778  12.277  0.00  0.00    +0.000 F 
ATOM      5  C   UNL     1      45.689   7.585  12.441  0.00  0.00    +0.000 A 
ATOM      6  C   UNL     1      45.844   6.239  12.795  0.00  0.00    +0.000 A 
ATOM      7  C   UNL     1      47.048   5.880  13.417  0.00  0.00    +0.000 A 
ENDROOT
BRANCH   6   8
ATOM      8  N   UNL     1      44.881   5.298  12.493  0.00  0.00    +0.000 N 
ATOM      9  C   UNL     1      45.235   3.924  12.108  0.00  0.00    +0.000 C 
ATOM     10  C   UNL     1      44.260   3.431  11.016  0.00  0.00    +0.000 C 
ATOM     11  N   UNL     1      42.835   3.539  11.400  0.00  0.00    +0.000 NA
ATOM     12  C   UNL     1      42.551   4.939  11.791  0.00  0.00    +0.000 C 
ATOM     13  C   UNL     1      43.482   5.476  12.902  0.00  0.00    +0.000 C 
ATOM     14  H   UNL     1      42.685   2.947  12.216  0.00  0.00    +0.000 HD
ENDBRANCH   6   8
BRANCH   1  15
ATOM     15  O   UNL     1      49.240   6.513  14.290  0.00  0.00    +0.000 OA
BRANCH  15  16
ATOM     16  C   UNL     1      49.584   7.368  15.385  0.00  0.00    +0.000 C 
BRANCH  16  21
ATOM     17  C   UNL     1      47.854   5.127  17.934  0.00  0.00    +0.000 A 
ATOM     18  C   UNL     1      47.518   6.047  18.934  0.00  0.00    +0.000 A 
ATOM     19  C   UNL     1      47.833   7.396  18.776  0.00  0.00    +0.000 A 
ATOM     20  C   UNL     1      48.495   7.827  17.629  0.00  0.00    +0.000 A 
ATOM     21  C   UNL     1      48.872   6.915  16.636  0.00  0.00    +0.000 A 
ATOM     22  C   UNL     1      48.528   5.564  16.787  0.00  0.00    +0.000 A 
BRANCH  17  24
ATOM     23  N   UNL     1      48.208   2.976  19.025  0.00  0.00    +0.000 N 
ATOM     24  C   UNL     1      47.546   3.679  18.057  0.00  0.00    +0.000 C 
ATOM     25  O   UNL     1      46.709   3.135  17.347  0.00  0.00    +0.000 OA
ATOM     26  H   UNL     1      47.921   2.014  19.154  0.00  0.00    +0.000 HD
ATOM     27  H   UNL     1      48.703   3.426  19.781  0.00  0.00    +0.000 HD
ENDBRANCH  17  24
ENDBRANCH  16  21
ENDBRANCH  15  16
ENDBRANCH   1  15
TORSDOF 5
ENDMDL
MODEL 5
REMARK VINA RESULT:    -6.711      3.821      6.206
REMARK INTER + INTRA:          -9.477
REMARK INTER:                  -8.728
REMARK INTRA:                  -0.750
REMARK UNBOUND:                -0.804
REMARK  Name = 
REMARK  5 active torsions:
REMARK  status: ('A' for Active; 'I' for Inactive)
REMARK    1  A    between atoms: C_2  and  C_4
REMARK    2  A    between atoms: C_8  and  C_9
REMARK    3  A    between atoms: C_9  and  O_10
REMARK    4  A    between atoms: O_10  and  C_11
REMARK    5  A    between atoms: C_16  and  N_17
REMARK                            x       y       z     vdW  Elec       q    Type
REMARK                         _______ _______ _______ _____ _____    ______ ____
ROOT
ATOM      1  C   UNL     1      48.095   6.184  14.373  0.00  0.00    +0.000 A 
ATOM      2  C   UNL     1      48.685   6.979  13.400  0.00  0.00    +0.000 A 
ATOM      3  C   UNL     1      48.054   7.119  12.174  0.00  0.00    +0.000 A 
ATOM      4  F   UNL     1      48.608   7.897  11.233  0.00  0.00    +0.000 F 
ATOM      5  C   UNL     1      46.861   6.456  11.897  0.00  0.00    +0.000 A 
ATOM      6  C   UNL     1      46.273   5.607  12.841  0.00  0.00    +0.000 A 
ATOM      7  C   UNL     1      46.917   5.493  14.081  0.00  0.00    +0.000 A 
ENDROOT
BRANCH   6   8
ATOM      8  N   UNL     1      45.146   4.868  12.544  0.00  0.00    +0.000 N 
ATOM      9  C   UNL     1      45.223   3.440  12.201  0.00  0.00    +0.000 C 
ATOM     10  C   UNL     1      44.183   3.121  11.104  0.00  0.00    +0.000 C 
ATOM     11  N   UNL     1      42.803   3.522  11.459  0.00  0.00    +0.000 NA
ATOM     12  C   UNL     1      42.801   4.962  11.809  0.00  0.00    +0.000 C 
ATOM     13  C   UNL     1      43.805   5.333  12.924  0.00  0.00    +0.000 C 
ATOM     14  H   UNL     1      42.528   2.995  12.287  0.00  0.00    +0.000 HD
ENDBRANCH   6   8
BRANCH   1  15
ATOM     15  O   UNL     1      48.748   6.121  15.571  0.00  0.00    +0.000 OA
BRANCH  15  16
ATOM     16  C   UNL     1      48.142   5.272  16.550  0.00  0.00    +0.000 C 
BRANCH  16  21
ATOM     17  C   UNL     1      51.167   3.207  17.598  0.00  0.00    +0.000 A 
ATOM     18  C   UNL     1      50.728   1.907  17.323  0.00  0.00    +0.000 A 
ATOM     19  C   UNL     1      49.461   1.697  16.780  0.00  0.00    +0.000 A 
ATOM     20  C   UNL     1      48.625   2.782  16.524  0.00  0.00    +0.000 A 
ATOM     21  C   UNL     1      49.033   4.087  16.828  0.00  0.00    +0.000 A 
ATOM     22  C   UNL     1      50.319   4.294  17.348  0.00  0.00    +0.000 A 
BRANCH  17  24
ATOM     23  N   UNL     1      52.951   2.634  19.157  0.00  0.00    +0.000 N 
ATOM     24  C   UNL     1      52.504   3.482  18.183  0.00  0.00    +0.000 C 
ATOM     25  O   UNL     1      53.201   4.410  17.789  0.00  0.00    +0.000 OA
ATOM     26  H   UNL     1      53.899   2.782  19.479  0.00  0.00    +0.000 HD
ATOM     27  H   UNL     1      52.532   1.732  19.326  0.00  0.00    +0.000 HD
ENDBRANCH  17  24
ENDBRANCH  16  21
ENDBRANCH  15  16
ENDBRANCH   1  15
TORSDOF 5
ENDMDL
MODEL 6
REMARK VINA RESULT:    -6.398      3.191      7.689
REMARK INTER + INTRA:          -9.072
REMARK INTER:                  -8.245
REMARK INTRA:                  -0.826
REMARK UNBOUND:                -0.804
REMARK  Name = 
REMARK  5 active torsions:
REMARK  status: ('A' for Active; 'I' for Inactive)
REMARK    1  A    between atoms: C_2  and  C_4
REMARK    2  A    between atoms: C_8  and  C_9
REMARK    3  A    between atoms: C_9  and  O_10
REMARK    4  A    between atoms: O_10  and  C_11
REMARK    5  A    between atoms: C_16  and  N_17
REMARK                            x       y       z     vdW  Elec       q    Type
REMARK                         _______ _______ _______ _____ _____    ______ ____
ROOT
ATOM      1  C   UNL     1      47.824   6.824  13.567  0.00  0.00    +0.000 A 
ATOM      2  C   UNL     1      48.134   8.127  13.933  0.00  0.00    +0.000 A 
ATOM      3  C   UNL     1      48.635   8.367  15.202  0.00  0.00    +0.000 A 
ATOM      4  F   UNL     1      48.951   9.619  15.560  0.00  0.00    +0.000 F 
ATOM      5  C   UNL     1      48.806   7.332  16.118  0.00  0.00    +0.000 A 
ATOM      6  C   UNL     1      48.452   6.017  15.792  0.00  0.00    +0.000 A 
ATOM      7  C   UNL     1      47.963   5.792  14.498  0.00  0.00    +0.000 A 
ENDROOT
BRANCH   6   8
ATOM      8  N   UNL     1      48.523   4.999  16.722  0.00  0.00    +0.000 N 
ATOM      9  C   UNL     1      47.993   3.657  16.442  0.00  0.00    +0.000 C 
ATOM     10  C   UNL     1      47.354   3.081  17.727  0.00  0.00    +0.000 C 
ATOM     11  N   UNL     1      48.267   3.075  18.892  0.00  0.00    +0.000 NA
ATOM     12  C   UNL     1      48.776   4.450  19.106  0.00  0.00    +0.000 C 
ATOM     13  C   UNL     1      49.451   5.065  17.859  0.00  0.00    +0.000 C 
ATOM     14  H   UNL     1      49.060   2.477  18.664  0.00  0.00    +0.000 HD
ENDBRANCH   6   8
BRANCH   1  15
ATOM     15  O   UNL     1      47.372   6.653  12.289  0.00  0.00    +0.000 OA
BRANCH  15  16
ATOM     16  C   UNL     1      46.045   7.130  12.045  0.00  0.00    +0.000 C 
BRANCH  16  21
ATOM     17  C   UNL     1      44.252   4.066  10.662  0.00  0.00    +0.000 A 
ATOM     18  C   UNL     1      43.310   3.815  11.666  0.00  0.00    +0.000 A 
ATOM     19  C   UNL     1      43.241   4.648  12.783  0.00  0.00    +0.000 A 
ATOM     20  C   UNL     1      44.118   5.722  12.906  0.00  0.00    +0.000 A 
ATOM     21  C   UNL     1      45.092   5.966  11.928  0.00  0.00    +0.000 A 
ATOM     22  C   UNL     1      45.139   5.142  10.795  0.00  0.00    +0.000 A 
BRANCH  17  24
ATOM     23  N   UNL     1      44.338   3.824   8.238  0.00  0.00    +0.000 N 
ATOM     24  C   UNL     1      44.371   3.206   9.457  0.00  0.00    +0.000 C 
ATOM     25  O   UNL     1      44.527   1.994   9.543  0.00  0.00    +0.000 OA
ATOM     26  H   UNL     1      44.512   3.234   7.433  0.00  0.00    +0.000 HD
ATOM     27  H   UNL     1      44.467   4.818   8.129  0.00  0.00    +0.000 HD
ENDBRANCH  17  24
ENDBRANCH  16  21
ENDBRANCH  15  16
ENDBRANCH   1  15
TORSDOF 5
ENDMDL
MODEL 7
REMARK VINA RESULT:    -6.348      4.074      6.259
REMARK INTER + INTRA:          -9.008
REMARK INTER:                  -8.440
REMARK INTRA:                  -0.568
REMARK UNBOUND:                -0.804
REMARK  Name = 
REMARK  5 active torsions:
REMARK  status: ('A' for Active; 'I' for Inactive)
REMARK    1  A    between atoms: C_2  and  C_4
REMARK    2  A    between atoms: C_8  and  C_9
REMARK    3  A    between atoms: C_9  and  O_10
REMARK    4  A    between atoms: O_10  and  C_11
REMARK    5  A    between atoms: C_16  and  N_17
REMARK                            x       y       z     vdW  Elec       q    Type
REMARK                         _______ _______ _______ _____ _____    ______ ____
ROOT
ATOM      1  C   UNL     1      48.016   6.103  14.138  0.00  0.00    +0.000 A 
ATOM      2  C   UNL     1      48.593   7.072  13.327  0.00  0.00    +0.000 A 
ATOM      3  C   UNL     1      48.006   7.360  12.106  0.00  0.00    +0.000 A 
ATOM      4  F   UNL     1      48.547   8.304  11.322  0.00  0.00    +0.000 F 
ATOM      5  C   UNL     1      46.872   6.679  11.670  0.00  0.00    +0.000 A 
ATOM      6  C   UNL     1      46.303   5.661  12.445  0.00  0.00    +0.000 A 
ATOM      7  C   UNL     1      46.900   5.397  13.685  0.00  0.00    +0.000 A 
ENDROOT
BRANCH   6   8
ATOM      8  N   UNL     1      45.240   4.912  11.982  0.00  0.00    +0.000 N 
ATOM      9  C   UNL     1      44.310   5.431  10.968  0.00  0.00    +0.000 C 
ATOM     10  C   UNL     1      42.878   4.947  11.292  0.00  0.00    +0.000 C 
ATOM     11  N   UNL     1      42.766   3.478  11.435  0.00  0.00    +0.000 NA
ATOM     12  C   UNL     1      43.739   3.022  12.455  0.00  0.00    +0.000 C 
ATOM     13  C   UNL     1      45.194   3.455  12.165  0.00  0.00    +0.000 C 
ATOM     14  H   UNL     1      43.023   3.057  10.543  0.00  0.00    +0.000 HD
ENDBRANCH   6   8
BRANCH   1  15
ATOM     15  O   UNL     1      48.621   5.896  15.346  0.00  0.00    +0.000 OA
BRANCH  15  16
ATOM     16  C   UNL     1      47.913   5.031  16.239  0.00  0.00    +0.000 C 
BRANCH  16  21
ATOM     17  C   UNL     1      48.397   5.617  19.972  0.00  0.00    +0.000 A 
ATOM     18  C   UNL     1      49.717   5.188  20.154  0.00  0.00    +0.000 A 
ATOM     19  C   UNL     1      50.458   4.727  19.067  0.00  0.00    +0.000 A 
ATOM     20  C   UNL     1      49.881   4.680  17.800  0.00  0.00    +0.000 A 
ATOM     21  C   UNL     1      48.549   5.070  17.606  0.00  0.00    +0.000 A 
ATOM     22  C   UNL     1      47.817   5.559  18.698  0.00  0.00    +0.000 A 
BRANCH  17  24
ATOM     23  N   UNL     1      47.105   5.184  21.993  0.00  0.00    +0.000 N 
ATOM     24  C   UNL     1      47.564   6.110  21.098  0.00  0.00    +0.000 C 
ATOM     25  O   UNL     1      47.321   7.302  21.248  0.00  0.00    +0.000 OA
ATOM     26  H   UNL     1      46.616   5.547  22.802  0.00  0.00    +0.000 HD
ATOM     27  H   UNL     1      47.484   4.251  22.052  0.00  0.00    +0.000 HD
ENDBRANCH  17  24
ENDBRANCH  16  21
ENDBRANCH  15  16
ENDBRANCH   1  15
TORSDOF 5
ENDMDL
MODEL 8
REMARK VINA RESULT:    -6.296      4.490      6.400
REMARK INTER + INTRA:          -8.940
REMARK INTER:                  -8.115
REMARK INTRA:                  -0.825
REMARK UNBOUND:                -0.804
REMARK  Name = 
REMARK  5 active torsions:
REMARK  status: ('A' for Active; 'I' for Inactive)
REMARK    1  A    between atoms: C_2  and  C_4
REMARK    2  A    between atoms: C_8  and  C_9
REMARK    3  A    between atoms: C_9  and  O_10
REMARK    4  A    between atoms: O_10  and  C_11
REMARK    5  A    between atoms: C_16  and  N_17
REMARK                            x       y       z     vdW  Elec       q    Type
REMARK                         _______ _______ _______ _____ _____    ______ ____
ROOT
ATOM      1  C   UNL     1      48.227   6.131  14.132  0.00  0.00    +0.000 A 
ATOM      2  C   UNL     1      48.736   7.001  13.177  0.00  0.00    +0.000 A 
ATOM      3  C   UNL     1      48.011   7.224  12.018  0.00  0.00    +0.000 A 
ATOM      4  F   UNL     1      48.487   8.073  11.096  0.00  0.00    +0.000 F 
ATOM      5  C   UNL     1      46.802   6.573  11.786  0.00  0.00    +0.000 A 
ATOM      6  C   UNL     1      46.293   5.651  12.709  0.00  0.00    +0.000 A 
ATOM      7  C   UNL     1      47.032   5.453  13.883  0.00  0.00    +0.000 A 
ENDROOT
BRANCH   6   8
ATOM      8  N   UNL     1      45.148   4.926  12.447  0.00  0.00    +0.000 N 
ATOM      9  C   UNL     1      45.194   3.488  12.146  0.00  0.00    +0.000 C 
ATOM     10  C   UNL     1      44.135   3.156  11.071  0.00  0.00    +0.000 C 
ATOM     11  N   UNL     1      42.768   3.594  11.430  0.00  0.00    +0.000 NA
ATOM     12  C   UNL     1      42.796   5.043  11.737  0.00  0.00    +0.000 C 
ATOM     13  C   UNL     1      43.821   5.428  12.828  0.00  0.00    +0.000 C 
ATOM     14  H   UNL     1      42.493   3.097  12.276  0.00  0.00    +0.000 HD
ENDBRANCH   6   8
BRANCH   1  15
ATOM     15  O   UNL     1      48.973   5.987  15.268  0.00  0.00    +0.000 OA
BRANCH  15  16
ATOM     16  C   UNL     1      49.576   7.190  15.755  0.00  0.00    +0.000 C 
BRANCH  16  21
ATOM     17  C   UNL     1      47.818   9.613  18.111  0.00  0.00    +0.000 A 
ATOM     18  C   UNL     1      47.363   8.749  19.113  0.00  0.00    +0.000 A 
ATOM     19  C   UNL     1      47.641   7.384  19.039  0.00  0.00    +0.000 A 
ATOM     20  C   UNL     1      48.360   6.878  17.960  0.00  0.00    +0.000 A 
ATOM     21  C   UNL     1      48.791   7.723  16.928  0.00  0.00    +0.000 A 
ATOM     22  C   UNL     1      48.532   9.098  17.021  0.00  0.00    +0.000 A 
BRANCH  17  24
ATOM     23  N   UNL     1      47.992  11.818  17.087  0.00  0.00    +0.000 N 
ATOM     24  C   UNL     1      47.542  11.072  18.140  0.00  0.00    +0.000 C 
ATOM     25  O   UNL     1      46.906  11.590  19.050  0.00  0.00    +0.000 OA
ATOM     26  H   UNL     1      47.717  12.792  17.078  0.00  0.00    +0.000 HD
ATOM     27  H   UNL     1      48.287  11.404  16.215  0.00  0.00    +0.000 HD
ENDBRANCH  17  24
ENDBRANCH  16  21
ENDBRANCH  15  16
ENDBRANCH   1  15
TORSDOF 5
ENDMDL
MODEL 9
REMARK VINA RESULT:    -6.244      2.538      7.152
REMARK INTER + INTRA:          -8.873
REMARK INTER:                  -8.196
REMARK INTRA:                  -0.677
REMARK UNBOUND:                -0.804
REMARK  Name = 
REMARK  5 active torsions:
REMARK  status: ('A' for Active; 'I' for Inactive)
REMARK    1  A    between atoms: C_2  and  C_4
REMARK    2  A    between atoms: C_8  and  C_9
REMARK    3  A    between atoms: C_9  and  O_10
REMARK    4  A    between atoms: O_10  and  C_11
REMARK    5  A    between atoms: C_16  and  N_17
REMARK                            x       y       z     vdW  Elec       q    Type
REMARK                         _______ _______ _______ _____ _____    ______ ____
ROOT
ATOM      1  C   UNL     1      46.283   6.907  12.207  0.00  0.00    +0.000 A 
ATOM      2  C   UNL     1      47.345   7.497  11.535  0.00  0.00    +0.000 A 
ATOM      3  C   UNL     1      48.617   7.402  12.075  0.00  0.00    +0.000 A 
ATOM      4  F   UNL     1      49.651   7.957  11.427  0.00  0.00    +0.000 F 
ATOM      5  C   UNL     1      48.840   6.752  13.286  0.00  0.00    +0.000 A 
ATOM      6  C   UNL     1      47.779   6.195  14.010  0.00  0.00    +0.000 A 
ATOM      7  C   UNL     1      46.502   6.286  13.438  0.00  0.00    +0.000 A 
ENDROOT
BRANCH   6   8
ATOM      8  N   UNL     1      47.972   5.636  15.257  0.00  0.00    +0.000 N 
ATOM      9  C   UNL     1      47.512   4.275  15.575  0.00  0.00    +0.000 C 
ATOM     10  C   UNL     1      46.991   4.238  17.029  0.00  0.00    +0.000 C 
ATOM     11  N   UNL     1      47.972   4.729  18.024  0.00  0.00    +0.000 NA
ATOM     12  C   UNL     1      48.404   6.091  17.635  0.00  0.00    +0.000 C 
ATOM     13  C   UNL     1      48.961   6.180  16.196  0.00  0.00    +0.000 C 
ATOM     14  H   UNL     1      48.786   4.117  17.988  0.00  0.00    +0.000 HD
ENDBRANCH   6   8
BRANCH   1  15
ATOM     15  O   UNL     1      45.062   7.003  11.600  0.00  0.00    +0.000 OA
BRANCH  15  16
ATOM     16  C   UNL     1      44.073   6.085  12.075  0.00  0.00    +0.000 C 
BRANCH  16  21
ATOM     17  C   UNL     1      45.006   3.528   9.409  0.00  0.00    +0.000 A 
ATOM     18  C   UNL     1      44.362   2.380   9.884  0.00  0.00    +0.000 A 
ATOM     19  C   UNL     1      43.608   2.436  11.056  0.00  0.00    +0.000 A 
ATOM     20  C   UNL     1      43.508   3.632  11.763  0.00  0.00    +0.000 A 
ATOM     21  C   UNL     1      44.178   4.781  11.323  0.00  0.00    +0.000 A 
ATOM     22  C   UNL     1      44.911   4.726  10.129  0.00  0.00    +0.000 A 
BRANCH  17  24
ATOM     23  N   UNL     1      46.276   2.308   7.724  0.00  0.00    +0.000 N 
ATOM     24  C   UNL     1      45.826   3.519   8.171  0.00  0.00    +0.000 C 
ATOM     25  O   UNL     1      46.065   4.546   7.548  0.00  0.00    +0.000 OA
ATOM     26  H   UNL     1      46.754   2.310   6.832  0.00  0.00    +0.000 HD
ATOM     27  H   UNL     1      45.898   1.432   8.053  0.00  0.00    +0.000 HD
ENDBRANCH  17  24
ENDBRANCH  16  21
ENDBRANCH  15  16
ENDBRANCH   1  15
TORSDOF 5
ENDMDL
