MODEL 1
REMARK VINA RESULT:    -7.674      0.000      0.000
REMARK INTER + INTRA:         -10.180
REMARK INTER:                  -9.468
REMARK INTRA:                  -0.712
REMARK UNBOUND:                -0.712
REMARK  Name = 
REMARK  4 active torsions:
REMARK  status: ('A' for Active; 'I' for Inactive)
REMARK    1  A    between atoms: C_2  and  C_5
REMARK    2  A    between atoms: C_10  and  C_11
REMARK    3  A    between atoms: C_11  and  N_12
REMARK    4  A    between atoms: C_17  and  C_18
REMARK                            x       y       z     vdW  Elec       q    Type
REMARK                         _______ _______ _______ _____ _____    ______ ____
ROOT
ATOM      1  N   UNL     1      45.595   5.333  13.979  0.00  0.00    +0.000 N 
ATOM      2  C   UNL     1      44.814   5.043  12.857  0.00  0.00    +0.000 A 
ATOM      3  C   UNL     1      43.468   5.388  12.923  0.00  0.00    +0.000 A 
ATOM      4  C   UNL     1      42.643   5.120  11.844  0.00  0.00    +0.000 A 
ATOM      5  C   UNL     1      43.197   4.562  10.699  0.00  0.00    +0.000 A 
ATOM      6  C   UNL     1      44.564   4.281  10.672  0.00  0.00    +0.000 A 
ATOM      7  N   UNL     1      45.360   4.496  11.755  0.00  0.00    +0.000 NA
ATOM      8  H   UNL     1      45.729   6.345  14.014  0.00  0.00    +0.000 HD
ENDROOT
BRANCH   6   9
ATOM      9  C   UNL     1      45.237   3.746   9.476  0.00  0.00    +0.000 A 
ATOM     10  C   UNL     1      45.369   2.370   9.227  0.00  0.00    +0.000 A 
ATOM     11  C   UNL     1      46.028   1.910   8.089  0.00  0.00    +0.000 A 
ATOM     12  C   UNL     1      46.545   2.847   7.209  0.00  0.00    +0.000 A 
ATOM     13  N   UNL     1      46.435   4.178   7.389  0.00  0.00    +0.000 NA
ATOM     14  C   UNL     1      45.781   4.589   8.508  0.00  0.00    +0.000 A 
ENDBRANCH   6   9
BRANCH   1  15
ATOM     15  C   UNL     1      46.826   4.596  14.122  0.00  0.00    +0.000 C 
BRANCH  15  21
ATOM     16  C   UNL     1      48.275   4.754  16.319  0.00  0.00    +0.000 A 
ATOM     17  C   UNL     1      49.106   5.571  17.121  0.00  0.00    +0.000 A 
ATOM     18  C   UNL     1      49.516   6.836  16.703  0.00  0.00    +0.000 A 
ATOM     19  C   UNL     1      49.112   7.311  15.466  0.00  0.00    +0.000 A 
ATOM     20  C   UNL     1      48.257   6.545  14.674  0.00  0.00    +0.000 A 
ATOM     21  C   UNL     1      47.798   5.272  15.087  0.00  0.00    +0.000 A 
BRANCH  16  23
ATOM     22  F   UNL     1      48.676   3.068  17.989  0.00  0.00    +0.000 F 
ATOM     23  C   UNL     1      47.977   3.361  16.846  0.00  0.00    +0.000 C 
ATOM     24  F   UNL     1      48.307   2.355  15.988  0.00  0.00    +0.000 F 
ATOM     25  F   UNL     1      46.669   3.181  17.201  0.00  0.00    +0.000 F 
ENDBRANCH  16  23
ENDBRANCH  15  21
ENDBRANCH   1  15
TORSDOF 4
ENDMDL
MODEL 2
REMARK VINA RESULT:    -7.530      2.796      7.147
REMARK INTER + INTRA:         -10.003
REMARK INTER:                  -9.103
REMARK INTRA:                  -0.899
REMARK UNBOUND:                -0.712
REMARK  Name = 
REMARK  4 active torsions:
REMARK  status: ('A' for Active; 'I' for Inactive)
REMARK    1  A    between atoms: C_2  and  C_5
REMARK    2  A    between atoms: C_10  and  C_11
REMARK    3  A    between atoms: C_11  and  N_12
REMARK    4  A    between atoms: C_17  and  C_18
REMARK                            x       y       z     vdW  Elec       q    Type
REMARK                         _______ _______ _______ _____ _____    ______ ____
ROOT
ATOM      1  N   UNL     1      45.622   6.869  11.082  0.00  0.00    +0.000 N 
ATOM      2  C   UNL     1      46.764   6.828  11.886  0.00  0.00    +0.000 A 
ATOM      3  C   UNL     1      47.870   7.547  11.445  0.00  0.00    +0.000 A 
ATOM      4  C   UNL     1      49.032   7.539  12.198  0.00  0.00    +0.000 A 
ATOM      5  C   UNL     1      49.042   6.855  13.406  0.00  0.00    +0.000 A 
ATOM      6  C   UNL     1      47.888   6.190  13.822  0.00  0.00    +0.000 A 
ATOM      7  N   UNL     1      46.766   6.156  13.052  0.00  0.00    +0.000 NA
ATOM      8  H   UNL     1      45.209   7.799  11.172  0.00  0.00    +0.000 HD
ENDROOT
BRANCH   6   9
ATOM      9  C   UNL     1      47.800   5.493  15.116  0.00  0.00    +0.000 A 
ATOM     10  C   UNL     1      48.477   5.934  16.266  0.00  0.00    +0.000 A 
ATOM     11  C   UNL     1      48.378   5.234  17.466  0.00  0.00    +0.000 A 
ATOM     12  C   UNL     1      47.590   4.094  17.495  0.00  0.00    +0.000 A 
ATOM     13  N   UNL     1      46.908   3.633  16.428  0.00  0.00    +0.000 NA
ATOM     14  C   UNL     1      47.024   4.346  15.277  0.00  0.00    +0.000 A 
ENDBRANCH   6   9
BRANCH   1  15
ATOM     15  C   UNL     1      44.665   5.807  11.256  0.00  0.00    +0.000 C 
BRANCH  15  21
ATOM     16  C   UNL     1      44.422   3.333  10.377  0.00  0.00    +0.000 A 
ATOM     17  C   UNL     1      44.778   2.406   9.370  0.00  0.00    +0.000 A 
ATOM     18  C   UNL     1      45.485   2.790   8.233  0.00  0.00    +0.000 A 
ATOM     19  C   UNL     1      45.847   4.118   8.070  0.00  0.00    +0.000 A 
ATOM     20  C   UNL     1      45.548   5.045   9.067  0.00  0.00    +0.000 A 
ATOM     21  C   UNL     1      44.859   4.677  10.247  0.00  0.00    +0.000 A 
BRANCH  16  23
ATOM     22  F   UNL     1      44.264   2.722  12.699  0.00  0.00    +0.000 F 
ATOM     23  C   UNL     1      43.570   2.806  11.519  0.00  0.00    +0.000 C 
ATOM     24  F   UNL     1      43.093   1.545  11.325  0.00  0.00    +0.000 F 
ATOM     25  F   UNL     1      42.503   3.605  11.816  0.00  0.00    +0.000 F 
ENDBRANCH  16  23
ENDBRANCH  15  21
ENDBRANCH   1  15
TORSDOF 4
ENDMDL
MODEL 3
REMARK VINA RESULT:    -7.488      3.606      4.424
REMARK INTER + INTRA:          -9.952
REMARK INTER:                  -9.028
REMARK INTRA:                  -0.923
REMARK UNBOUND:                -0.712
REMARK  Name = 
REMARK  4 active torsions:
REMARK  status: ('A' for Active; 'I' for Inactive)
REMARK    1  A    between atoms: C_2  and  C_5
REMARK    2  A    between atoms: C_10  and  C_11
REMARK    3  A    between atoms: C_11  and  N_12
REMARK    4  A    between atoms: C_17  and  C_18
REMARK                            x       y       z     vdW  Elec       q    Type
REMARK                         _______ _______ _______ _____ _____    ______ ____
ROOT
ATOM      1  N   UNL     1      45.118   6.137  13.166  0.00  0.00    +0.000 N 
ATOM      2  C   UNL     1      44.721   5.006  12.449  0.00  0.00    +0.000 A 
ATOM      3  C   UNL     1      43.700   4.239  12.999  0.00  0.00    +0.000 A 
ATOM      4  C   UNL     1      43.268   3.103  12.335  0.00  0.00    +0.000 A 
ATOM      5  C   UNL     1      43.833   2.791  11.105  0.00  0.00    +0.000 A 
ATOM      6  C   UNL     1      44.821   3.624  10.579  0.00  0.00    +0.000 A 
ATOM      7  N   UNL     1      45.279   4.709  11.260  0.00  0.00    +0.000 NA
ATOM      8  H   UNL     1      44.379   6.837  13.082  0.00  0.00    +0.000 HD
ENDROOT
BRANCH   6   9
ATOM      9  C   UNL     1      45.424   3.395   9.255  0.00  0.00    +0.000 A 
ATOM     10  C   UNL     1      45.696   2.111   8.753  0.00  0.00    +0.000 A 
ATOM     11  C   UNL     1      46.282   1.943   7.500  0.00  0.00    +0.000 A 
ATOM     12  C   UNL     1      46.586   3.076   6.763  0.00  0.00    +0.000 A 
ATOM     13  N   UNL     1      46.335   4.330   7.188  0.00  0.00    +0.000 NA
ATOM     14  C   UNL     1      45.757   4.454   8.412  0.00  0.00    +0.000 A 
ENDBRANCH   6   9
BRANCH   1  15
ATOM     15  C   UNL     1      46.428   6.664  12.879  0.00  0.00    +0.000 C 
BRANCH  15  21
ATOM     16  C   UNL     1      47.488   8.943  12.083  0.00  0.00    +0.000 A 
ATOM     17  C   UNL     1      47.255  10.308  11.796  0.00  0.00    +0.000 A 
ATOM     18  C   UNL     1      45.973  10.852  11.799  0.00  0.00    +0.000 A 
ATOM     19  C   UNL     1      44.886  10.039  12.081  0.00  0.00    +0.000 A 
ATOM     20  C   UNL     1      45.091   8.699  12.410  0.00  0.00    +0.000 A 
ATOM     21  C   UNL     1      46.385   8.128  12.447  0.00  0.00    +0.000 A 
BRANCH  16  23
ATOM     22  F   UNL     1      49.763   9.414  11.457  0.00  0.00    +0.000 F 
ATOM     23  C   UNL     1      48.920   8.454  11.954  0.00  0.00    +0.000 C 
ATOM     24  F   UNL     1      49.078   7.401  11.103  0.00  0.00    +0.000 F 
ATOM     25  F   UNL     1      49.485   8.101  13.147  0.00  0.00    +0.000 F 
ENDBRANCH  16  23
ENDBRANCH  15  21
ENDBRANCH   1  15
TORSDOF 4
ENDMDL
MODEL 4
REMARK VINA RESULT:    -7.421      1.942      2.515
REMARK INTER + INTRA:          -9.868
REMARK INTER:                  -9.118
REMARK INTRA:                  -0.750
REMARK UNBOUND:                -0.712
REMARK  Name = 
REMARK  4 active torsions:
REMARK  status: ('A' for Active; 'I' for Inactive)
REMARK    1  A    between atoms: C_2  and  C_5
REMARK    2  A    between atoms: C_10  and  C_11
REMARK    3  A    between atoms: C_11  and  N_12
REMARK    4  A    between atoms: C_17  and  C_18
REMARK                            x       y       z     vdW  Elec       q    Type
REMARK                         _______ _______ _______ _____ _____    ______ ____
ROOT
ATOM      1  N   UNL     1      45.815   5.770  13.761  0.00  0.00    +0.000 N 
ATOM      2  C   UNL     1      44.980   5.295  12.746  0.00  0.00    +0.000 A 
ATOM      3  C   UNL     1      43.613   5.492  12.912  0.00  0.00    +0.000 A 
ATOM      4  C   UNL     1      42.737   5.038  11.941  0.00  0.00    +0.000 A 
ATOM      5  C   UNL     1      43.253   4.443  10.798  0.00  0.00    +0.000 A 
ATOM      6  C   UNL     1      44.637   4.314  10.663  0.00  0.00    +0.000 A 
ATOM      7  N   UNL     1      45.491   4.714  11.644  0.00  0.00    +0.000 NA
ATOM      8  H   UNL     1      45.830   6.789  13.702  0.00  0.00    +0.000 HD
ENDROOT
BRANCH   6   9
ATOM      9  C   UNL     1      45.263   3.750   9.455  0.00  0.00    +0.000 A 
ATOM     10  C   UNL     1      45.375   2.368   9.229  0.00  0.00    +0.000 A 
ATOM     11  C   UNL     1      45.990   1.881   8.078  0.00  0.00    +0.000 A 
ATOM     12  C   UNL     1      46.485   2.796   7.162  0.00  0.00    +0.000 A 
ATOM     13  N   UNL     1      46.393   4.131   7.321  0.00  0.00    +0.000 NA
ATOM     14  C   UNL     1      45.781   4.569   8.453  0.00  0.00    +0.000 A 
ENDBRANCH   6   9
BRANCH   1  15
ATOM     15  C   UNL     1      47.131   5.191  13.845  0.00  0.00    +0.000 C 
BRANCH  15  21
ATOM     16  C   UNL     1      48.494   5.848  16.004  0.00  0.00    +0.000 A 
ATOM     17  C   UNL     1      48.876   5.467  17.312  0.00  0.00    +0.000 A 
ATOM     18  C   UNL     1      48.348   4.337  17.932  0.00  0.00    +0.000 A 
ATOM     19  C   UNL     1      47.415   3.562  17.262  0.00  0.00    +0.000 A 
ATOM     20  C   UNL     1      47.052   3.890  15.955  0.00  0.00    +0.000 A 
ATOM     21  C   UNL     1      47.597   5.013  15.289  0.00  0.00    +0.000 A 
BRANCH  16  23
ATOM     22  F   UNL     1      49.821   6.977  14.344  0.00  0.00    +0.000 F 
ATOM     23  C   UNL     1      49.070   7.151  15.478  0.00  0.00    +0.000 C 
ATOM     24  F   UNL     1      49.917   7.778  16.343  0.00  0.00    +0.000 F 
ATOM     25  F   UNL     1      48.117   8.059  15.111  0.00  0.00    +0.000 F 
ENDBRANCH  16  23
ENDBRANCH  15  21
ENDBRANCH   1  15
TORSDOF 4
ENDMDL
MODEL 5
REMARK VINA RESULT:    -7.393      2.744      3.364
REMARK INTER + INTRA:          -9.835
REMARK INTER:                  -8.891
REMARK INTRA:                  -0.943
REMARK UNBOUND:                -0.712
REMARK  Name = 
REMARK  4 active torsions:
REMARK  status: ('A' for Active; 'I' for Inactive)
REMARK    1  A    between atoms: C_2  and  C_5
REMARK    2  A    between atoms: C_10  and  C_11
REMARK    3  A    between atoms: C_11  and  N_12
REMARK    4  A    between atoms: C_17  and  C_18
REMARK                            x       y       z     vdW  Elec       q    Type
REMARK                         _______ _______ _______ _____ _____    ______ ____
ROOT
ATOM      1  N   UNL     1      45.738   5.888  13.752  0.00  0.00    +0.000 N 
ATOM      2  C   UNL     1      44.919   5.369  12.747  0.00  0.00    +0.000 A 
ATOM      3  C   UNL     1      43.546   5.512  12.920  0.00  0.00    +0.000 A 
ATOM      4  C   UNL     1      42.684   5.012  11.958  0.00  0.00    +0.000 A 
ATOM      5  C   UNL     1      43.218   4.428  10.817  0.00  0.00    +0.000 A 
ATOM      6  C   UNL     1      44.605   4.354  10.676  0.00  0.00    +0.000 A 
ATOM      7  N   UNL     1      45.447   4.798  11.648  0.00  0.00    +0.000 NA
ATOM      8  H   UNL     1      45.711   6.906  13.684  0.00  0.00    +0.000 HD
ENDROOT
BRANCH   6   9
ATOM      9  C   UNL     1      45.248   3.805   9.470  0.00  0.00    +0.000 A 
ATOM     10  C   UNL     1      45.363   2.426   9.229  0.00  0.00    +0.000 A 
ATOM     11  C   UNL     1      45.994   1.952   8.080  0.00  0.00    +0.000 A 
ATOM     12  C   UNL     1      46.500   2.878   7.182  0.00  0.00    +0.000 A 
ATOM     13  N   UNL     1      46.405   4.212   7.355  0.00  0.00    +0.000 NA
ATOM     14  C   UNL     1      45.778   4.636   8.484  0.00  0.00    +0.000 A 
ENDBRANCH   6   9
BRANCH   1  15
ATOM     15  C   UNL     1      47.078   5.364  13.835  0.00  0.00    +0.000 C 
BRANCH  15  21
ATOM     16  C   UNL     1      48.531   7.511  13.353  0.00  0.00    +0.000 A 
ATOM     17  C   UNL     1      49.562   8.359  13.821  0.00  0.00    +0.000 A 
ATOM     18  C   UNL     1      50.118   8.211  15.089  0.00  0.00    +0.000 A 
ATOM     19  C   UNL     1      49.648   7.213  15.929  0.00  0.00    +0.000 A 
ATOM     20  C   UNL     1      48.663   6.335  15.477  0.00  0.00    +0.000 A 
ATOM     21  C   UNL     1      48.104   6.441  14.182  0.00  0.00    +0.000 A 
BRANCH  16  23
ATOM     22  F   UNL     1      48.684   8.770  11.308  0.00  0.00    +0.000 F 
ATOM     23  C   UNL     1      47.946   7.836  11.989  0.00  0.00    +0.000 C 
ATOM     24  F   UNL     1      46.693   8.371  12.031  0.00  0.00    +0.000 F 
ATOM     25  F   UNL     1      47.903   6.763  11.145  0.00  0.00    +0.000 F 
ENDBRANCH  16  23
ENDBRANCH  15  21
ENDBRANCH   1  15
TORSDOF 4
ENDMDL
MODEL 6
REMARK VINA RESULT:    -7.259      2.695      4.220
REMARK INTER + INTRA:          -9.668
REMARK INTER:                  -8.593
REMARK INTRA:                  -1.075
REMARK UNBOUND:                -0.712
REMARK  Name = 
REMARK  4 active torsions:
REMARK  status: ('A' for Active; 'I' for Inactive)
REMARK    1  A    between atoms: C_2  and  C_5
REMARK    2  A    between atoms: C_10  and  C_11
REMARK    3  A    between atoms: C_11  and  N_12
REMARK    4  A    between atoms: C_17  and  C_18
REMARK                            x       y       z     vdW  Elec       q    Type
REMARK                         _______ _______ _______ _____ _____    ______ ____
ROOT
ATOM      1  N   UNL     1      49.488   7.049  15.153  0.00  0.00    +0.000 N 
ATOM      2  C   UNL     1      48.660   7.058  14.028  0.00  0.00    +0.000 A 
ATOM      3  C   UNL     1      49.053   7.863  12.964  0.00  0.00    +0.000 A 
ATOM      4  C   UNL     1      48.269   7.915  11.824  0.00  0.00    +0.000 A 
ATOM      5  C   UNL     1      47.135   7.116  11.754  0.00  0.00    +0.000 A 
ATOM      6  C   UNL     1      46.815   6.292  12.833  0.00  0.00    +0.000 A 
ATOM      7  N   UNL     1      47.559   6.284  13.973  0.00  0.00    +0.000 NA
ATOM      8  H   UNL     1      50.336   6.533  14.914  0.00  0.00    +0.000 HD
ENDROOT
BRANCH   6   9
ATOM      9  C   UNL     1      45.665   5.372  12.811  0.00  0.00    +0.000 A 
ATOM     10  C   UNL     1      44.335   5.811  12.923  0.00  0.00    +0.000 A 
ATOM     11  C   UNL     1      43.280   4.902  12.912  0.00  0.00    +0.000 A 
ATOM     12  C   UNL     1      43.577   3.555  12.784  0.00  0.00    +0.000 A 
ATOM     13  N   UNL     1      44.832   3.078  12.658  0.00  0.00    +0.000 NA
ATOM     14  C   UNL     1      45.835   3.996  12.667  0.00  0.00    +0.000 A 
ENDBRANCH   6   9
BRANCH   1  15
ATOM     15  C   UNL     1      48.896   6.618  16.394  0.00  0.00    +0.000 C 
BRANCH  15  21
ATOM     16  C   UNL     1      48.860   4.140  17.294  0.00  0.00    +0.000 A 
ATOM     17  C   UNL     1      49.616   3.084  17.854  0.00  0.00    +0.000 A 
ATOM     18  C   UNL     1      51.000   3.164  17.993  0.00  0.00    +0.000 A 
ATOM     19  C   UNL     1      51.665   4.302  17.566  0.00  0.00    +0.000 A 
ATOM     20  C   UNL     1      50.940   5.376  17.049  0.00  0.00    +0.000 A 
ATOM     21  C   UNL     1      49.531   5.335  16.927  0.00  0.00    +0.000 A 
BRANCH  16  23
ATOM     22  F   UNL     1      46.987   2.651  17.553  0.00  0.00    +0.000 F 
ATOM     23  C   UNL     1      47.372   3.891  17.110  0.00  0.00    +0.000 C 
ATOM     24  F   UNL     1      46.955   3.924  15.813  0.00  0.00    +0.000 F 
ATOM     25  F   UNL     1      46.584   4.756  17.814  0.00  0.00    +0.000 F 
ENDBRANCH  16  23
ENDBRANCH  15  21
ENDBRANCH   1  15
TORSDOF 4
ENDMDL
MODEL 7
REMARK VINA RESULT:    -7.168      1.949      2.572
REMARK INTER + INTRA:          -9.556
REMARK INTER:                  -9.117
REMARK INTRA:                  -0.439
REMARK UNBOUND:                -0.712
REMARK  Name = 
REMARK  4 active torsions:
REMARK  status: ('A' for Active; 'I' for Inactive)
REMARK    1  A    between atoms: C_2  and  C_5
REMARK    2  A    between atoms: C_10  and  C_11
REMARK    3  A    between atoms: C_11  and  N_12
REMARK    4  A    between atoms: C_17  and  C_18
REMARK                            x       y       z     vdW  Elec       q    Type
REMARK                         _______ _______ _______ _____ _____    ______ ____
ROOT
ATOM      1  N   UNL     1      45.818   6.066  13.581  0.00  0.00    +0.000 N 
ATOM      2  C   UNL     1      44.979   5.484  12.628  0.00  0.00    +0.000 A 
ATOM      3  C   UNL     1      43.610   5.634  12.820  0.00  0.00    +0.000 A 
ATOM      4  C   UNL     1      42.729   5.073  11.909  0.00  0.00    +0.000 A 
ATOM      5  C   UNL     1      43.242   4.421  10.796  0.00  0.00    +0.000 A 
ATOM      6  C   UNL     1      44.626   4.342  10.630  0.00  0.00    +0.000 A 
ATOM      7  N   UNL     1      45.487   4.848  11.555  0.00  0.00    +0.000 NA
ATOM      8  H   UNL     1      45.785   7.079  13.450  0.00  0.00    +0.000 HD
ENDROOT
BRANCH   6   9
ATOM      9  C   UNL     1      45.245   3.721   9.447  0.00  0.00    +0.000 A 
ATOM     10  C   UNL     1      45.339   2.329   9.278  0.00  0.00    +0.000 A 
ATOM     11  C   UNL     1      45.948   1.786   8.149  0.00  0.00    +0.000 A 
ATOM     12  C   UNL     1      46.454   2.656   7.197  0.00  0.00    +0.000 A 
ATOM     13  N   UNL     1      46.380   3.998   7.299  0.00  0.00    +0.000 NA
ATOM     14  C   UNL     1      45.773   4.491   8.412  0.00  0.00    +0.000 A 
ENDBRANCH   6   9
BRANCH   1  15
ATOM     15  C   UNL     1      47.161   5.552  13.667  0.00  0.00    +0.000 C 
BRANCH  15  21
ATOM     16  C   UNL     1      49.137   7.172  14.317  0.00  0.00    +0.000 A 
ATOM     17  C   UNL     1      49.979   8.227  13.890  0.00  0.00    +0.000 A 
ATOM     18  C   UNL     1      49.967   8.692  12.577  0.00  0.00    +0.000 A 
ATOM     19  C   UNL     1      49.117   8.105  11.652  0.00  0.00    +0.000 A 
ATOM     20  C   UNL     1      48.246   7.093  12.055  0.00  0.00    +0.000 A 
ATOM     21  C   UNL     1      48.213   6.624  13.390  0.00  0.00    +0.000 A 
BRANCH  16  23
ATOM     22  F   UNL     1      48.588   5.564  16.021  0.00  0.00    +0.000 F 
ATOM     23  C   UNL     1      49.314   6.695  15.748  0.00  0.00    +0.000 C 
ATOM     24  F   UNL     1      48.901   7.589  16.691  0.00  0.00    +0.000 F 
ATOM     25  F   UNL     1      50.600   6.347  16.052  0.00  0.00    +0.000 F 
ENDBRANCH  16  23
ENDBRANCH  15  21
ENDBRANCH   1  15
TORSDOF 4
ENDMDL
MODEL 8
REMARK VINA RESULT:    -6.750      4.162      7.315
REMARK INTER + INTRA:          -9.041
REMARK INTER:                  -8.248
REMARK INTRA:                  -0.793
REMARK UNBOUND:                -0.712
REMARK  Name = 
REMARK  4 active torsions:
REMARK  status: ('A' for Active; 'I' for Inactive)
REMARK    1  A    between atoms: C_2  and  C_5
REMARK    2  A    between atoms: C_10  and  C_11
REMARK    3  A    between atoms: C_11  and  N_12
REMARK    4  A    between atoms: C_17  and  C_18
REMARK                            x       y       z     vdW  Elec       q    Type
REMARK                         _______ _______ _______ _____ _____    ______ ____
ROOT
ATOM      1  N   UNL     1      46.449   5.678  12.167  0.00  0.00    +0.000 N 
ATOM      2  C   UNL     1      47.132   6.787  12.670  0.00  0.00    +0.000 A 
ATOM      3  C   UNL     1      47.850   6.603  13.847  0.00  0.00    +0.000 A 
ATOM      4  C   UNL     1      48.544   7.669  14.395  0.00  0.00    +0.000 A 
ATOM      5  C   UNL     1      48.547   8.884  13.722  0.00  0.00    +0.000 A 
ATOM      6  C   UNL     1      47.847   8.998  12.520  0.00  0.00    +0.000 A 
ATOM      7  N   UNL     1      47.124   7.963  12.013  0.00  0.00    +0.000 NA
ATOM      8  H   UNL     1      47.141   5.029  11.788  0.00  0.00    +0.000 HD
ENDROOT
BRANCH   6   9
ATOM      9  C   UNL     1      47.852  10.232  11.718  0.00  0.00    +0.000 A 
ATOM     10  C   UNL     1      48.978  10.671  11.000  0.00  0.00    +0.000 A 
ATOM     11  C   UNL     1      48.942  11.854  10.267  0.00  0.00    +0.000 A 
ATOM     12  C   UNL     1      47.764  12.585  10.262  0.00  0.00    +0.000 A 
ATOM     13  N   UNL     1      46.650  12.206  10.919  0.00  0.00    +0.000 NA
ATOM     14  C   UNL     1      46.722  11.042  11.618  0.00  0.00    +0.000 A 
ENDBRANCH   6   9
BRANCH   1  15
ATOM     15  C   UNL     1      45.364   5.940  11.255  0.00  0.00    +0.000 C 
BRANCH  15  21
ATOM     16  C   UNL     1      44.434   3.616  10.426  0.00  0.00    +0.000 A 
ATOM     17  C   UNL     1      44.446   2.647   9.396  0.00  0.00    +0.000 A 
ATOM     18  C   UNL     1      45.106   2.867   8.189  0.00  0.00    +0.000 A 
ATOM     19  C   UNL     1      45.765   4.068   7.978  0.00  0.00    +0.000 A 
ATOM     20  C   UNL     1      45.805   5.023   8.993  0.00  0.00    +0.000 A 
ATOM     21  C   UNL     1      45.172   4.814  10.241  0.00  0.00    +0.000 A 
BRANCH  16  23
ATOM     22  F   UNL     1      42.963   2.084  11.557  0.00  0.00    +0.000 F 
ATOM     23  C   UNL     1      43.600   3.294  11.655  0.00  0.00    +0.000 C 
ATOM     24  F   UNL     1      42.593   4.180  11.896  0.00  0.00    +0.000 F 
ATOM     25  F   UNL     1      44.336   3.192  12.801  0.00  0.00    +0.000 F 
ENDBRANCH  16  23
ENDBRANCH  15  21
ENDBRANCH   1  15
TORSDOF 4
ENDMDL
MODEL 9
REMARK VINA RESULT:    -6.610      2.189      3.395
REMARK INTER + INTRA:          -8.868
REMARK INTER:                  -7.846
REMARK INTRA:                  -1.022
REMARK UNBOUND:                -0.712
REMARK  Name = 
REMARK  4 active torsions:
REMARK  status: ('A' for Active; 'I' for Inactive)
REMARK    1  A    between atoms: C_2  and  C_5
REMARK    2  A    between atoms: C_10  and  C_11
REMARK    3  A    between atoms: C_11  and  N_12
REMARK    4  A    between atoms: C_17  and  C_18
REMARK                            x       y       z     vdW  Elec       q    Type
REMARK                         _______ _______ _______ _____ _____    ______ ____
ROOT
ATOM      1  N   UNL     1      48.658   7.338  14.405  0.00  0.00    +0.000 N 
ATOM      2  C   UNL     1      47.434   7.447  13.740  0.00  0.00    +0.000 A 
ATOM      3  C   UNL     1      46.971   8.733  13.483  0.00  0.00    +0.000 A 
ATOM      4  C   UNL     1      45.761   8.903  12.831  0.00  0.00    +0.000 A 
ATOM      5  C   UNL     1      45.067   7.779  12.403  0.00  0.00    +0.000 A 
ATOM      6  C   UNL     1      45.604   6.514  12.647  0.00  0.00    +0.000 A 
ATOM      7  N   UNL     1      46.766   6.351  13.335  0.00  0.00    +0.000 NA
ATOM      8  H   UNL     1      49.395   7.605  13.751  0.00  0.00    +0.000 HD
ENDROOT
BRANCH   6   9
ATOM      9  C   UNL     1      44.959   5.278  12.171  0.00  0.00    +0.000 A 
ATOM     10  C   UNL     1      44.732   5.012  10.810  0.00  0.00    +0.000 A 
ATOM     11  C   UNL     1      44.104   3.836  10.407  0.00  0.00    +0.000 A 
ATOM     12  C   UNL     1      43.713   2.935  11.385  0.00  0.00    +0.000 A 
ATOM     13  N   UNL     1      43.918   3.131  12.703  0.00  0.00    +0.000 NA
ATOM     14  C   UNL     1      44.539   4.287  13.057  0.00  0.00    +0.000 A 
ENDBRANCH   6   9
BRANCH   1  15
ATOM     15  C   UNL     1      48.925   6.091  15.076  0.00  0.00    +0.000 C 
BRANCH  15  21
ATOM     16  C   UNL     1      47.830   5.040  17.232  0.00  0.00    +0.000 A 
ATOM     17  C   UNL     1      47.388   5.273  18.555  0.00  0.00    +0.000 A 
ATOM     18  C   UNL     1      47.611   6.486  19.203  0.00  0.00    +0.000 A 
ATOM     19  C   UNL     1      48.292   7.497  18.544  0.00  0.00    +0.000 A 
ATOM     20  C   UNL     1      48.701   7.311  17.223  0.00  0.00    +0.000 A 
ATOM     21  C   UNL     1      48.459   6.101  16.530  0.00  0.00    +0.000 A 
BRANCH  16  23
ATOM     22  F   UNL     1      48.773   2.930  16.564  0.00  0.00    +0.000 F 
ATOM     23  C   UNL     1      47.608   3.645  16.674  0.00  0.00    +0.000 C 
ATOM     24  F   UNL     1      47.084   3.621  15.416  0.00  0.00    +0.000 F 
ATOM     25  F   UNL     1      46.811   2.864  17.462  0.00  0.00    +0.000 F 
ENDBRANCH  16  23
ENDBRANCH  15  21
ENDBRANCH   1  15
TORSDOF 4
ENDMDL
