MODEL 1
REMARK VINA RESULT:    -8.036      0.000      0.000
REMARK INTER + INTRA:         -12.378
REMARK INTER:                 -11.324
REMARK INTRA:                  -1.054
REMARK UNBOUND:                -1.054
REMARK  Name = 
REMARK  7 active torsions:
REMARK  status: ('A' for Active; 'I' for Inactive)
REMARK    1  A    between atoms: C_2  and  C_3
REMARK    2  A    between atoms: C_3  and  N_4
REMARK    3  A    between atoms: C_3  and  C_17
REMARK    4  A    between atoms: C_5  and  C_7
REMARK    5  A    between atoms: C_20  and  C_21
REMARK    6  A    between atoms: C_21  and  N_22
REMARK    7  A    between atoms: C_23  and  C_25
REMARK                            x       y       z     vdW  Elec       q    Type
REMARK                         _______ _______ _______ _____ _____    ______ ____
ROOT
ATOM      1  C   UNL     1      47.358   7.873  13.657  0.00  0.00    +0.000 C 
ENDROOT
BRANCH   1   2
ATOM      2  C   UNL     1      46.413   6.999  12.828  0.00  0.00    +0.000 A 
ATOM      3  C   UNL     1      46.562   5.600  12.844  0.00  0.00    +0.000 A 
ATOM      4  C   UNL     1      45.700   4.765  12.114  0.00  0.00    +0.000 A 
ATOM      5  C   UNL     1      44.677   5.311  11.328  0.00  0.00    +0.000 A 
ATOM      6  C   UNL     1      44.514   6.702  11.324  0.00  0.00    +0.000 A 
ATOM      7  C   UNL     1      45.373   7.536  12.051  0.00  0.00    +0.000 A 
BRANCH   5   8
ATOM      8  C   UNL     1      43.786   4.455  10.460  0.00  0.00    +0.000 C 
BRANCH   8   9
ATOM      9  N   UNL     1      44.514   3.508   9.650  0.00  0.00    +0.000 N 
ATOM     10  C   UNL     1      45.380   3.964   8.672  0.00  0.00    +0.000 C 
ATOM     11  O   UNL     1      45.565   5.149   8.428  0.00  0.00    +0.000 OA
ATOM     12  H   UNL     1      44.590   2.555   9.976  0.00  0.00    +0.000 HD
BRANCH  10  13
ATOM     13  C   UNL     1      46.128   2.918   7.929  0.00  0.00    +0.000 A 
ATOM     14  C   UNL     1      46.077   1.578   8.312  0.00  0.00    +0.000 A 
ATOM     15  C   UNL     1      46.805   0.662   7.575  0.00  0.00    +0.000 A 
ATOM     16  N   UNL     1      47.557   0.994   6.505  0.00  0.00    +0.000 NA
ATOM     17  C   UNL     1      47.571   2.297   6.143  0.00  0.00    +0.000 A 
ATOM     18  C   UNL     1      46.876   3.288   6.811  0.00  0.00    +0.000 A 
ENDBRANCH  10  13
ENDBRANCH   8   9
ENDBRANCH   5   8
ENDBRANCH   1   2
BRANCH   1  19
ATOM     19  N   UNL     1      48.309   7.063  14.411  0.00  0.00    +0.000 N 
ATOM     20  C   UNL     1      48.755   7.493  15.641  0.00  0.00    +0.000 C 
ATOM     21  O   UNL     1      48.352   8.542  16.137  0.00  0.00    +0.000 OA
ATOM     22  H   UNL     1      48.845   6.359  13.912  0.00  0.00    +0.000 HD
BRANCH  20  23
ATOM     23  C   UNL     1      49.670   6.613  16.377  0.00  0.00    +0.000 A 
ATOM     24  C   UNL     1      50.930   7.072  16.732  0.00  0.00    +0.000 A 
ATOM     25  S   UNL     1      51.868   5.929  17.579  0.00  0.00    +0.000 S 
ATOM     26  C   UNL     1      50.636   4.761  17.460  0.00  0.00    +0.000 A 
ATOM     27  N   UNL     1      50.816   3.505  17.956  0.00  0.00    +0.000 NA
ATOM     28  C   UNL     1      49.822   2.706  17.747  0.00  0.00    +0.000 A 
ATOM     29  N   UNL     1      48.658   3.058  17.109  0.00  0.00    +0.000 N 
ATOM     30  C   UNL     1      48.407   4.328  16.655  0.00  0.00    +0.000 A 
ATOM     31  O   UNL     1      47.325   4.654  16.177  0.00  0.00    +0.000 OA
ATOM     32  C   UNL     1      49.517   5.250  16.817  0.00  0.00    +0.000 A 
ATOM     33  H   UNL     1      47.915   2.384  16.997  0.00  0.00    +0.000 HD
ENDBRANCH  20  23
ENDBRANCH   1  19
BRANCH   1  35
ATOM     34  N   UNL     1      48.575   9.745  12.233  0.00  0.00    +0.000 NA
ATOM     35  C   UNL     1      48.025   8.925  12.846  0.00  0.00    +0.000 C 
ENDBRANCH   1  35
TORSDOF 7
ENDMDL
MODEL 2
REMARK VINA RESULT:    -8.014      1.917      4.211
REMARK INTER + INTRA:         -12.347
REMARK INTER:                 -10.995
REMARK INTRA:                  -1.352
REMARK UNBOUND:                -1.054
REMARK  Name = 
REMARK  7 active torsions:
REMARK  status: ('A' for Active; 'I' for Inactive)
REMARK    1  A    between atoms: C_2  and  C_3
REMARK    2  A    between atoms: C_3  and  N_4
REMARK    3  A    between atoms: C_3  and  C_17
REMARK    4  A    between atoms: C_5  and  C_7
REMARK    5  A    between atoms: C_20  and  C_21
REMARK    6  A    between atoms: C_21  and  N_22
REMARK    7  A    between atoms: C_23  and  C_25
REMARK                            x       y       z     vdW  Elec       q    Type
REMARK                         _______ _______ _______ _____ _____    ______ ____
ROOT
ATOM      1  C   UNL     1      47.657   5.000  15.230  0.00  0.00    +0.000 C 
ENDROOT
BRANCH   1   2
ATOM      2  C   UNL     1      46.743   4.845  14.012  0.00  0.00    +0.000 A 
ATOM      3  C   UNL     1      46.375   3.559  13.574  0.00  0.00    +0.000 A 
ATOM      4  C   UNL     1      45.521   3.379  12.475  0.00  0.00    +0.000 A 
ATOM      5  C   UNL     1      45.029   4.482  11.766  0.00  0.00    +0.000 A 
ATOM      6  C   UNL     1      45.377   5.764  12.210  0.00  0.00    +0.000 A 
ATOM      7  C   UNL     1      46.230   5.946  13.307  0.00  0.00    +0.000 A 
BRANCH   5   8
ATOM      8  C   UNL     1      44.181   4.330  10.526  0.00  0.00    +0.000 C 
BRANCH   8   9
ATOM      9  N   UNL     1      44.784   3.491   9.520  0.00  0.00    +0.000 N 
ATOM     10  C   UNL     1      45.658   4.041   8.600  0.00  0.00    +0.000 C 
ATOM     11  O   UNL     1      45.952   5.229   8.569  0.00  0.00    +0.000 OA
ATOM     12  H   UNL     1      44.776   2.490   9.660  0.00  0.00    +0.000 HD
BRANCH  10  13
ATOM     13  C   UNL     1      46.274   3.090   7.639  0.00  0.00    +0.000 A 
ATOM     14  C   UNL     1      46.717   3.510   6.385  0.00  0.00    +0.000 A 
ATOM     15  C   UNL     1      47.275   2.565   5.543  0.00  0.00    +0.000 A 
ATOM     16  N   UNL     1      47.417   1.265   5.870  0.00  0.00    +0.000 NA
ATOM     17  C   UNL     1      46.999   0.890   7.100  0.00  0.00    +0.000 A 
ATOM     18  C   UNL     1      46.431   1.757   8.017  0.00  0.00    +0.000 A 
ENDBRANCH  10  13
ENDBRANCH   8   9
ENDBRANCH   5   8
ENDBRANCH   1   2
BRANCH   1  19
ATOM     19  N   UNL     1      47.879   6.405  15.554  0.00  0.00    +0.000 N 
ATOM     20  C   UNL     1      49.127   6.831  15.949  0.00  0.00    +0.000 C 
ATOM     21  O   UNL     1      50.077   6.055  16.015  0.00  0.00    +0.000 OA
ATOM     22  H   UNL     1      47.072   6.984  15.768  0.00  0.00    +0.000 HD
BRANCH  20  23
ATOM     23  C   UNL     1      49.305   8.264  16.212  0.00  0.00    +0.000 A 
ATOM     24  C   UNL     1      49.611   8.696  17.494  0.00  0.00    +0.000 A 
ATOM     25  S   UNL     1      49.781  10.386  17.631  0.00  0.00    +0.000 S 
ATOM     26  C   UNL     1      49.404  10.604  15.986  0.00  0.00    +0.000 A 
ATOM     27  N   UNL     1      49.330  11.853  15.447  0.00  0.00    +0.000 NA
ATOM     28  C   UNL     1      48.981  11.873  14.203  0.00  0.00    +0.000 A 
ATOM     29  N   UNL     1      48.723  10.756  13.447  0.00  0.00    +0.000 N 
ATOM     30  C   UNL     1      48.852   9.478  13.929  0.00  0.00    +0.000 A 
ATOM     31  O   UNL     1      48.716   8.489  13.215  0.00  0.00    +0.000 OA
ATOM     32  C   UNL     1      49.189   9.403  15.339  0.00  0.00    +0.000 A 
ATOM     33  H   UNL     1      48.471  10.848  12.473  0.00  0.00    +0.000 HD
ENDBRANCH  20  23
ENDBRANCH   1  19
BRANCH   1  35
ATOM     34  N   UNL     1      46.792   3.612  17.313  0.00  0.00    +0.000 NA
ATOM     35  C   UNL     1      47.190   4.213  16.402  0.00  0.00    +0.000 C 
ENDBRANCH   1  35
TORSDOF 7
ENDMDL
MODEL 3
REMARK VINA RESULT:    -8.013      2.478      3.855
REMARK INTER + INTRA:         -12.347
REMARK INTER:                 -11.041
REMARK INTRA:                  -1.306
REMARK UNBOUND:                -1.054
REMARK  Name = 
REMARK  7 active torsions:
REMARK  status: ('A' for Active; 'I' for Inactive)
REMARK    1  A    between atoms: C_2  and  C_3
REMARK    2  A    between atoms: C_3  and  N_4
REMARK    3  A    between atoms: C_3  and  C_17
REMARK    4  A    between atoms: C_5  and  C_7
REMARK    5  A    between atoms: C_20  and  C_21
REMARK    6  A    between atoms: C_21  and  N_22
REMARK    7  A    between atoms: C_23  and  C_25
REMARK                            x       y       z     vdW  Elec       q    Type
REMARK                         _______ _______ _______ _____ _____    ______ ____
ROOT
ATOM      1  C   UNL     1      47.647   4.901  15.282  0.00  0.00    +0.000 C 
ENDROOT
BRANCH   1   2
ATOM      2  C   UNL     1      46.754   4.810  14.042  0.00  0.00    +0.000 A 
ATOM      3  C   UNL     1      46.289   3.555  13.607  0.00  0.00    +0.000 A 
ATOM      4  C   UNL     1      45.450   3.435  12.487  0.00  0.00    +0.000 A 
ATOM      5  C   UNL     1      45.073   4.568  11.755  0.00  0.00    +0.000 A 
ATOM      6  C   UNL     1      45.520   5.821  12.195  0.00  0.00    +0.000 A 
ATOM      7  C   UNL     1      46.356   5.942  13.312  0.00  0.00    +0.000 A 
BRANCH   5   8
ATOM      8  C   UNL     1      44.247   4.474  10.494  0.00  0.00    +0.000 C 
BRANCH   8   9
ATOM      9  N   UNL     1      44.823   3.605   9.497  0.00  0.00    +0.000 N 
ATOM     10  C   UNL     1      45.719   4.116   8.576  0.00  0.00    +0.000 C 
ATOM     11  O   UNL     1      46.057   5.292   8.537  0.00  0.00    +0.000 OA
ATOM     12  H   UNL     1      44.776   2.607   9.644  0.00  0.00    +0.000 HD
BRANCH  10  13
ATOM     13  C   UNL     1      46.303   3.135   7.625  0.00  0.00    +0.000 A 
ATOM     14  C   UNL     1      46.716   3.518   6.349  0.00  0.00    +0.000 A 
ATOM     15  C   UNL     1      47.245   2.548   5.518  0.00  0.00    +0.000 A 
ATOM     16  N   UNL     1      47.385   1.255   5.875  0.00  0.00    +0.000 NA
ATOM     17  C   UNL     1      46.997   0.916   7.125  0.00  0.00    +0.000 A 
ATOM     18  C   UNL     1      46.460   1.810   8.033  0.00  0.00    +0.000 A 
ENDBRANCH  10  13
ENDBRANCH   8   9
ENDBRANCH   5   8
ENDBRANCH   1   2
BRANCH   1  19
ATOM     19  N   UNL     1      47.800   6.282  15.728  0.00  0.00    +0.000 N 
ATOM     20  C   UNL     1      49.049   6.768  16.043  0.00  0.00    +0.000 C 
ATOM     21  O   UNL     1      50.053   6.070  15.936  0.00  0.00    +0.000 OA
ATOM     22  H   UNL     1      46.979   6.769  16.078  0.00  0.00    +0.000 HD
BRANCH  20  23
ATOM     23  C   UNL     1      49.149   8.179  16.436  0.00  0.00    +0.000 A 
ATOM     24  C   UNL     1      49.882   9.060  15.656  0.00  0.00    +0.000 A 
ATOM     25  S   UNL     1      49.901  10.657  16.250  0.00  0.00    +0.000 S 
ATOM     26  C   UNL     1      48.964  10.215  17.600  0.00  0.00    +0.000 A 
ATOM     27  N   UNL     1      48.649  11.130  18.559  0.00  0.00    +0.000 NA
ATOM     28  C   UNL     1      47.982  10.645  19.554  0.00  0.00    +0.000 A 
ATOM     29  N   UNL     1      47.584   9.335  19.662  0.00  0.00    +0.000 N 
ATOM     30  C   UNL     1      47.820   8.396  18.690  0.00  0.00    +0.000 A 
ATOM     31  O   UNL     1      47.373   7.256  18.753  0.00  0.00    +0.000 OA
ATOM     32  C   UNL     1      48.615   8.880  17.575  0.00  0.00    +0.000 A 
ATOM     33  H   UNL     1      47.049   9.029  20.463  0.00  0.00    +0.000 HD
ENDBRANCH  20  23
ENDBRANCH   1  19
BRANCH   1  35
ATOM     34  N   UNL     1      46.824   3.290  17.216  0.00  0.00    +0.000 NA
ATOM     35  C   UNL     1      47.204   3.995  16.375  0.00  0.00    +0.000 C 
ENDBRANCH   1  35
TORSDOF 7
ENDMDL
MODEL 4
REMARK VINA RESULT:    -7.664      1.928      2.053
REMARK INTER + INTRA:         -11.855
REMARK INTER:                 -11.102
REMARK INTRA:                  -0.752
REMARK UNBOUND:                -1.054
REMARK  Name = 
REMARK  7 active torsions:
REMARK  status: ('A' for Active; 'I' for Inactive)
REMARK    1  A    between atoms: C_2  and  C_3
REMARK    2  A    between atoms: C_3  and  N_4
REMARK    3  A    between atoms: C_3  and  C_17
REMARK    4  A    between atoms: C_5  and  C_7
REMARK    5  A    between atoms: C_20  and  C_21
REMARK    6  A    between atoms: C_21  and  N_22
REMARK    7  A    between atoms: C_23  and  C_25
REMARK                            x       y       z     vdW  Elec       q    Type
REMARK                         _______ _______ _______ _____ _____    ______ ____
ROOT
ATOM      1  C   UNL     1      47.972   7.357  14.139  0.00  0.00    +0.000 C 
ENDROOT
BRANCH   1   2
ATOM      2  C   UNL     1      46.953   6.671  13.226  0.00  0.00    +0.000 A 
ATOM      3  C   UNL     1      46.729   5.287  13.346  0.00  0.00    +0.000 A 
ATOM      4  C   UNL     1      45.786   4.628  12.541  0.00  0.00    +0.000 A 
ATOM      5  C   UNL     1      45.057   5.332  11.574  0.00  0.00    +0.000 A 
ATOM      6  C   UNL     1      45.265   6.713  11.464  0.00  0.00    +0.000 A 
ATOM      7  C   UNL     1      46.204   7.373  12.266  0.00  0.00    +0.000 A 
BRANCH   5   8
ATOM      8  C   UNL     1      44.100   4.647  10.629  0.00  0.00    +0.000 C 
BRANCH   8   9
ATOM      9  N   UNL     1      44.731   3.647   9.802  0.00  0.00    +0.000 N 
ATOM     10  C   UNL     1      45.501   4.036   8.721  0.00  0.00    +0.000 C 
ATOM     11  O   UNL     1      45.678   5.203   8.399  0.00  0.00    +0.000 OA
ATOM     12  H   UNL     1      44.825   2.710  10.168  0.00  0.00    +0.000 HD
BRANCH  10  13
ATOM     13  C   UNL     1      46.157   2.939   7.963  0.00  0.00    +0.000 A 
ATOM     14  C   UNL     1      46.056   1.611   8.375  0.00  0.00    +0.000 A 
ATOM     15  C   UNL     1      46.699   0.646   7.621  0.00  0.00    +0.000 A 
ATOM     16  N   UNL     1      47.413   0.920   6.510  0.00  0.00    +0.000 NA
ATOM     17  C   UNL     1      47.476   2.213   6.122  0.00  0.00    +0.000 A 
ATOM     18  C   UNL     1      46.867   3.251   6.803  0.00  0.00    +0.000 A 
ENDBRANCH  10  13
ENDBRANCH   8   9
ENDBRANCH   5   8
ENDBRANCH   1   2
BRANCH   1  19
ATOM     19  N   UNL     1      48.355   6.495  15.253  0.00  0.00    +0.000 N 
ATOM     20  C   UNL     1      48.908   7.044  16.388  0.00  0.00    +0.000 C 
ATOM     21  O   UNL     1      49.070   8.257  16.500  0.00  0.00    +0.000 OA
ATOM     22  H   UNL     1      48.483   5.504  15.073  0.00  0.00    +0.000 HD
BRANCH  20  23
ATOM     23  C   UNL     1      49.226   6.135  17.496  0.00  0.00    +0.000 A 
ATOM     24  C   UNL     1      50.162   5.128  17.313  0.00  0.00    +0.000 A 
ATOM     25  S   UNL     1      50.414   4.161  18.693  0.00  0.00    +0.000 S 
ATOM     26  C   UNL     1      49.241   5.028  19.571  0.00  0.00    +0.000 A 
ATOM     27  N   UNL     1      48.924   4.673  20.848  0.00  0.00    +0.000 NA
ATOM     28  C   UNL     1      47.980   5.381  21.374  0.00  0.00    +0.000 A 
ATOM     29  N   UNL     1      47.344   6.424  20.746  0.00  0.00    +0.000 N 
ATOM     30  C   UNL     1      47.677   6.858  19.489  0.00  0.00    +0.000 A 
ATOM     31  O   UNL     1      47.171   7.853  18.980  0.00  0.00    +0.000 OA
ATOM     32  C   UNL     1      48.697   6.059  18.833  0.00  0.00    +0.000 A 
ATOM     33  H   UNL     1      46.624   6.945  21.227  0.00  0.00    +0.000 HD
ENDBRANCH  20  23
ENDBRANCH   1  19
BRANCH   1  35
ATOM     34  N   UNL     1      50.054   8.274  12.784  0.00  0.00    +0.000 NA
ATOM     35  C   UNL     1      49.147   7.882  13.395  0.00  0.00    +0.000 C 
ENDBRANCH   1  35
TORSDOF 7
ENDMDL
MODEL 5
REMARK VINA RESULT:    -7.472      1.803      2.132
REMARK INTER + INTRA:         -11.583
REMARK INTER:                 -10.684
REMARK INTRA:                  -0.899
REMARK UNBOUND:                -1.054
REMARK  Name = 
REMARK  7 active torsions:
REMARK  status: ('A' for Active; 'I' for Inactive)
REMARK    1  A    between atoms: C_2  and  C_3
REMARK    2  A    between atoms: C_3  and  N_4
REMARK    3  A    between atoms: C_3  and  C_17
REMARK    4  A    between atoms: C_5  and  C_7
REMARK    5  A    between atoms: C_20  and  C_21
REMARK    6  A    between atoms: C_21  and  N_22
REMARK    7  A    between atoms: C_23  and  C_25
REMARK                            x       y       z     vdW  Elec       q    Type
REMARK                         _______ _______ _______ _____ _____    ______ ____
ROOT
ATOM      1  C   UNL     1      48.018   7.934  13.796  0.00  0.00    +0.000 C 
ENDROOT
BRANCH   1   2
ATOM      2  C   UNL     1      47.031   7.081  12.994  0.00  0.00    +0.000 A 
ATOM      3  C   UNL     1      46.129   7.702  12.110  0.00  0.00    +0.000 A 
ATOM      4  C   UNL     1      45.225   6.950  11.342  0.00  0.00    +0.000 A 
ATOM      5  C   UNL     1      45.182   5.555  11.456  0.00  0.00    +0.000 A 
ATOM      6  C   UNL     1      46.090   4.932  12.321  0.00  0.00    +0.000 A 
ATOM      7  C   UNL     1      46.993   5.680  13.088  0.00  0.00    +0.000 A 
BRANCH   5   8
ATOM      8  C   UNL     1      44.166   4.718  10.716  0.00  0.00    +0.000 C 
BRANCH   8   9
ATOM      9  N   UNL     1      44.760   3.702   9.882  0.00  0.00    +0.000 N 
ATOM     10  C   UNL     1      45.485   4.069   8.762  0.00  0.00    +0.000 C 
ATOM     11  O   UNL     1      45.649   5.229   8.411  0.00  0.00    +0.000 OA
ATOM     12  H   UNL     1      44.869   2.772  10.262  0.00  0.00    +0.000 HD
BRANCH  10  13
ATOM     13  C   UNL     1      46.108   2.957   7.999  0.00  0.00    +0.000 A 
ATOM     14  C   UNL     1      46.012   1.635   8.433  0.00  0.00    +0.000 A 
ATOM     15  C   UNL     1      46.623   0.655   7.673  0.00  0.00    +0.000 A 
ATOM     16  N   UNL     1      47.300   0.907   6.534  0.00  0.00    +0.000 NA
ATOM     17  C   UNL     1      47.359   2.195   6.125  0.00  0.00    +0.000 A 
ATOM     18  C   UNL     1      46.780   3.247   6.811  0.00  0.00    +0.000 A 
ENDBRANCH  10  13
ENDBRANCH   8   9
ENDBRANCH   5   8
ENDBRANCH   1   2
BRANCH   1  19
ATOM     19  N   UNL     1      48.056   7.529  15.197  0.00  0.00    +0.000 N 
ATOM     20  C   UNL     1      48.422   8.436  16.166  0.00  0.00    +0.000 C 
ATOM     21  O   UNL     1      48.700   9.599  15.881  0.00  0.00    +0.000 OA
ATOM     22  H   UNL     1      48.100   6.536  15.411  0.00  0.00    +0.000 HD
BRANCH  20  23
ATOM     23  C   UNL     1      48.392   7.988  17.563  0.00  0.00    +0.000 A 
ATOM     24  C   UNL     1      47.812   8.793  18.532  0.00  0.00    +0.000 A 
ATOM     25  S   UNL     1      47.861   8.129  20.101  0.00  0.00    +0.000 S 
ATOM     26  C   UNL     1      48.705   6.760  19.545  0.00  0.00    +0.000 A 
ATOM     27  N   UNL     1      49.107   5.790  20.413  0.00  0.00    +0.000 NA
ATOM     28  C   UNL     1      49.785   4.837  19.864  0.00  0.00    +0.000 A 
ATOM     29  N   UNL     1      50.074   4.756  18.524  0.00  0.00    +0.000 N 
ATOM     30  C   UNL     1      49.631   5.673  17.605  0.00  0.00    +0.000 A 
ATOM     31  O   UNL     1      49.810   5.536  16.398  0.00  0.00    +0.000 OA
ATOM     32  C   UNL     1      48.910   6.795  18.181  0.00  0.00    +0.000 A 
ATOM     33  H   UNL     1      50.595   3.970  18.161  0.00  0.00    +0.000 HD
ENDBRANCH  20  23
ENDBRANCH   1  19
BRANCH   1  35
ATOM     34  N   UNL     1      50.441   8.019  12.731  0.00  0.00    +0.000 NA
ATOM     35  C   UNL     1      49.369   7.978  13.180  0.00  0.00    +0.000 C 
ENDBRANCH   1  35
TORSDOF 7
ENDMDL
MODEL 6
REMARK VINA RESULT:    -7.441      4.181      7.130
REMARK INTER + INTRA:         -11.540
REMARK INTER:                 -10.441
REMARK INTRA:                  -1.100
REMARK UNBOUND:                -1.054
REMARK  Name = 
REMARK  7 active torsions:
REMARK  status: ('A' for Active; 'I' for Inactive)
REMARK    1  A    between atoms: C_2  and  C_3
REMARK    2  A    between atoms: C_3  and  N_4
REMARK    3  A    between atoms: C_3  and  C_17
REMARK    4  A    between atoms: C_5  and  C_7
REMARK    5  A    between atoms: C_20  and  C_21
REMARK    6  A    between atoms: C_21  and  N_22
REMARK    7  A    between atoms: C_23  and  C_25
REMARK                            x       y       z     vdW  Elec       q    Type
REMARK                         _______ _______ _______ _____ _____    ______ ____
ROOT
ATOM      1  C   UNL     1      45.804   5.085  13.058  0.00  0.00    +0.000 C 
ENDROOT
BRANCH   1   2
ATOM      2  C   UNL     1      45.389   6.479  12.580  0.00  0.00    +0.000 A 
ATOM      3  C   UNL     1      45.997   7.618  13.139  0.00  0.00    +0.000 A 
ATOM      4  C   UNL     1      45.658   8.912  12.710  0.00  0.00    +0.000 A 
ATOM      5  C   UNL     1      44.682   9.102  11.724  0.00  0.00    +0.000 A 
ATOM      6  C   UNL     1      44.087   7.970  11.152  0.00  0.00    +0.000 A 
ATOM      7  C   UNL     1      44.424   6.679  11.579  0.00  0.00    +0.000 A 
BRANCH   5   8
ATOM      8  C   UNL     1      44.225  10.477  11.298  0.00  0.00    +0.000 C 
BRANCH   8   9
ATOM      9  N   UNL     1      42.992  10.890  11.923  0.00  0.00    +0.000 N 
ATOM     10  C   UNL     1      41.801  10.782  11.230  0.00  0.00    +0.000 C 
ATOM     11  O   UNL     1      41.719  10.363  10.083  0.00  0.00    +0.000 OA
ATOM     12  H   UNL     1      42.975  10.995  12.928  0.00  0.00    +0.000 HD
BRANCH  10  13
ATOM     13  C   UNL     1      40.578  11.176  11.975  0.00  0.00    +0.000 A 
ATOM     14  C   UNL     1      40.636  12.066  13.047  0.00  0.00    +0.000 A 
ATOM     15  C   UNL     1      39.456  12.381  13.696  0.00  0.00    +0.000 A 
ATOM     16  N   UNL     1      38.254  11.879  13.344  0.00  0.00    +0.000 NA
ATOM     17  C   UNL     1      38.224  11.037  12.288  0.00  0.00    +0.000 A 
ATOM     18  C   UNL     1      39.345  10.661  11.571  0.00  0.00    +0.000 A 
ENDBRANCH  10  13
ENDBRANCH   8   9
ENDBRANCH   5   8
ENDBRANCH   1   2
BRANCH   1  19
ATOM     19  N   UNL     1      46.389   5.132  14.394  0.00  0.00    +0.000 N 
ATOM     20  C   UNL     1      47.167   4.088  14.841  0.00  0.00    +0.000 C 
ATOM     21  O   UNL     1      47.404   3.115  14.129  0.00  0.00    +0.000 OA
ATOM     22  H   UNL     1      45.989   5.773  15.073  0.00  0.00    +0.000 HD
BRANCH  20  23
ATOM     23  C   UNL     1      47.772   4.213  16.172  0.00  0.00    +0.000 A 
ATOM     24  C   UNL     1      47.475   3.278  17.154  0.00  0.00    +0.000 A 
ATOM     25  S   UNL     1      48.255   3.567  18.641  0.00  0.00    +0.000 S 
ATOM     26  C   UNL     1      48.982   4.983  18.037  0.00  0.00    +0.000 A 
ATOM     27  N   UNL     1      49.767   5.759  18.837  0.00  0.00    +0.000 NA
ATOM     28  C   UNL     1      50.208   6.830  18.265  0.00  0.00    +0.000 A 
ATOM     29  N   UNL     1      49.953   7.181  16.962  0.00  0.00    +0.000 N 
ATOM     30  C   UNL     1      49.226   6.397  16.103  0.00  0.00    +0.000 A 
ATOM     31  O   UNL     1      49.091   6.673  14.915  0.00  0.00    +0.000 OA
ATOM     32  C   UNL     1      48.662   5.207  16.713  0.00  0.00    +0.000 A 
ATOM     33  H   UNL     1      50.347   8.028  16.576  0.00  0.00    +0.000 HD
ENDBRANCH  20  23
ENDBRANCH   1  19
BRANCH   1  35
ATOM     34  N   UNL     1      43.854   3.300  12.903  0.00  0.00    +0.000 NA
ATOM     35  C   UNL     1      44.703   4.092  12.954  0.00  0.00    +0.000 C 
ENDBRANCH   1  35
TORSDOF 7
ENDMDL
MODEL 7
REMARK VINA RESULT:    -7.081      4.286      7.047
REMARK INTER + INTRA:         -11.032
REMARK INTER:                  -9.888
REMARK INTRA:                  -1.144
REMARK UNBOUND:                -1.054
REMARK  Name = 
REMARK  7 active torsions:
REMARK  status: ('A' for Active; 'I' for Inactive)
REMARK    1  A    between atoms: C_2  and  C_3
REMARK    2  A    between atoms: C_3  and  N_4
REMARK    3  A    between atoms: C_3  and  C_17
REMARK    4  A    between atoms: C_5  and  C_7
REMARK    5  A    between atoms: C_20  and  C_21
REMARK    6  A    between atoms: C_21  and  N_22
REMARK    7  A    between atoms: C_23  and  C_25
REMARK                            x       y       z     vdW  Elec       q    Type
REMARK                         _______ _______ _______ _____ _____    ______ ____
ROOT
ATOM      1  C   UNL     1      45.853   5.533  12.980  0.00  0.00    +0.000 C 
ENDROOT
BRANCH   1   2
ATOM      2  C   UNL     1      45.326   6.880  12.477  0.00  0.00    +0.000 A 
ATOM      3  C   UNL     1      45.850   8.075  13.002  0.00  0.00    +0.000 A 
ATOM      4  C   UNL     1      45.407   9.328  12.549  0.00  0.00    +0.000 A 
ATOM      5  C   UNL     1      44.407   9.420  11.572  0.00  0.00    +0.000 A 
ATOM      6  C   UNL     1      43.896   8.232  11.034  0.00  0.00    +0.000 A 
ATOM      7  C   UNL     1      44.337   6.981  11.485  0.00  0.00    +0.000 A 
BRANCH   5   8
ATOM      8  C   UNL     1      43.840  10.745  11.123  0.00  0.00    +0.000 C 
BRANCH   8   9
ATOM      9  N   UNL     1      42.666  11.145  11.860  0.00  0.00    +0.000 N 
ATOM     10  C   UNL     1      41.413  10.972  11.301  0.00  0.00    +0.000 C 
ATOM     11  O   UNL     1      41.225  10.503  10.186  0.00  0.00    +0.000 OA
ATOM     12  H   UNL     1      42.751  11.292  12.855  0.00  0.00    +0.000 HD
BRANCH  10  13
ATOM     13  C   UNL     1      40.262  11.359  12.157  0.00  0.00    +0.000 A 
ATOM     14  C   UNL     1      38.957  10.995  11.827  0.00  0.00    +0.000 A 
ATOM     15  C   UNL     1      37.937  11.397  12.669  0.00  0.00    +0.000 A 
ATOM     16  N   UNL     1      38.136  12.117  13.792  0.00  0.00    +0.000 NA
ATOM     17  C   UNL     1      39.413  12.437  14.099  0.00  0.00    +0.000 A 
ATOM     18  C   UNL     1      40.503  12.081  13.326  0.00  0.00    +0.000 A 
ENDBRANCH  10  13
ENDBRANCH   8   9
ENDBRANCH   5   8
ENDBRANCH   1   2
BRANCH   1  19
ATOM     19  N   UNL     1      46.523   5.672  14.269  0.00  0.00    +0.000 N 
ATOM     20  C   UNL     1      47.894   5.791  14.322  0.00  0.00    +0.000 C 
ATOM     21  O   UNL     1      48.575   5.807  13.300  0.00  0.00    +0.000 OA
ATOM     22  H   UNL     1      46.021   5.389  15.106  0.00  0.00    +0.000 HD
BRANCH  20  23
ATOM     23  C   UNL     1      48.509   5.979  15.641  0.00  0.00    +0.000 A 
ATOM     24  C   UNL     1      49.401   7.022  15.842  0.00  0.00    +0.000 A 
ATOM     25  S   UNL     1      50.026   7.101  17.426  0.00  0.00    +0.000 S 
ATOM     26  C   UNL     1      49.159   5.710  17.886  0.00  0.00    +0.000 A 
ATOM     27  N   UNL     1      49.284   5.195  19.141  0.00  0.00    +0.000 NA
ATOM     28  C   UNL     1      48.613   4.108  19.336  0.00  0.00    +0.000 A 
ATOM     29  N   UNL     1      47.813   3.506  18.397  0.00  0.00    +0.000 N 
ATOM     30  C   UNL     1      47.604   4.027  17.145  0.00  0.00    +0.000 A 
ATOM     31  O   UNL     1      46.808   3.534  16.351  0.00  0.00    +0.000 OA
ATOM     32  C   UNL     1      48.379   5.220  16.858  0.00  0.00    +0.000 A 
ATOM     33  H   UNL     1      47.303   2.664  18.626  0.00  0.00    +0.000 HD
ENDBRANCH  20  23
ENDBRANCH   1  19
BRANCH   1  35
ATOM     34  N   UNL     1      43.973   3.669  13.027  0.00  0.00    +0.000 NA
ATOM     35  C   UNL     1      44.808   4.477  12.992  0.00  0.00    +0.000 C 
ENDBRANCH   1  35
TORSDOF 7
ENDMDL
MODEL 8
REMARK VINA RESULT:    -6.486      3.496      5.194
REMARK INTER + INTRA:         -10.195
REMARK INTER:                  -9.190
REMARK INTRA:                  -1.005
REMARK UNBOUND:                -1.054
REMARK  Name = 
REMARK  7 active torsions:
REMARK  status: ('A' for Active; 'I' for Inactive)
REMARK    1  A    between atoms: C_2  and  C_3
REMARK    2  A    between atoms: C_3  and  N_4
REMARK    3  A    between atoms: C_3  and  C_17
REMARK    4  A    between atoms: C_5  and  C_7
REMARK    5  A    between atoms: C_20  and  C_21
REMARK    6  A    between atoms: C_21  and  N_22
REMARK    7  A    between atoms: C_23  and  C_25
REMARK                            x       y       z     vdW  Elec       q    Type
REMARK                         _______ _______ _______ _____ _____    ______ ____
ROOT
ATOM      1  C   UNL     1      48.977   7.527  13.821  0.00  0.00    +0.000 C 
ENDROOT
BRANCH   1   2
ATOM      2  C   UNL     1      47.846   6.823  13.067  0.00  0.00    +0.000 A 
ATOM      3  C   UNL     1      47.247   5.676  13.619  0.00  0.00    +0.000 A 
ATOM      4  C   UNL     1      46.192   5.018  12.967  0.00  0.00    +0.000 A 
ATOM      5  C   UNL     1      45.723   5.476  11.729  0.00  0.00    +0.000 A 
ATOM      6  C   UNL     1      46.304   6.628  11.185  0.00  0.00    +0.000 A 
ATOM      7  C   UNL     1      47.357   7.286  11.834  0.00  0.00    +0.000 A 
BRANCH   5   8
ATOM      8  C   UNL     1      44.653   4.746  10.954  0.00  0.00    +0.000 C 
BRANCH   8   9
ATOM      9  N   UNL     1      45.173   3.705  10.100  0.00  0.00    +0.000 N 
ATOM     10  C   UNL     1      45.602   4.016   8.823  0.00  0.00    +0.000 C 
ATOM     11  O   UNL     1      45.556   5.142   8.346  0.00  0.00    +0.000 OA
ATOM     12  H   UNL     1      45.464   2.836  10.525  0.00  0.00    +0.000 HD
BRANCH  10  13
ATOM     13  C   UNL     1      46.176   2.892   8.039  0.00  0.00    +0.000 A 
ATOM     14  C   UNL     1      46.928   3.119   6.887  0.00  0.00    +0.000 A 
ATOM     15  C   UNL     1      47.424   2.021   6.208  0.00  0.00    +0.000 A 
ATOM     16  N   UNL     1      47.224   0.747   6.601  0.00  0.00    +0.000 NA
ATOM     17  C   UNL     1      46.510   0.557   7.733  0.00  0.00    +0.000 A 
ATOM     18  C   UNL     1      45.974   1.585   8.486  0.00  0.00    +0.000 A 
ENDBRANCH  10  13
ENDBRANCH   8   9
ENDBRANCH   5   8
ENDBRANCH   1   2
BRANCH   1  19
ATOM     19  N   UNL     1      49.799   8.331  12.921  0.00  0.00    +0.000 N 
ATOM     20  C   UNL     1      51.101   8.625  13.257  0.00  0.00    +0.000 C 
ATOM     21  O   UNL     1      51.604   8.206  14.297  0.00  0.00    +0.000 OA
ATOM     22  H   UNL     1      49.331   8.898  12.219  0.00  0.00    +0.000 HD
BRANCH  20  23
ATOM     23  C   UNL     1      51.895   9.392  12.291  0.00  0.00    +0.000 A 
ATOM     24  C   UNL     1      52.322  10.672  12.613  0.00  0.00    +0.000 A 
ATOM     25  S   UNL     1      53.229  11.427  11.383  0.00  0.00    +0.000 S 
ATOM     26  C   UNL     1      53.042  10.082  10.356  0.00  0.00    +0.000 A 
ATOM     27  N   UNL     1      53.554  10.093   9.094  0.00  0.00    +0.000 NA
ATOM     28  C   UNL     1      53.290   9.031   8.406  0.00  0.00    +0.000 A 
ATOM     29  N   UNL     1      52.582   7.953   8.877  0.00  0.00    +0.000 N 
ATOM     30  C   UNL     1      52.107   7.871  10.162  0.00  0.00    +0.000 A 
ATOM     31  O   UNL     1      51.564   6.861  10.600  0.00  0.00    +0.000 OA
ATOM     32  C   UNL     1      52.331   9.064  10.958  0.00  0.00    +0.000 A 
ATOM     33  H   UNL     1      52.428   7.147   8.287  0.00  0.00    +0.000 HD
ENDBRANCH  20  23
ENDBRANCH   1  19
BRANCH   1  35
ATOM     34  N   UNL     1      48.138   8.932  15.903  0.00  0.00    +0.000 NA
ATOM     35  C   UNL     1      48.490   8.303  14.992  0.00  0.00    +0.000 C 
ENDBRANCH   1  35
TORSDOF 7
ENDMDL
MODEL 9
REMARK VINA RESULT:    -6.428      5.304      7.720
REMARK INTER + INTRA:         -10.112
REMARK INTER:                  -9.051
REMARK INTRA:                  -1.060
REMARK UNBOUND:                -1.054
REMARK  Name = 
REMARK  7 active torsions:
REMARK  status: ('A' for Active; 'I' for Inactive)
REMARK    1  A    between atoms: C_2  and  C_3
REMARK    2  A    between atoms: C_3  and  N_4
REMARK    3  A    between atoms: C_3  and  C_17
REMARK    4  A    between atoms: C_5  and  C_7
REMARK    5  A    between atoms: C_20  and  C_21
REMARK    6  A    between atoms: C_21  and  N_22
REMARK    7  A    between atoms: C_23  and  C_25
REMARK                            x       y       z     vdW  Elec       q    Type
REMARK                         _______ _______ _______ _____ _____    ______ ____
ROOT
ATOM      1  C   UNL     1      51.875   9.464  11.366  0.00  0.00    +0.000 C 
ENDROOT
BRANCH   1   2
ATOM      2  C   UNL     1      50.880   8.623  12.170  0.00  0.00    +0.000 A 
ATOM      3  C   UNL     1      51.071   8.448  13.553  0.00  0.00    +0.000 A 
ATOM      4  C   UNL     1      50.167   7.703  14.327  0.00  0.00    +0.000 A 
ATOM      5  C   UNL     1      49.057   7.090  13.732  0.00  0.00    +0.000 A 
ATOM      6  C   UNL     1      48.853   7.277  12.359  0.00  0.00    +0.000 A 
ATOM      7  C   UNL     1      49.754   8.020  11.586  0.00  0.00    +0.000 A 
BRANCH   5   8
ATOM      8  C   UNL     1      48.112   6.207  14.511  0.00  0.00    +0.000 C 
BRANCH   8   9
ATOM      9  N   UNL     1      46.902   5.890  13.792  0.00  0.00    +0.000 N 
ATOM     10  C   UNL     1      46.612   4.573  13.484  0.00  0.00    +0.000 C 
ATOM     11  O   UNL     1      47.339   3.632  13.773  0.00  0.00    +0.000 OA
ATOM     12  H   UNL     1      46.166   6.581  13.760  0.00  0.00    +0.000 HD
BRANCH  10  13
ATOM     13  C   UNL     1      45.317   4.338  12.794  0.00  0.00    +0.000 A 
ATOM     14  C   UNL     1      44.228   5.187  12.985  0.00  0.00    +0.000 A 
ATOM     15  C   UNL     1      43.054   4.900  12.313  0.00  0.00    +0.000 A 
ATOM     16  N   UNL     1      42.907   3.848  11.482  0.00  0.00    +0.000 NA
ATOM     17  C   UNL     1      43.986   3.054  11.299  0.00  0.00    +0.000 A 
ATOM     18  C   UNL     1      45.205   3.256  11.920  0.00  0.00    +0.000 A 
ENDBRANCH  10  13
ENDBRANCH   8   9
ENDBRANCH   5   8
ENDBRANCH   1   2
BRANCH   1  19
ATOM     19  N   UNL     1      52.078   8.914  10.029  0.00  0.00    +0.000 N 
ATOM     20  C   UNL     1      53.353   8.644   9.584  0.00  0.00    +0.000 C 
ATOM     21  O   UNL     1      54.334   8.834  10.298  0.00  0.00    +0.000 OA
ATOM     22  H   UNL     1      51.330   9.011   9.349  0.00  0.00    +0.000 HD
BRANCH  20  23
ATOM     23  C   UNL     1      53.494   8.044   8.252  0.00  0.00    +0.000 A 
ATOM     24  C   UNL     1      53.445   8.852   7.125  0.00  0.00    +0.000 A 
ATOM     25  S   UNL     1      53.621   8.002   5.658  0.00  0.00    +0.000 S 
ATOM     26  C   UNL     1      53.723   6.514   6.479  0.00  0.00    +0.000 A 
ATOM     27  N   UNL     1      53.839   5.345   5.790  0.00  0.00    +0.000 NA
ATOM     28  C   UNL     1      53.849   4.290   6.537  0.00  0.00    +0.000 A 
ATOM     29  N   UNL     1      53.777   4.304   7.908  0.00  0.00    +0.000 N 
ATOM     30  C   UNL     1      53.729   5.460   8.645  0.00  0.00    +0.000 A 
ATOM     31  O   UNL     1      53.767   5.461   9.872  0.00  0.00    +0.000 OA
ATOM     32  C   UNL     1      53.660   6.672   7.849  0.00  0.00    +0.000 A 
ATOM     33  H   UNL     1      53.809   3.438   8.428  0.00  0.00    +0.000 HD
ENDBRANCH  20  23
ENDBRANCH   1  19
BRANCH   1  35
ATOM     34  N   UNL     1      51.205  12.026  11.333  0.00  0.00    +0.000 NA
ATOM     35  C   UNL     1      51.518  10.906  11.340  0.00  0.00    +0.000 C 
ENDBRANCH   1  35
TORSDOF 7
ENDMDL
