MODEL 1
REMARK VINA RESULT:    -8.377      0.000      0.000
REMARK INTER + INTRA:         -12.013
REMARK INTER:                 -11.315
REMARK INTRA:                  -0.698
REMARK UNBOUND:                -0.698
REMARK  Name = 
REMARK  6 active torsions:
REMARK  status: ('A' for Active; 'I' for Inactive)
REMARK    1  A    between atoms: C_2  and  C_26
REMARK    2  A    between atoms: N_3  and  C_4
REMARK    3  A    between atoms: C_4  and  C_5
REMARK    4  A    between atoms: C_8  and  C_9
REMARK    5  A    between atoms: C_9  and  N_10
REMARK    6  A    between atoms: C_11  and  C_13
REMARK                            x       y       z     vdW  Elec       q    Type
REMARK                         _______ _______ _______ _____ _____    ______ ____
ROOT
ATOM      1  C   UNL     1      45.080   6.150  11.231  0.00  0.00    +0.000 A 
ATOM      2  C   UNL     1      46.289   5.661  11.745  0.00  0.00    +0.000 A 
ATOM      3  C   UNL     1      47.109   6.472  12.538  0.00  0.00    +0.000 A 
ATOM      4  C   UNL     1      46.729   7.784  12.852  0.00  0.00    +0.000 A 
ATOM      5  C   UNL     1      45.524   8.275  12.331  0.00  0.00    +0.000 A 
ATOM      6  C   UNL     1      44.702   7.464  11.540  0.00  0.00    +0.000 A 
ENDROOT
BRANCH   1   7
ATOM      7  C   UNL     1      44.211   5.281  10.361  0.00  0.00    +0.000 C 
BRANCH   7  10
ATOM      8  O   UNL     1      44.634   2.566  10.045  0.00  0.00    +0.000 OA
ATOM      9  C   UNL     1      45.093   3.324   9.197  0.00  0.00    +0.000 C 
ATOM     10  N   UNL     1      44.938   4.695   9.256  0.00  0.00    +0.000 N 
ATOM     11  H   UNL     1      45.187   5.285   8.475  0.00  0.00    +0.000 HD
BRANCH   9  12
ATOM     12  C   UNL     1      45.834   2.766   8.042  0.00  0.00    +0.000 A 
ATOM     13  C   UNL     1      46.122   3.489   6.884  0.00  0.00    +0.000 A 
ATOM     14  C   UNL     1      46.872   2.888   5.871  0.00  0.00    +0.000 A 
ATOM     15  C   UNL     1      47.306   1.583   6.053  0.00  0.00    +0.000 A 
ATOM     16  N   UNL     1      47.046   0.856   7.159  0.00  0.00    +0.000 NA
ATOM     17  C   UNL     1      46.325   1.466   8.134  0.00  0.00    +0.000 A 
ENDBRANCH   9  12
ENDBRANCH   7  10
ENDBRANCH   1   7
BRANCH   4  18
ATOM     18  C   UNL     1      47.598   8.646  13.733  0.00  0.00    +0.000 C 
BRANCH  18  19
ATOM     19  N   UNL     1      47.714   8.114  15.072  0.00  0.00    +0.000 N 
ATOM     20  C   UNL     1      48.813   7.356  15.426  0.00  0.00    +0.000 C 
ATOM     21  O   UNL     1      49.731   7.090  14.660  0.00  0.00    +0.000 OA
ATOM     22  H   UNL     1      47.101   8.492  15.782  0.00  0.00    +0.000 HD
BRANCH  20  23
ATOM     23  C   UNL     1      48.858   6.882  16.828  0.00  0.00    +0.000 A 
ATOM     24  C   UNL     1      49.098   7.790  17.854  0.00  0.00    +0.000 A 
ATOM     25  N   UNL     1      49.135   7.457  19.174  0.00  0.00    +0.000 NA
ATOM     26  C   UNL     1      48.942   6.157  19.486  0.00  0.00    +0.000 A 
ATOM     27  N   UNL     1      48.965   5.864  20.856  0.00  0.00    +0.000 NA
ATOM     28  C   UNL     1      48.785   4.637  21.200  0.00  0.00    +0.000 A 
ATOM     29  N   UNL     1      48.582   3.615  20.318  0.00  0.00    +0.000 N 
ATOM     30  C   UNL     1      48.544   3.807  18.962  0.00  0.00    +0.000 A 
ATOM     31  O   UNL     1      48.357   2.893  18.169  0.00  0.00    +0.000 OA
ATOM     32  C   UNL     1      48.731   5.188  18.514  0.00  0.00    +0.000 A 
ATOM     33  C   UNL     1      48.691   5.541  17.166  0.00  0.00    +0.000 A 
ATOM     34  H   UNL     1      48.447   2.668  20.644  0.00  0.00    +0.000 HD
ENDBRANCH  20  23
ENDBRANCH  18  19
ENDBRANCH   4  18
TORSDOF 6
ENDMDL
MODEL 2
REMARK VINA RESULT:    -8.100      1.490      2.075
REMARK INTER + INTRA:         -11.640
REMARK INTER:                 -10.880
REMARK INTRA:                  -0.760
REMARK UNBOUND:                -0.698
REMARK  Name = 
REMARK  6 active torsions:
REMARK  status: ('A' for Active; 'I' for Inactive)
REMARK    1  A    between atoms: C_2  and  C_26
REMARK    2  A    between atoms: N_3  and  C_4
REMARK    3  A    between atoms: C_4  and  C_5
REMARK    4  A    between atoms: C_8  and  C_9
REMARK    5  A    between atoms: C_9  and  N_10
REMARK    6  A    between atoms: C_11  and  C_13
REMARK                            x       y       z     vdW  Elec       q    Type
REMARK                         _______ _______ _______ _____ _____    ______ ____
ROOT
ATOM      1  C   UNL     1      45.514   6.512  11.518  0.00  0.00    +0.000 A 
ATOM      2  C   UNL     1      45.238   7.781  12.043  0.00  0.00    +0.000 A 
ATOM      3  C   UNL     1      46.085   8.360  12.995  0.00  0.00    +0.000 A 
ATOM      4  C   UNL     1      47.238   7.692  13.428  0.00  0.00    +0.000 A 
ATOM      5  C   UNL     1      47.510   6.419  12.908  0.00  0.00    +0.000 A 
ATOM      6  C   UNL     1      46.664   5.840  11.954  0.00  0.00    +0.000 A 
ENDROOT
BRANCH   1   7
ATOM      7  C   UNL     1      44.589   5.884  10.509  0.00  0.00    +0.000 C 
BRANCH   7  10
ATOM      8  O   UNL     1      44.055   3.232   9.930  0.00  0.00    +0.000 OA
ATOM      9  C   UNL     1      44.950   3.790   9.304  0.00  0.00    +0.000 C 
ATOM     10  N   UNL     1      45.297   5.111   9.511  0.00  0.00    +0.000 N 
ATOM     11  H   UNL     1      45.926   5.592   8.883  0.00  0.00    +0.000 HD
BRANCH   9  12
ATOM     12  C   UNL     1      45.692   3.040   8.264  0.00  0.00    +0.000 A 
ATOM     13  C   UNL     1      46.173   3.617   7.088  0.00  0.00    +0.000 A 
ATOM     14  C   UNL     1      46.906   2.835   6.193  0.00  0.00    +0.000 A 
ATOM     15  C   UNL     1      47.132   1.502   6.507  0.00  0.00    +0.000 A 
ATOM     16  N   UNL     1      46.681   0.913   7.635  0.00  0.00    +0.000 NA
ATOM     17  C   UNL     1      45.981   1.697   8.494  0.00  0.00    +0.000 A 
ENDBRANCH   9  12
ENDBRANCH   7  10
ENDBRANCH   1   7
BRANCH   4  18
ATOM     18  C   UNL     1      48.166   8.330  14.430  0.00  0.00    +0.000 C 
BRANCH  18  19
ATOM     19  N   UNL     1      48.048   7.732  15.741  0.00  0.00    +0.000 N 
ATOM     20  C   UNL     1      48.986   6.818  16.176  0.00  0.00    +0.000 C 
ATOM     21  O   UNL     1      49.949   6.461  15.507  0.00  0.00    +0.000 OA
ATOM     22  H   UNL     1      47.407   8.161  16.396  0.00  0.00    +0.000 HD
BRANCH  20  23
ATOM     23  C   UNL     1      48.797   6.284  17.544  0.00  0.00    +0.000 A 
ATOM     24  C   UNL     1      49.120   4.959  17.816  0.00  0.00    +0.000 A 
ATOM     25  N   UNL     1      49.005   4.382  19.045  0.00  0.00    +0.000 NA
ATOM     26  C   UNL     1      48.529   5.156  20.045  0.00  0.00    +0.000 A 
ATOM     27  N   UNL     1      48.450   4.529  21.295  0.00  0.00    +0.000 NA
ATOM     28  C   UNL     1      48.002   5.228  22.278  0.00  0.00    +0.000 A 
ATOM     29  N   UNL     1      47.599   6.529  22.173  0.00  0.00    +0.000 N 
ATOM     30  C   UNL     1      47.641   7.221  20.992  0.00  0.00    +0.000 A 
ATOM     31  O   UNL     1      47.285   8.390  20.896  0.00  0.00    +0.000 OA
ATOM     32  C   UNL     1      48.154   6.477  19.841  0.00  0.00    +0.000 A 
ATOM     33  C   UNL     1      48.280   7.058  18.580  0.00  0.00    +0.000 A 
ATOM     34  H   UNL     1      47.254   7.031  22.980  0.00  0.00    +0.000 HD
ENDBRANCH  20  23
ENDBRANCH  18  19
ENDBRANCH   4  18
TORSDOF 6
ENDMDL
MODEL 3
REMARK VINA RESULT:    -7.512      5.642     10.356
REMARK INTER + INTRA:         -10.845
REMARK INTER:                 -10.161
REMARK INTRA:                  -0.684
REMARK UNBOUND:                -0.698
REMARK  Name = 
REMARK  6 active torsions:
REMARK  status: ('A' for Active; 'I' for Inactive)
REMARK    1  A    between atoms: C_2  and  C_26
REMARK    2  A    between atoms: N_3  and  C_4
REMARK    3  A    between atoms: C_4  and  C_5
REMARK    4  A    between atoms: C_8  and  C_9
REMARK    5  A    between atoms: C_9  and  N_10
REMARK    6  A    between atoms: C_11  and  C_13
REMARK                            x       y       z     vdW  Elec       q    Type
REMARK                         _______ _______ _______ _____ _____    ______ ____
ROOT
ATOM      1  C   UNL     1      45.949   6.710  12.700  0.00  0.00    +0.000 A 
ATOM      2  C   UNL     1      44.919   6.841  11.759  0.00  0.00    +0.000 A 
ATOM      3  C   UNL     1      44.438   8.106  11.399  0.00  0.00    +0.000 A 
ATOM      4  C   UNL     1      44.990   9.267  11.955  0.00  0.00    +0.000 A 
ATOM      5  C   UNL     1      46.015   9.134  12.902  0.00  0.00    +0.000 A 
ATOM      6  C   UNL     1      46.498   7.870  13.262  0.00  0.00    +0.000 A 
ENDROOT
BRANCH   1   7
ATOM      7  C   UNL     1      46.450   5.347  13.100  0.00  0.00    +0.000 C 
BRANCH   7  10
ATOM      8  O   UNL     1      47.353   3.057  14.361  0.00  0.00    +0.000 OA
ATOM      9  C   UNL     1      47.315   4.096  15.011  0.00  0.00    +0.000 C 
ATOM     10  N   UNL     1      46.885   5.296  14.479  0.00  0.00    +0.000 N 
ATOM     11  H   UNL     1      47.006   6.165  14.980  0.00  0.00    +0.000 HD
BRANCH   9  12
ATOM     12  C   UNL     1      47.762   4.093  16.423  0.00  0.00    +0.000 A 
ATOM     13  C   UNL     1      47.895   2.934  17.190  0.00  0.00    +0.000 A 
ATOM     14  C   UNL     1      48.374   3.031  18.498  0.00  0.00    +0.000 A 
ATOM     15  C   UNL     1      48.702   4.285  18.993  0.00  0.00    +0.000 A 
ATOM     16  N   UNL     1      48.585   5.424  18.279  0.00  0.00    +0.000 NA
ATOM     17  C   UNL     1      48.128   5.303  17.007  0.00  0.00    +0.000 A 
ENDBRANCH   9  12
ENDBRANCH   7  10
ENDBRANCH   1   7
BRANCH   4  18
ATOM     18  C   UNL     1      44.492  10.629  11.543  0.00  0.00    +0.000 C 
BRANCH  18  19
ATOM     19  N   UNL     1      43.111  10.840  11.914  0.00  0.00    +0.000 N 
ATOM     20  C   UNL     1      42.113  10.752  10.963  0.00  0.00    +0.000 C 
ATOM     21  O   UNL     1      42.321  10.500   9.783  0.00  0.00    +0.000 OA
ATOM     22  H   UNL     1      42.882  10.827  12.899  0.00  0.00    +0.000 HD
BRANCH  20  23
ATOM     23  C   UNL     1      40.728  10.953  11.445  0.00  0.00    +0.000 A 
ATOM     24  C   UNL     1      40.494  11.768  12.547  0.00  0.00    +0.000 A 
ATOM     25  N   UNL     1      39.257  12.034  13.051  0.00  0.00    +0.000 NA
ATOM     26  C   UNL     1      38.205  11.446  12.440  0.00  0.00    +0.000 A 
ATOM     27  N   UNL     1      36.952  11.766  12.976  0.00  0.00    +0.000 NA
ATOM     28  C   UNL     1      35.920  11.229  12.426  0.00  0.00    +0.000 A 
ATOM     29  N   UNL     1      35.976  10.370  11.365  0.00  0.00    +0.000 N 
ATOM     30  C   UNL     1      37.157  10.001  10.777  0.00  0.00    +0.000 A 
ATOM     31  O   UNL     1      37.210   9.235   9.822  0.00  0.00    +0.000 OA
ATOM     32  C   UNL     1      38.363  10.593  11.356  0.00  0.00    +0.000 A 
ATOM     33  C   UNL     1      39.634  10.331  10.847  0.00  0.00    +0.000 A 
ATOM     34  H   UNL     1      35.133   9.976  10.972  0.00  0.00    +0.000 HD
ENDBRANCH  20  23
ENDBRANCH  18  19
ENDBRANCH   4  18
TORSDOF 6
ENDMDL
MODEL 4
REMARK VINA RESULT:    -7.456      2.150      2.979
REMARK INTER + INTRA:         -10.769
REMARK INTER:                  -9.966
REMARK INTRA:                  -0.803
REMARK UNBOUND:                -0.698
REMARK  Name = 
REMARK  6 active torsions:
REMARK  status: ('A' for Active; 'I' for Inactive)
REMARK    1  A    between atoms: C_2  and  C_26
REMARK    2  A    between atoms: N_3  and  C_4
REMARK    3  A    between atoms: C_4  and  C_5
REMARK    4  A    between atoms: C_8  and  C_9
REMARK    5  A    between atoms: C_9  and  N_10
REMARK    6  A    between atoms: C_11  and  C_13
REMARK                            x       y       z     vdW  Elec       q    Type
REMARK                         _______ _______ _______ _____ _____    ______ ____
ROOT
ATOM      1  C   UNL     1      44.981   5.454  11.779  0.00  0.00    +0.000 A 
ATOM      2  C   UNL     1      46.232   5.260  12.382  0.00  0.00    +0.000 A 
ATOM      3  C   UNL     1      46.966   6.348  12.868  0.00  0.00    +0.000 A 
ATOM      4  C   UNL     1      46.458   7.651  12.782  0.00  0.00    +0.000 A 
ATOM      5  C   UNL     1      45.211   7.844  12.172  0.00  0.00    +0.000 A 
ATOM      6  C   UNL     1      44.474   6.757  11.687  0.00  0.00    +0.000 A 
ENDROOT
BRANCH   1   7
ATOM      7  C   UNL     1      44.203   4.282  11.239  0.00  0.00    +0.000 C 
BRANCH   7  10
ATOM      8  O   UNL     1      44.386   4.621   8.500  0.00  0.00    +0.000 OA
ATOM      9  C   UNL     1      45.014   3.699   9.010  0.00  0.00    +0.000 C 
ATOM     10  N   UNL     1      44.996   3.443  10.367  0.00  0.00    +0.000 N 
ATOM     11  H   UNL     1      45.636   2.781  10.784  0.00  0.00    +0.000 HD
BRANCH   9  12
ATOM     12  C   UNL     1      45.849   2.822   8.156  0.00  0.00    +0.000 A 
ATOM     13  C   UNL     1      46.609   3.285   7.081  0.00  0.00    +0.000 A 
ATOM     14  C   UNL     1      47.404   2.385   6.368  0.00  0.00    +0.000 A 
ATOM     15  C   UNL     1      47.409   1.053   6.757  0.00  0.00    +0.000 A 
ATOM     16  N   UNL     1      46.686   0.573   7.790  0.00  0.00    +0.000 NA
ATOM     17  C   UNL     1      45.930   1.469   8.474  0.00  0.00    +0.000 A 
ENDBRANCH   9  12
ENDBRANCH   7  10
ENDBRANCH   1   7
BRANCH   4  18
ATOM     18  C   UNL     1      47.236   8.818  13.335  0.00  0.00    +0.000 C 
BRANCH  18  19
ATOM     19  N   UNL     1      47.285   8.805  14.780  0.00  0.00    +0.000 N 
ATOM     20  C   UNL     1      48.474   8.551  15.433  0.00  0.00    +0.000 C 
ATOM     21  O   UNL     1      49.532   8.327  14.857  0.00  0.00    +0.000 OA
ATOM     22  H   UNL     1      46.499   9.199  15.280  0.00  0.00    +0.000 HD
BRANCH  20  23
ATOM     23  C   UNL     1      48.432   8.590  16.912  0.00  0.00    +0.000 A 
ATOM     24  C   UNL     1      49.053   7.584  17.645  0.00  0.00    +0.000 A 
ATOM     25  N   UNL     1      49.090   7.543  19.006  0.00  0.00    +0.000 NA
ATOM     26  C   UNL     1      48.464   8.540  19.668  0.00  0.00    +0.000 A 
ATOM     27  N   UNL     1      48.548   8.471  21.064  0.00  0.00    +0.000 NA
ATOM     28  C   UNL     1      47.966   9.400  21.738  0.00  0.00    +0.000 A 
ATOM     29  N   UNL     1      47.274  10.436  21.176  0.00  0.00    +0.000 N 
ATOM     30  C   UNL     1      47.140  10.584  19.821  0.00  0.00    +0.000 A 
ATOM     31  O   UNL     1      46.525  11.514  19.314  0.00  0.00    +0.000 OA
ATOM     32  C   UNL     1      47.794   9.559  19.005  0.00  0.00    +0.000 A 
ATOM     33  C   UNL     1      47.766   9.593  17.612  0.00  0.00    +0.000 A 
ATOM     34  H   UNL     1      46.835  11.139  21.754  0.00  0.00    +0.000 HD
ENDBRANCH  20  23
ENDBRANCH  18  19
ENDBRANCH   4  18
TORSDOF 6
ENDMDL
MODEL 5
REMARK VINA RESULT:    -6.904      3.327      8.807
REMARK INTER + INTRA:         -10.023
REMARK INTER:                  -9.337
REMARK INTRA:                  -0.686
REMARK UNBOUND:                -0.698
REMARK  Name = 
REMARK  6 active torsions:
REMARK  status: ('A' for Active; 'I' for Inactive)
REMARK    1  A    between atoms: C_2  and  C_26
REMARK    2  A    between atoms: N_3  and  C_4
REMARK    3  A    between atoms: C_4  and  C_5
REMARK    4  A    between atoms: C_8  and  C_9
REMARK    5  A    between atoms: C_9  and  N_10
REMARK    6  A    between atoms: C_11  and  C_13
REMARK                            x       y       z     vdW  Elec       q    Type
REMARK                         _______ _______ _______ _____ _____    ______ ____
ROOT
ATOM      1  C   UNL     1      50.537   7.799  17.868  0.00  0.00    +0.000 A 
ATOM      2  C   UNL     1      49.258   8.305  18.134  0.00  0.00    +0.000 A 
ATOM      3  C   UNL     1      48.497   8.894  17.117  0.00  0.00    +0.000 A 
ATOM      4  C   UNL     1      48.990   8.971  15.808  0.00  0.00    +0.000 A 
ATOM      5  C   UNL     1      50.273   8.472  15.544  0.00  0.00    +0.000 A 
ATOM      6  C   UNL     1      51.034   7.881  16.560  0.00  0.00    +0.000 A 
ENDROOT
BRANCH   1   7
ATOM      7  C   UNL     1      51.361   7.185  18.969  0.00  0.00    +0.000 C 
BRANCH   7  10
ATOM      8  O   UNL     1      49.745   4.975  18.583  0.00  0.00    +0.000 OA
ATOM      9  C   UNL     1      50.956   4.831  18.460  0.00  0.00    +0.000 C 
ATOM     10  N   UNL     1      51.853   5.868  18.628  0.00  0.00    +0.000 N 
ATOM     11  H   UNL     1      52.826   5.767  18.372  0.00  0.00    +0.000 HD
BRANCH   9  12
ATOM     12  C   UNL     1      51.502   3.503  18.098  0.00  0.00    +0.000 A 
ATOM     13  C   UNL     1      52.793   3.082  18.422  0.00  0.00    +0.000 A 
ATOM     14  C   UNL     1      53.196   1.789  18.081  0.00  0.00    +0.000 A 
ATOM     15  C   UNL     1      52.293   0.964  17.427  0.00  0.00    +0.000 A 
ATOM     16  N   UNL     1      51.039   1.339  17.098  0.00  0.00    +0.000 NA
ATOM     17  C   UNL     1      50.667   2.596  17.450  0.00  0.00    +0.000 A 
ENDBRANCH   9  12
ENDBRANCH   7  10
ENDBRANCH   1   7
BRANCH   4  18
ATOM     18  C   UNL     1      48.156   9.577  14.707  0.00  0.00    +0.000 C 
BRANCH  18  19
ATOM     19  N   UNL     1      47.159   8.656  14.209  0.00  0.00    +0.000 N 
ATOM     20  C   UNL     1      47.338   8.027  12.993  0.00  0.00    +0.000 C 
ATOM     21  O   UNL     1      48.318   8.197  12.278  0.00  0.00    +0.000 OA
ATOM     22  H   UNL     1      46.460   8.324  14.860  0.00  0.00    +0.000 HD
BRANCH  20  23
ATOM     23  C   UNL     1      46.278   7.079  12.583  0.00  0.00    +0.000 A 
ATOM     24  C   UNL     1      45.151   7.552  11.919  0.00  0.00    +0.000 A 
ATOM     25  N   UNL     1      44.135   6.759  11.480  0.00  0.00    +0.000 NA
ATOM     26  C   UNL     1      44.236   5.435  11.729  0.00  0.00    +0.000 A 
ATOM     27  N   UNL     1      43.181   4.655  11.240  0.00  0.00    +0.000 NA
ATOM     28  C   UNL     1      43.235   3.387  11.454  0.00  0.00    +0.000 A 
ATOM     29  N   UNL     1      44.248   2.766  12.128  0.00  0.00    +0.000 N 
ATOM     30  C   UNL     1      45.319   3.448  12.642  0.00  0.00    +0.000 A 
ATOM     31  O   UNL     1      46.231   2.893  13.243  0.00  0.00    +0.000 OA
ATOM     32  C   UNL     1      45.315   4.894  12.417  0.00  0.00    +0.000 A 
ATOM     33  C   UNL     1      46.351   5.715  12.858  0.00  0.00    +0.000 A 
ATOM     34  H   UNL     1      44.239   1.765  12.269  0.00  0.00    +0.000 HD
ENDBRANCH  20  23
ENDBRANCH  18  19
ENDBRANCH   4  18
TORSDOF 6
ENDMDL
MODEL 6
REMARK VINA RESULT:    -6.763      4.774      7.580
REMARK INTER + INTRA:          -9.833
REMARK INTER:                  -8.975
REMARK INTRA:                  -0.858
REMARK UNBOUND:                -0.698
REMARK  Name = 
REMARK  6 active torsions:
REMARK  status: ('A' for Active; 'I' for Inactive)
REMARK    1  A    between atoms: C_2  and  C_26
REMARK    2  A    between atoms: N_3  and  C_4
REMARK    3  A    between atoms: C_4  and  C_5
REMARK    4  A    between atoms: C_8  and  C_9
REMARK    5  A    between atoms: C_9  and  N_10
REMARK    6  A    between atoms: C_11  and  C_13
REMARK                            x       y       z     vdW  Elec       q    Type
REMARK                         _______ _______ _______ _____ _____    ______ ____
ROOT
ATOM      1  C   UNL     1      51.857   9.363  11.915  0.00  0.00    +0.000 A 
ATOM      2  C   UNL     1      50.670   9.854  11.353  0.00  0.00    +0.000 A 
ATOM      3  C   UNL     1      49.467   9.801  12.067  0.00  0.00    +0.000 A 
ATOM      4  C   UNL     1      49.428   9.277  13.366  0.00  0.00    +0.000 A 
ATOM      5  C   UNL     1      50.614   8.779  13.924  0.00  0.00    +0.000 A 
ATOM      6  C   UNL     1      51.818   8.833  13.211  0.00  0.00    +0.000 A 
ENDROOT
BRANCH   1   7
ATOM      7  C   UNL     1      53.146   9.403  11.135  0.00  0.00    +0.000 C 
BRANCH   7  10
ATOM      8  O   UNL     1      52.664   9.053   8.434  0.00  0.00    +0.000 OA
ATOM      9  C   UNL     1      53.120   8.106   9.066  0.00  0.00    +0.000 C 
ATOM     10  N   UNL     1      53.400   8.173  10.417  0.00  0.00    +0.000 N 
ATOM     11  H   UNL     1      53.915   7.439  10.883  0.00  0.00    +0.000 HD
BRANCH   9  12
ATOM     12  C   UNL     1      53.407   6.831   8.368  0.00  0.00    +0.000 A 
ATOM     13  C   UNL     1      54.414   5.946   8.756  0.00  0.00    +0.000 A 
ATOM     14  C   UNL     1      54.571   4.744   8.062  0.00  0.00    +0.000 A 
ATOM     15  C   UNL     1      53.715   4.471   7.005  0.00  0.00    +0.000 A 
ATOM     16  N   UNL     1      52.733   5.305   6.604  0.00  0.00    +0.000 NA
ATOM     17  C   UNL     1      52.593   6.461   7.301  0.00  0.00    +0.000 A 
ENDBRANCH   9  12
ENDBRANCH   7  10
ENDBRANCH   1   7
BRANCH   4  18
ATOM     18  C   UNL     1      48.138   9.250  14.146  0.00  0.00    +0.000 C 
BRANCH  18  19
ATOM     19  N   UNL     1      47.282   8.156  13.744  0.00  0.00    +0.000 N 
ATOM     20  C   UNL     1      46.251   8.372  12.851  0.00  0.00    +0.000 C 
ATOM     21  O   UNL     1      45.998   9.464  12.355  0.00  0.00    +0.000 OA
ATOM     22  H   UNL     1      47.591   7.217  13.952  0.00  0.00    +0.000 HD
BRANCH  20  23
ATOM     23  C   UNL     1      45.448   7.186  12.477  0.00  0.00    +0.000 A 
ATOM     24  C   UNL     1      44.274   7.352  11.748  0.00  0.00    +0.000 A 
ATOM     25  N   UNL     1      43.481   6.324  11.336  0.00  0.00    +0.000 NA
ATOM     26  C   UNL     1      43.864   5.075  11.680  0.00  0.00    +0.000 A 
ATOM     27  N   UNL     1      43.032   4.049  11.216  0.00  0.00    +0.000 NA
ATOM     28  C   UNL     1      43.358   2.842  11.520  0.00  0.00    +0.000 A 
ATOM     29  N   UNL     1      44.452   2.507  12.265  0.00  0.00    +0.000 N 
ATOM     30  C   UNL     1      45.320   3.443  12.762  0.00  0.00    +0.000 A 
ATOM     31  O   UNL     1      46.305   3.146  13.426  0.00  0.00    +0.000 OA
ATOM     32  C   UNL     1      45.004   4.835  12.435  0.00  0.00    +0.000 A 
ATOM     33  C   UNL     1      45.811   5.894  12.848  0.00  0.00    +0.000 A 
ATOM     34  H   UNL     1      44.660   1.541  12.475  0.00  0.00    +0.000 HD
ENDBRANCH  20  23
ENDBRANCH  18  19
ENDBRANCH   4  18
TORSDOF 6
ENDMDL
MODEL 7
REMARK VINA RESULT:    -6.563      6.088      8.594
REMARK INTER + INTRA:          -9.563
REMARK INTER:                  -8.855
REMARK INTRA:                  -0.707
REMARK UNBOUND:                -0.698
REMARK  Name = 
REMARK  6 active torsions:
REMARK  status: ('A' for Active; 'I' for Inactive)
REMARK    1  A    between atoms: C_2  and  C_26
REMARK    2  A    between atoms: N_3  and  C_4
REMARK    3  A    between atoms: C_4  and  C_5
REMARK    4  A    between atoms: C_8  and  C_9
REMARK    5  A    between atoms: C_9  and  N_10
REMARK    6  A    between atoms: C_11  and  C_13
REMARK                            x       y       z     vdW  Elec       q    Type
REMARK                         _______ _______ _______ _____ _____    ______ ____
ROOT
ATOM      1  C   UNL     1      48.763   3.768  17.382  0.00  0.00    +0.000 A 
ATOM      2  C   UNL     1      49.309   2.498  17.152  0.00  0.00    +0.000 A 
ATOM      3  C   UNL     1      50.668   2.252  17.381  0.00  0.00    +0.000 A 
ATOM      4  C   UNL     1      51.507   3.264  17.864  0.00  0.00    +0.000 A 
ATOM      5  C   UNL     1      50.962   4.537  18.086  0.00  0.00    +0.000 A 
ATOM      6  C   UNL     1      49.603   4.783  17.860  0.00  0.00    +0.000 A 
ENDROOT
BRANCH   1   7
ATOM      7  C   UNL     1      47.305   4.034  17.115  0.00  0.00    +0.000 C 
BRANCH   7  10
ATOM      8  O   UNL     1      47.322   3.063  14.525  0.00  0.00    +0.000 OA
ATOM      9  C   UNL     1      47.126   4.262  14.690  0.00  0.00    +0.000 C 
ATOM     10  N   UNL     1      47.094   4.850  15.939  0.00  0.00    +0.000 N 
ATOM     11  H   UNL     1      46.780   5.803  16.062  0.00  0.00    +0.000 HD
BRANCH   9  12
ATOM     12  C   UNL     1      46.893   5.133  13.514  0.00  0.00    +0.000 A 
ATOM     13  C   UNL     1      47.716   6.207  13.172  0.00  0.00    +0.000 A 
ATOM     14  C   UNL     1      47.441   6.937  12.013  0.00  0.00    +0.000 A 
ATOM     15  C   UNL     1      46.351   6.566  11.240  0.00  0.00    +0.000 A 
ATOM     16  N   UNL     1      45.535   5.534  11.542  0.00  0.00    +0.000 NA
ATOM     17  C   UNL     1      45.830   4.833  12.666  0.00  0.00    +0.000 A 
ENDBRANCH   9  12
ENDBRANCH   7  10
ENDBRANCH   1   7
BRANCH   4  18
ATOM     18  C   UNL     1      52.963   2.990  18.141  0.00  0.00    +0.000 C 
BRANCH  18  19
ATOM     19  N   UNL     1      53.231   1.578  18.301  0.00  0.00    +0.000 N 
ATOM     20  C   UNL     1      54.190   0.959  17.524  0.00  0.00    +0.000 C 
ATOM     21  O   UNL     1      54.856   1.539  16.676  0.00  0.00    +0.000 OA
ATOM     22  H   UNL     1      52.869   1.123  19.129  0.00  0.00    +0.000 HD
BRANCH  20  23
ATOM     23  C   UNL     1      54.414  -0.481  17.783  0.00  0.00    +0.000 A 
ATOM     24  C   UNL     1      54.922  -1.291  16.773  0.00  0.00    +0.000 A 
ATOM     25  N   UNL     1      55.186  -2.619  16.919  0.00  0.00    +0.000 NA
ATOM     26  C   UNL     1      54.913  -3.171  18.122  0.00  0.00    +0.000 A 
ATOM     27  N   UNL     1      55.221  -4.533  18.235  0.00  0.00    +0.000 NA
ATOM     28  C   UNL     1      54.979  -5.101  19.363  0.00  0.00    +0.000 A 
ATOM     29  N   UNL     1      54.440  -4.462  20.444  0.00  0.00    +0.000 N 
ATOM     30  C   UNL     1      54.107  -3.134  20.424  0.00  0.00    +0.000 A 
ATOM     31  O   UNL     1      53.628  -2.557  21.393  0.00  0.00    +0.000 OA
ATOM     32  C   UNL     1      54.373  -2.434  19.167  0.00  0.00    +0.000 A 
ATOM     33  C   UNL     1      54.111  -1.074  19.007  0.00  0.00    +0.000 A 
ATOM     34  H   UNL     1      54.269  -4.959  21.307  0.00  0.00    +0.000 HD
ENDBRANCH  20  23
ENDBRANCH  18  19
ENDBRANCH   4  18
TORSDOF 6
ENDMDL
MODEL 8
REMARK VINA RESULT:    -6.551      4.020      6.189
REMARK INTER + INTRA:          -9.547
REMARK INTER:                  -8.844
REMARK INTRA:                  -0.703
REMARK UNBOUND:                -0.698
REMARK  Name = 
REMARK  6 active torsions:
REMARK  status: ('A' for Active; 'I' for Inactive)
REMARK    1  A    between atoms: C_2  and  C_26
REMARK    2  A    between atoms: N_3  and  C_4
REMARK    3  A    between atoms: C_4  and  C_5
REMARK    4  A    between atoms: C_8  and  C_9
REMARK    5  A    between atoms: C_9  and  N_10
REMARK    6  A    between atoms: C_11  and  C_13
REMARK                            x       y       z     vdW  Elec       q    Type
REMARK                         _______ _______ _______ _____ _____    ______ ____
ROOT
ATOM      1  C   UNL     1      44.647   5.448  10.996  0.00  0.00    +0.000 A 
ATOM      2  C   UNL     1      45.760   6.185  10.572  0.00  0.00    +0.000 A 
ATOM      3  C   UNL     1      46.539   6.896  11.493  0.00  0.00    +0.000 A 
ATOM      4  C   UNL     1      46.235   6.867  12.860  0.00  0.00    +0.000 A 
ATOM      5  C   UNL     1      45.116   6.136  13.282  0.00  0.00    +0.000 A 
ATOM      6  C   UNL     1      44.337   5.423  12.362  0.00  0.00    +0.000 A 
ENDROOT
BRANCH   1   7
ATOM      7  C   UNL     1      43.799   4.701   9.999  0.00  0.00    +0.000 C 
BRANCH   7  10
ATOM      8  O   UNL     1      45.289   2.371   9.979  0.00  0.00    +0.000 OA
ATOM      9  C   UNL     1      45.272   3.054   8.961  0.00  0.00    +0.000 C 
ATOM     10  N   UNL     1      44.560   4.233   8.862  0.00  0.00    +0.000 N 
ATOM     11  H   UNL     1      44.435   4.696   7.972  0.00  0.00    +0.000 HD
BRANCH   9  12
ATOM     12  C   UNL     1      46.028   2.605   7.768  0.00  0.00    +0.000 A 
ATOM     13  C   UNL     1      46.221   3.393   6.633  0.00  0.00    +0.000 A 
ATOM     14  C   UNL     1      46.993   2.898   5.579  0.00  0.00    +0.000 A 
ATOM     15  C   UNL     1      47.544   1.630   5.701  0.00  0.00    +0.000 A 
ATOM     16  N   UNL     1      47.376   0.842   6.783  0.00  0.00    +0.000 NA
ATOM     17  C   UNL     1      46.631   1.350   7.798  0.00  0.00    +0.000 A 
ENDBRANCH   9  12
ENDBRANCH   7  10
ENDBRANCH   1   7
BRANCH   4  18
ATOM     18  C   UNL     1      47.093   7.607  13.854  0.00  0.00    +0.000 C 
BRANCH  18  19
ATOM     19  N   UNL     1      48.446   7.790  13.376  0.00  0.00    +0.000 N 
ATOM     20  C   UNL     1      48.851   9.018  12.891  0.00  0.00    +0.000 C 
ATOM     21  O   UNL     1      48.122  10.000  12.832  0.00  0.00    +0.000 OA
ATOM     22  H   UNL     1      49.127   7.082  13.613  0.00  0.00    +0.000 HD
BRANCH  20  23
ATOM     23  C   UNL     1      50.263   9.116  12.454  0.00  0.00    +0.000 A 
ATOM     24  C   UNL     1      51.262   8.517  13.214  0.00  0.00    +0.000 A 
ATOM     25  N   UNL     1      52.583   8.531  12.884  0.00  0.00    +0.000 NA
ATOM     26  C   UNL     1      52.928   9.188  11.756  0.00  0.00    +0.000 A 
ATOM     27  N   UNL     1      54.293   9.156  11.443  0.00  0.00    +0.000 NA
ATOM     28  C   UNL     1      54.668   9.769  10.376  0.00  0.00    +0.000 A 
ATOM     29  N   UNL     1      53.824  10.445   9.542  0.00  0.00    +0.000 N 
ATOM     30  C   UNL     1      52.475  10.529   9.768  0.00  0.00    +0.000 A 
ATOM     31  O   UNL     1      51.715  11.130   9.019  0.00  0.00    +0.000 OA
ATOM     32  C   UNL     1      51.991   9.839  10.964  0.00  0.00    +0.000 A 
ATOM     33  C   UNL     1      50.641   9.814  11.310  0.00  0.00    +0.000 A 
ATOM     34  H   UNL     1      54.173  10.910   8.716  0.00  0.00    +0.000 HD
ENDBRANCH  20  23
ENDBRANCH  18  19
ENDBRANCH   4  18
TORSDOF 6
ENDMDL
MODEL 9
REMARK VINA RESULT:    -6.509      4.174     10.251
REMARK INTER + INTRA:          -9.490
REMARK INTER:                  -8.658
REMARK INTRA:                  -0.832
REMARK UNBOUND:                -0.698
REMARK  Name = 
REMARK  6 active torsions:
REMARK  status: ('A' for Active; 'I' for Inactive)
REMARK    1  A    between atoms: C_2  and  C_26
REMARK    2  A    between atoms: N_3  and  C_4
REMARK    3  A    between atoms: C_4  and  C_5
REMARK    4  A    between atoms: C_8  and  C_9
REMARK    5  A    between atoms: C_9  and  N_10
REMARK    6  A    between atoms: C_11  and  C_13
REMARK                            x       y       z     vdW  Elec       q    Type
REMARK                         _______ _______ _______ _____ _____    ______ ____
ROOT
ATOM      1  C   UNL     1      51.617   3.727  17.811  0.00  0.00    +0.000 A 
ATOM      2  C   UNL     1      51.139   2.473  17.409  0.00  0.00    +0.000 A 
ATOM      3  C   UNL     1      49.785   2.286  17.110  0.00  0.00    +0.000 A 
ATOM      4  C   UNL     1      48.882   3.354  17.186  0.00  0.00    +0.000 A 
ATOM      5  C   UNL     1      49.358   4.607  17.595  0.00  0.00    +0.000 A 
ATOM      6  C   UNL     1      50.714   4.795  17.893  0.00  0.00    +0.000 A 
ENDROOT
BRANCH   1   7
ATOM      7  C   UNL     1      53.072   3.919  18.152  0.00  0.00    +0.000 C 
BRANCH   7  10
ATOM      8  O   UNL     1      54.393   5.548  16.349  0.00  0.00    +0.000 OA
ATOM      9  C   UNL     1      54.072   6.027  17.431  0.00  0.00    +0.000 C 
ATOM     10  N   UNL     1      53.407   5.304  18.402  0.00  0.00    +0.000 N 
ATOM     11  H   UNL     1      53.017   5.756  19.217  0.00  0.00    +0.000 HD
BRANCH   9  12
ATOM     12  C   UNL     1      54.384   7.445  17.724  0.00  0.00    +0.000 A 
ATOM     13  C   UNL     1      54.276   8.015  18.994  0.00  0.00    +0.000 A 
ATOM     14  C   UNL     1      54.644   9.350  19.178  0.00  0.00    +0.000 A 
ATOM     15  C   UNL     1      55.106  10.067  18.083  0.00  0.00    +0.000 A 
ATOM     16  N   UNL     1      55.223   9.547  16.844  0.00  0.00    +0.000 NA
ATOM     17  C   UNL     1      54.870   8.245  16.693  0.00  0.00    +0.000 A 
ENDBRANCH   9  12
ENDBRANCH   7  10
ENDBRANCH   1   7
BRANCH   4  18
ATOM     18  C   UNL     1      47.429   3.160  16.833  0.00  0.00    +0.000 C 
BRANCH  18  19
ATOM     19  N   UNL     1      46.930   4.213  15.977  0.00  0.00    +0.000 N 
ATOM     20  C   UNL     1      46.938   4.058  14.605  0.00  0.00    +0.000 C 
ATOM     21  O   UNL     1      47.354   3.056  14.037  0.00  0.00    +0.000 OA
ATOM     22  H   UNL     1      46.382   4.946  16.407  0.00  0.00    +0.000 HD
BRANCH  20  23
ATOM     23  C   UNL     1      46.378   5.178  13.815  0.00  0.00    +0.000 A 
ATOM     24  C   UNL     1      47.097   6.362  13.695  0.00  0.00    +0.000 A 
ATOM     25  N   UNL     1      46.680   7.438  12.971  0.00  0.00    +0.000 NA
ATOM     26  C   UNL     1      45.482   7.337  12.355  0.00  0.00    +0.000 A 
ATOM     27  N   UNL     1      45.104   8.457  11.604  0.00  0.00    +0.000 NA
ATOM     28  C   UNL     1      43.970   8.406  10.998  0.00  0.00    +0.000 A 
ATOM     29  N   UNL     1      43.121   7.337  11.049  0.00  0.00    +0.000 N 
ATOM     30  C   UNL     1      43.407   6.201  11.757  0.00  0.00    +0.000 A 
ATOM     31  O   UNL     1      42.650   5.239  11.800  0.00  0.00    +0.000 OA
ATOM     32  C   UNL     1      44.693   6.200  12.457  0.00  0.00    +0.000 A 
ATOM     33  C   UNL     1      45.132   5.103  13.197  0.00  0.00    +0.000 A 
ATOM     34  H   UNL     1      42.240   7.351  10.553  0.00  0.00    +0.000 HD
ENDBRANCH  20  23
ENDBRANCH  18  19
ENDBRANCH   4  18
TORSDOF 6
ENDMDL
