MODEL 1
REMARK VINA RESULT:    -8.245      0.000      0.000
REMARK INTER + INTRA:         -14.184
REMARK INTER:                 -12.824
REMARK INTRA:                  -1.361
REMARK UNBOUND:                -1.361
REMARK  Name = 
REMARK  10 active torsions:
REMARK  status: ('A' for Active; 'I' for Inactive)
REMARK    1  A    between atoms: C_2  and  C_23
REMARK    2  A    between atoms: N_3  and  C_4
REMARK    3  A    between atoms: C_4  and  C_5
REMARK    4  A    between atoms: C_8  and  C_9
REMARK    5  A    between atoms: C_9  and  N_10
REMARK    6  A    between atoms: N_10  and  C_11
REMARK    7  A    between atoms: N_10  and  C_14
REMARK    8  A    between atoms: C_11  and  C_12
REMARK    9  A    between atoms: C_12  and  O_13
REMARK   10  A    between atoms: C_14  and  C_15
REMARK                            x       y       z     vdW  Elec       q    Type
REMARK                         _______ _______ _______ _____ _____    ______ ____
ROOT
ATOM      1  C   UNL     1      46.951   8.003  12.788  0.00  0.00    +0.000 A 
ATOM      2  C   UNL     1      47.493   7.155  11.814  0.00  0.00    +0.000 A 
ATOM      3  C   UNL     1      46.651   6.354  11.054  0.00  0.00    +0.000 A 
ATOM      4  C   UNL     1      45.269   6.374  11.277  0.00  0.00    +0.000 A 
ATOM      5  C   UNL     1      44.724   7.315  12.165  0.00  0.00    +0.000 A 
ATOM      6  C   UNL     1      45.561   8.132  12.909  0.00  0.00    +0.000 A 
ENDROOT
BRANCH   1   7
ATOM      7  C   UNL     1      47.847   8.810  13.667  0.00  0.00    +0.000 C 
BRANCH   7  10
ATOM      8  O   UNL     1      50.114   7.483  14.505  0.00  0.00    +0.000 OA
ATOM      9  C   UNL     1      49.130   7.468  15.230  0.00  0.00    +0.000 C 
ATOM     10  N   UNL     1      47.978   8.171  14.941  0.00  0.00    +0.000 N 
ATOM     11  H   UNL     1      47.149   7.846  15.377  0.00  0.00    +0.000 HD
BRANCH   9  12
ATOM     12  C   UNL     1      49.011   6.647  16.404  0.00  0.00    +0.000 A 
ATOM     13  C   UNL     1      49.826   6.828  17.513  0.00  0.00    +0.000 A 
ATOM     14  N   UNL     1      49.366   5.925  18.461  0.00  0.00    +0.000 N 
ATOM     15  C   UNL     1      48.988   4.830  17.706  0.00  0.00    +0.000 A 
ATOM     16  C   UNL     1      49.200   3.469  17.885  0.00  0.00    +0.000 A 
ATOM     17  C   UNL     1      48.581   2.630  16.956  0.00  0.00    +0.000 A 
ATOM     18  C   UNL     1      47.696   3.139  15.998  0.00  0.00    +0.000 A 
ATOM     19  C   UNL     1      47.556   4.520  15.805  0.00  0.00    +0.000 A 
ATOM     20  C   UNL     1      48.364   5.366  16.586  0.00  0.00    +0.000 A 
ATOM     21  H   UNL     1      48.731   6.263  19.165  0.00  0.00    +0.000 HD
ENDBRANCH   9  12
ENDBRANCH   7  10
ENDBRANCH   1   7
BRANCH   4  22
ATOM     22  C   UNL     1      44.387   5.326  10.653  0.00  0.00    +0.000 C 
BRANCH  22  23
ATOM     23  N   UNL     1      45.082   4.023  10.482  0.00  0.00    +0.000 NA
BRANCH  23  24
ATOM     24  C   UNL     1      44.937   3.176  11.697  0.00  0.00    +0.000 C 
BRANCH  24  25
ATOM     25  C   UNL     1      43.504   3.043  12.251  0.00  0.00    +0.000 C 
BRANCH  25  26
ATOM     26  O   UNL     1      42.871   1.871  11.738  0.00  0.00    +0.000 OA
ATOM     27  H   UNL     1      42.556   2.081  10.842  0.00  0.00    +0.000 HD
ENDBRANCH  25  26
ENDBRANCH  24  25
ENDBRANCH  23  24
BRANCH  23  28
ATOM     28  C   UNL     1      44.526   3.335   9.306  0.00  0.00    +0.000 C 
BRANCH  28  29
ATOM     29  C   UNL     1      45.558   2.751   8.363  0.00  0.00    +0.000 A 
ATOM     30  C   UNL     1      46.284   3.568   7.483  0.00  0.00    +0.000 A 
ATOM     31  C   UNL     1      47.320   3.028   6.717  0.00  0.00    +0.000 A 
ATOM     32  C   UNL     1      47.619   1.669   6.806  0.00  0.00    +0.000 A 
ATOM     33  C   UNL     1      46.864   0.841   7.632  0.00  0.00    +0.000 A 
ATOM     34  C   UNL     1      45.838   1.379   8.407  0.00  0.00    +0.000 A 
ENDBRANCH  28  29
ENDBRANCH  23  28
ENDBRANCH  22  23
ENDBRANCH   4  22
TORSDOF 10
ENDMDL
MODEL 2
REMARK VINA RESULT:    -8.137      0.725      1.370
REMARK INTER + INTRA:         -14.017
REMARK INTER:                 -12.819
REMARK INTRA:                  -1.198
REMARK UNBOUND:                -1.361
REMARK  Name = 
REMARK  10 active torsions:
REMARK  status: ('A' for Active; 'I' for Inactive)
REMARK    1  A    between atoms: C_2  and  C_23
REMARK    2  A    between atoms: N_3  and  C_4
REMARK    3  A    between atoms: C_4  and  C_5
REMARK    4  A    between atoms: C_8  and  C_9
REMARK    5  A    between atoms: C_9  and  N_10
REMARK    6  A    between atoms: N_10  and  C_11
REMARK    7  A    between atoms: N_10  and  C_14
REMARK    8  A    between atoms: C_11  and  C_12
REMARK    9  A    between atoms: C_12  and  O_13
REMARK   10  A    between atoms: C_14  and  C_15
REMARK                            x       y       z     vdW  Elec       q    Type
REMARK                         _______ _______ _______ _____ _____    ______ ____
ROOT
ATOM      1  C   UNL     1      47.033   7.853  13.427  0.00  0.00    +0.000 A 
ATOM      2  C   UNL     1      45.900   8.383  12.798  0.00  0.00    +0.000 A 
ATOM      3  C   UNL     1      45.267   7.659  11.796  0.00  0.00    +0.000 A 
ATOM      4  C   UNL     1      45.773   6.415  11.398  0.00  0.00    +0.000 A 
ATOM      5  C   UNL     1      46.831   5.837  12.117  0.00  0.00    +0.000 A 
ATOM      6  C   UNL     1      47.451   6.548  13.133  0.00  0.00    +0.000 A 
ENDROOT
BRANCH   1   7
ATOM      7  C   UNL     1      47.771   8.653  14.448  0.00  0.00    +0.000 C 
BRANCH   7  10
ATOM      8  O   UNL     1      50.328   7.898  15.150  0.00  0.00    +0.000 OA
ATOM      9  C   UNL     1      49.391   7.446  15.792  0.00  0.00    +0.000 C 
ATOM     10  N   UNL     1      48.083   7.827  15.575  0.00  0.00    +0.000 N 
ATOM     11  H   UNL     1      47.387   7.192  15.883  0.00  0.00    +0.000 HD
BRANCH   9  12
ATOM     12  C   UNL     1      49.519   6.399  16.769  0.00  0.00    +0.000 A 
ATOM     13  C   UNL     1      50.635   6.289  17.587  0.00  0.00    +0.000 A 
ATOM     14  N   UNL     1      50.364   5.231  18.442  0.00  0.00    +0.000 N 
ATOM     15  C   UNL     1      49.655   4.348  17.648  0.00  0.00    +0.000 A 
ATOM     16  C   UNL     1      49.744   2.971  17.493  0.00  0.00    +0.000 A 
ATOM     17  C   UNL     1      48.787   2.390  16.659  0.00  0.00    +0.000 A 
ATOM     18  C   UNL     1      47.732   3.144  16.134  0.00  0.00    +0.000 A 
ATOM     19  C   UNL     1      47.709   4.539  16.257  0.00  0.00    +0.000 A 
ATOM     20  C   UNL     1      48.803   5.148  16.896  0.00  0.00    +0.000 A 
ATOM     21  H   UNL     1      50.005   5.445  19.358  0.00  0.00    +0.000 HD
ENDBRANCH   9  12
ENDBRANCH   7  10
ENDBRANCH   1   7
BRANCH   4  22
ATOM     22  C   UNL     1      45.260   5.755  10.147  0.00  0.00    +0.000 C 
BRANCH  22  23
ATOM     23  N   UNL     1      44.799   4.362  10.386  0.00  0.00    +0.000 NA
BRANCH  23  24
ATOM     24  C   UNL     1      43.665   4.331  11.348  0.00  0.00    +0.000 C 
BRANCH  24  25
ATOM     25  C   UNL     1      43.636   3.123  12.307  0.00  0.00    +0.000 C 
BRANCH  25  26
ATOM     26  O   UNL     1      42.932   2.029  11.720  0.00  0.00    +0.000 OA
ATOM     27  H   UNL     1      42.774   1.375  12.423  0.00  0.00    +0.000 HD
ENDBRANCH  25  26
ENDBRANCH  24  25
ENDBRANCH  23  24
BRANCH  23  28
ATOM     28  C   UNL     1      44.400   3.764   9.102  0.00  0.00    +0.000 C 
BRANCH  28  29
ATOM     29  C   UNL     1      45.500   3.017   8.377  0.00  0.00    +0.000 A 
ATOM     30  C   UNL     1      45.716   1.648   8.593  0.00  0.00    +0.000 A 
ATOM     31  C   UNL     1      46.648   0.952   7.820  0.00  0.00    +0.000 A 
ATOM     32  C   UNL     1      47.387   1.623   6.847  0.00  0.00    +0.000 A 
ATOM     33  C   UNL     1      47.223   2.994   6.667  0.00  0.00    +0.000 A 
ATOM     34  C   UNL     1      46.284   3.688   7.428  0.00  0.00    +0.000 A 
ENDBRANCH  28  29
ENDBRANCH  23  28
ENDBRANCH  22  23
ENDBRANCH   4  22
TORSDOF 10
ENDMDL
MODEL 3
REMARK VINA RESULT:    -7.960      1.874      2.707
REMARK INTER + INTRA:         -13.741
REMARK INTER:                 -12.845
REMARK INTRA:                  -0.896
REMARK UNBOUND:                -1.361
REMARK  Name = 
REMARK  10 active torsions:
REMARK  status: ('A' for Active; 'I' for Inactive)
REMARK    1  A    between atoms: C_2  and  C_23
REMARK    2  A    between atoms: N_3  and  C_4
REMARK    3  A    between atoms: C_4  and  C_5
REMARK    4  A    between atoms: C_8  and  C_9
REMARK    5  A    between atoms: C_9  and  N_10
REMARK    6  A    between atoms: N_10  and  C_11
REMARK    7  A    between atoms: N_10  and  C_14
REMARK    8  A    between atoms: C_11  and  C_12
REMARK    9  A    between atoms: C_12  and  O_13
REMARK   10  A    between atoms: C_14  and  C_15
REMARK                            x       y       z     vdW  Elec       q    Type
REMARK                         _______ _______ _______ _____ _____    ______ ____
ROOT
ATOM      1  C   UNL     1      47.522   7.082  13.785  0.00  0.00    +0.000 A 
ATOM      2  C   UNL     1      46.629   8.034  13.278  0.00  0.00    +0.000 A 
ATOM      3  C   UNL     1      45.690   7.660  12.326  0.00  0.00    +0.000 A 
ATOM      4  C   UNL     1      45.652   6.342  11.855  0.00  0.00    +0.000 A 
ATOM      5  C   UNL     1      46.463   5.367  12.458  0.00  0.00    +0.000 A 
ATOM      6  C   UNL     1      47.386   5.734  13.424  0.00  0.00    +0.000 A 
ENDROOT
BRANCH   1   7
ATOM      7  C   UNL     1      48.587   7.486  14.748  0.00  0.00    +0.000 C 
BRANCH   7  10
ATOM      8  O   UNL     1      50.568   6.111  16.086  0.00  0.00    +0.000 OA
ATOM      9  C   UNL     1      49.434   6.087  16.541  0.00  0.00    +0.000 C 
ATOM     10  N   UNL     1      48.393   6.811  15.995  0.00  0.00    +0.000 N 
ATOM     11  H   UNL     1      47.480   6.484  16.200  0.00  0.00    +0.000 HD
BRANCH   9  12
ATOM     12  C   UNL     1      49.022   5.236  17.624  0.00  0.00    +0.000 A 
ATOM     13  C   UNL     1      47.688   4.927  17.850  0.00  0.00    +0.000 A 
ATOM     14  N   UNL     1      47.691   4.029  18.908  0.00  0.00    +0.000 N 
ATOM     15  C   UNL     1      48.729   4.474  19.705  0.00  0.00    +0.000 A 
ATOM     16  C   UNL     1      48.829   4.646  21.080  0.00  0.00    +0.000 A 
ATOM     17  C   UNL     1      50.084   5.030  21.555  0.00  0.00    +0.000 A 
ATOM     18  C   UNL     1      51.191   5.098  20.702  0.00  0.00    +0.000 A 
ATOM     19  C   UNL     1      51.042   4.981  19.314  0.00  0.00    +0.000 A 
ATOM     20  C   UNL     1      49.735   4.830  18.816  0.00  0.00    +0.000 A 
ATOM     21  H   UNL     1      47.639   3.047  18.693  0.00  0.00    +0.000 HD
ENDBRANCH   9  12
ENDBRANCH   7  10
ENDBRANCH   1   7
BRANCH   4  22
ATOM     22  C   UNL     1      44.827   5.995  10.644  0.00  0.00    +0.000 C 
BRANCH  22  23
ATOM     23  N   UNL     1      44.541   4.539  10.547  0.00  0.00    +0.000 NA
BRANCH  23  24
ATOM     24  C   UNL     1      43.368   4.167  11.382  0.00  0.00    +0.000 C 
BRANCH  24  25
ATOM     25  C   UNL     1      42.504   5.343  11.883  0.00  0.00    +0.000 C 
BRANCH  25  26
ATOM     26  O   UNL     1      42.553   5.435  13.306  0.00  0.00    +0.000 OA
ATOM     27  H   UNL     1      43.350   5.943  13.537  0.00  0.00    +0.000 HD
ENDBRANCH  25  26
ENDBRANCH  24  25
ENDBRANCH  23  24
BRANCH  23  28
ATOM     28  C   UNL     1      44.301   4.192   9.137  0.00  0.00    +0.000 C 
BRANCH  28  29
ATOM     29  C   UNL     1      45.359   3.312   8.508  0.00  0.00    +0.000 A 
ATOM     30  C   UNL     1      45.423   1.938   8.786  0.00  0.00    +0.000 A 
ATOM     31  C   UNL     1      46.323   1.122   8.096  0.00  0.00    +0.000 A 
ATOM     32  C   UNL     1      47.179   1.675   7.146  0.00  0.00    +0.000 A 
ATOM     33  C   UNL     1      47.164   3.047   6.906  0.00  0.00    +0.000 A 
ATOM     34  C   UNL     1      46.258   3.862   7.584  0.00  0.00    +0.000 A 
ENDBRANCH  28  29
ENDBRANCH  23  28
ENDBRANCH  22  23
ENDBRANCH   4  22
TORSDOF 10
ENDMDL
MODEL 4
REMARK VINA RESULT:    -7.619      1.674      8.329
REMARK INTER + INTRA:         -13.211
REMARK INTER:                 -12.325
REMARK INTRA:                  -0.886
REMARK UNBOUND:                -1.361
REMARK  Name = 
REMARK  10 active torsions:
REMARK  status: ('A' for Active; 'I' for Inactive)
REMARK    1  A    between atoms: C_2  and  C_23
REMARK    2  A    between atoms: N_3  and  C_4
REMARK    3  A    between atoms: C_4  and  C_5
REMARK    4  A    between atoms: C_8  and  C_9
REMARK    5  A    between atoms: C_9  and  N_10
REMARK    6  A    between atoms: N_10  and  C_11
REMARK    7  A    between atoms: N_10  and  C_14
REMARK    8  A    between atoms: C_11  and  C_12
REMARK    9  A    between atoms: C_12  and  O_13
REMARK   10  A    between atoms: C_14  and  C_15
REMARK                            x       y       z     vdW  Elec       q    Type
REMARK                         _______ _______ _______ _____ _____    ______ ____
ROOT
ATOM      1  C   UNL     1      45.754   7.013  12.235  0.00  0.00    +0.000 A 
ATOM      2  C   UNL     1      45.926   8.335  12.664  0.00  0.00    +0.000 A 
ATOM      3  C   UNL     1      46.940   8.640  13.563  0.00  0.00    +0.000 A 
ATOM      4  C   UNL     1      47.770   7.627  14.059  0.00  0.00    +0.000 A 
ATOM      5  C   UNL     1      47.673   6.331  13.529  0.00  0.00    +0.000 A 
ATOM      6  C   UNL     1      46.676   6.028  12.615  0.00  0.00    +0.000 A 
ENDROOT
BRANCH   1   7
ATOM      7  C   UNL     1      44.620   6.656  11.333  0.00  0.00    +0.000 C 
BRANCH   7  10
ATOM      8  O   UNL     1      46.018   5.914   9.075  0.00  0.00    +0.000 OA
ATOM      9  C   UNL     1      45.421   5.050   9.700  0.00  0.00    +0.000 C 
ATOM     10  N   UNL     1      44.765   5.303  10.887  0.00  0.00    +0.000 N 
ATOM     11  H   UNL     1      44.053   4.661  11.137  0.00  0.00    +0.000 HD
BRANCH   9  12
ATOM     12  C   UNL     1      45.243   3.701   9.234  0.00  0.00    +0.000 A 
ATOM     13  C   UNL     1      44.827   2.680  10.077  0.00  0.00    +0.000 A 
ATOM     14  N   UNL     1      44.688   1.564   9.265  0.00  0.00    +0.000 N 
ATOM     15  C   UNL     1      45.712   1.704   8.347  0.00  0.00    +0.000 A 
ATOM     16  C   UNL     1      46.629   0.791   7.842  0.00  0.00    +0.000 A 
ATOM     17  C   UNL     1      47.475   1.270   6.839  0.00  0.00    +0.000 A 
ATOM     18  C   UNL     1      47.301   2.548   6.295  0.00  0.00    +0.000 A 
ATOM     19  C   UNL     1      46.409   3.463   6.871  0.00  0.00    +0.000 A 
ATOM     20  C   UNL     1      45.728   3.057   8.032  0.00  0.00    +0.000 A 
ATOM     21  H   UNL     1      43.767   1.341   8.925  0.00  0.00    +0.000 HD
ENDBRANCH   9  12
ENDBRANCH   7  10
ENDBRANCH   1   7
BRANCH   4  22
ATOM     22  C   UNL     1      48.685   7.901  15.222  0.00  0.00    +0.000 C 
BRANCH  22  23
ATOM     23  N   UNL     1      49.849   6.976  15.263  0.00  0.00    +0.000 NA
BRANCH  23  24
ATOM     24  C   UNL     1      51.087   7.653  14.794  0.00  0.00    +0.000 C 
BRANCH  24  25
ATOM     25  C   UNL     1      50.984   8.366  13.430  0.00  0.00    +0.000 C 
BRANCH  25  26
ATOM     26  O   UNL     1      50.830   7.417  12.375  0.00  0.00    +0.000 OA
ATOM     27  H   UNL     1      50.181   7.782  11.749  0.00  0.00    +0.000 HD
ENDBRANCH  25  26
ENDBRANCH  24  25
ENDBRANCH  23  24
BRANCH  23  28
ATOM     28  C   UNL     1      50.020   6.484  16.639  0.00  0.00    +0.000 C 
BRANCH  28  29
ATOM     29  C   UNL     1      49.296   5.191  16.948  0.00  0.00    +0.000 A 
ATOM     30  C   UNL     1      47.909   5.074  16.774  0.00  0.00    +0.000 A 
ATOM     31  C   UNL     1      47.282   3.837  16.940  0.00  0.00    +0.000 A 
ATOM     32  C   UNL     1      48.029   2.719  17.305  0.00  0.00    +0.000 A 
ATOM     33  C   UNL     1      49.397   2.839  17.538  0.00  0.00    +0.000 A 
ATOM     34  C   UNL     1      50.028   4.069  17.361  0.00  0.00    +0.000 A 
ENDBRANCH  28  29
ENDBRANCH  23  28
ENDBRANCH  22  23
ENDBRANCH   4  22
TORSDOF 10
ENDMDL
MODEL 5
REMARK VINA RESULT:    -7.372      2.626      3.804
REMARK INTER + INTRA:         -12.828
REMARK INTER:                 -11.742
REMARK INTRA:                  -1.086
REMARK UNBOUND:                -1.361
REMARK  Name = 
REMARK  10 active torsions:
REMARK  status: ('A' for Active; 'I' for Inactive)
REMARK    1  A    between atoms: C_2  and  C_23
REMARK    2  A    between atoms: N_3  and  C_4
REMARK    3  A    between atoms: C_4  and  C_5
REMARK    4  A    between atoms: C_8  and  C_9
REMARK    5  A    between atoms: C_9  and  N_10
REMARK    6  A    between atoms: N_10  and  C_11
REMARK    7  A    between atoms: N_10  and  C_14
REMARK    8  A    between atoms: C_11  and  C_12
REMARK    9  A    between atoms: C_12  and  O_13
REMARK   10  A    between atoms: C_14  and  C_15
REMARK                            x       y       z     vdW  Elec       q    Type
REMARK                         _______ _______ _______ _____ _____    ______ ____
ROOT
ATOM      1  C   UNL     1      48.134   6.559  13.790  0.00  0.00    +0.000 A 
ATOM      2  C   UNL     1      47.299   5.448  13.961  0.00  0.00    +0.000 A 
ATOM      3  C   UNL     1      46.297   5.190  13.035  0.00  0.00    +0.000 A 
ATOM      4  C   UNL     1      46.105   6.051  11.947  0.00  0.00    +0.000 A 
ATOM      5  C   UNL     1      47.023   7.087  11.714  0.00  0.00    +0.000 A 
ATOM      6  C   UNL     1      48.038   7.334  12.625  0.00  0.00    +0.000 A 
ENDROOT
BRANCH   1   7
ATOM      7  C   UNL     1      49.162   6.895  14.817  0.00  0.00    +0.000 C 
BRANCH   7  10
ATOM      8  O   UNL     1      50.057   9.035  16.309  0.00  0.00    +0.000 OA
ATOM      9  C   UNL     1      49.096   8.400  16.719  0.00  0.00    +0.000 C 
ATOM     10  N   UNL     1      48.520   7.369  16.006  0.00  0.00    +0.000 N 
ATOM     11  H   UNL     1      47.994   6.715  16.533  0.00  0.00    +0.000 HD
BRANCH   9  12
ATOM     12  C   UNL     1      48.516   8.577  18.023  0.00  0.00    +0.000 A 
ATOM     13  C   UNL     1      47.834   7.556  18.670  0.00  0.00    +0.000 A 
ATOM     14  N   UNL     1      47.501   8.065  19.917  0.00  0.00    +0.000 N 
ATOM     15  C   UNL     1      47.232   9.396  19.660  0.00  0.00    +0.000 A 
ATOM     16  C   UNL     1      46.208  10.230  20.090  0.00  0.00    +0.000 A 
ATOM     17  C   UNL     1      46.309  11.567  19.700  0.00  0.00    +0.000 A 
ATOM     18  C   UNL     1      47.445  12.044  19.039  0.00  0.00    +0.000 A 
ATOM     19  C   UNL     1      48.428  11.166  18.565  0.00  0.00    +0.000 A 
ATOM     20  C   UNL     1      48.207   9.789  18.751  0.00  0.00    +0.000 A 
ATOM     21  H   UNL     1      48.101   7.838  20.693  0.00  0.00    +0.000 HD
ENDBRANCH   9  12
ENDBRANCH   7  10
ENDBRANCH   1   7
BRANCH   4  22
ATOM     22  C   UNL     1      44.868   5.932  11.098  0.00  0.00    +0.000 C 
BRANCH  22  23
ATOM     23  N   UNL     1      44.554   4.523  10.742  0.00  0.00    +0.000 NA
BRANCH  23  24
ATOM     24  C   UNL     1      43.318   4.060  11.427  0.00  0.00    +0.000 C 
BRANCH  24  25
ATOM     25  C   UNL     1      43.469   2.794  12.295  0.00  0.00    +0.000 C 
BRANCH  25  26
ATOM     26  O   UNL     1      43.036   1.638  11.580  0.00  0.00    +0.000 OA
ATOM     27  H   UNL     1      42.330   1.920  10.973  0.00  0.00    +0.000 HD
ENDBRANCH  25  26
ENDBRANCH  24  25
ENDBRANCH  23  24
BRANCH  23  28
ATOM     28  C   UNL     1      44.401   4.422   9.282  0.00  0.00    +0.000 C 
BRANCH  28  29
ATOM     29  C   UNL     1      45.377   3.484   8.602  0.00  0.00    +0.000 A 
ATOM     30  C   UNL     1      45.381   2.110   8.884  0.00  0.00    +0.000 A 
ATOM     31  C   UNL     1      46.198   1.244   8.152  0.00  0.00    +0.000 A 
ATOM     32  C   UNL     1      47.032   1.748   7.156  0.00  0.00    +0.000 A 
ATOM     33  C   UNL     1      47.078   3.118   6.910  0.00  0.00    +0.000 A 
ATOM     34  C   UNL     1      46.254   3.982   7.629  0.00  0.00    +0.000 A 
ENDBRANCH  28  29
ENDBRANCH  23  28
ENDBRANCH  22  23
ENDBRANCH   4  22
TORSDOF 10
ENDMDL
MODEL 6
REMARK VINA RESULT:    -7.333      2.162      9.085
REMARK INTER + INTRA:         -12.766
REMARK INTER:                 -12.188
REMARK INTRA:                  -0.578
REMARK UNBOUND:                -1.361
REMARK  Name = 
REMARK  10 active torsions:
REMARK  status: ('A' for Active; 'I' for Inactive)
REMARK    1  A    between atoms: C_2  and  C_23
REMARK    2  A    between atoms: N_3  and  C_4
REMARK    3  A    between atoms: C_4  and  C_5
REMARK    4  A    between atoms: C_8  and  C_9
REMARK    5  A    between atoms: C_9  and  N_10
REMARK    6  A    between atoms: N_10  and  C_11
REMARK    7  A    between atoms: N_10  and  C_14
REMARK    8  A    between atoms: C_11  and  C_12
REMARK    9  A    between atoms: C_12  and  O_13
REMARK   10  A    between atoms: C_14  and  C_15
REMARK                            x       y       z     vdW  Elec       q    Type
REMARK                         _______ _______ _______ _____ _____    ______ ____
ROOT
ATOM      1  C   UNL     1      46.382   6.274  12.354  0.00  0.00    +0.000 A 
ATOM      2  C   UNL     1      47.459   7.113  12.665  0.00  0.00    +0.000 A 
ATOM      3  C   UNL     1      48.199   6.885  13.818  0.00  0.00    +0.000 A 
ATOM      4  C   UNL     1      47.854   5.835  14.679  0.00  0.00    +0.000 A 
ATOM      5  C   UNL     1      46.856   4.925  14.297  0.00  0.00    +0.000 A 
ATOM      6  C   UNL     1      46.131   5.138  13.135  0.00  0.00    +0.000 A 
ENDROOT
BRANCH   1   7
ATOM      7  C   UNL     1      45.529   6.554  11.162  0.00  0.00    +0.000 C 
BRANCH   7  10
ATOM      8  O   UNL     1      43.237   5.181  10.481  0.00  0.00    +0.000 OA
ATOM      9  C   UNL     1      44.311   4.750  10.090  0.00  0.00    +0.000 C 
ATOM     10  N   UNL     1      45.505   5.408  10.304  0.00  0.00    +0.000 N 
ATOM     11  H   UNL     1      46.324   4.851  10.263  0.00  0.00    +0.000 HD
BRANCH   9  12
ATOM     12  C   UNL     1      44.479   3.469   9.457  0.00  0.00    +0.000 A 
ATOM     13  C   UNL     1      44.224   2.280  10.125  0.00  0.00    +0.000 A 
ATOM     14  N   UNL     1      44.411   1.279   9.182  0.00  0.00    +0.000 N 
ATOM     15  C   UNL     1      45.459   1.752   8.414  0.00  0.00    +0.000 A 
ATOM     16  C   UNL     1      46.598   1.127   7.923  0.00  0.00    +0.000 A 
ATOM     17  C   UNL     1      47.406   1.903   7.089  0.00  0.00    +0.000 A 
ATOM     18  C   UNL     1      47.004   3.178   6.676  0.00  0.00    +0.000 A 
ATOM     19  C   UNL     1      45.883   3.801   7.239  0.00  0.00    +0.000 A 
ATOM     20  C   UNL     1      45.205   3.109   8.258  0.00  0.00    +0.000 A 
ATOM     21  H   UNL     1      43.598   0.918   8.711  0.00  0.00    +0.000 HD
ENDBRANCH   9  12
ENDBRANCH   7  10
ENDBRANCH   1   7
BRANCH   4  22
ATOM     22  C   UNL     1      48.473   5.747  16.049  0.00  0.00    +0.000 C 
BRANCH  22  23
ATOM     23  N   UNL     1      48.181   4.455  16.724  0.00  0.00    +0.000 NA
BRANCH  23  24
ATOM     24  C   UNL     1      49.436   3.754  17.106  0.00  0.00    +0.000 C 
BRANCH  24  25
ATOM     25  C   UNL     1      49.356   2.214  17.146  0.00  0.00    +0.000 C 
BRANCH  25  26
ATOM     26  O   UNL     1      49.797   1.654  15.910  0.00  0.00    +0.000 OA
ATOM     27  H   UNL     1      50.032   2.394  15.323  0.00  0.00    +0.000 HD
ENDBRANCH  25  26
ENDBRANCH  24  25
ENDBRANCH  23  24
BRANCH  23  28
ATOM     28  C   UNL     1      47.354   4.714  17.913  0.00  0.00    +0.000 C 
BRANCH  28  29
ATOM     29  C   UNL     1      48.098   5.313  19.088  0.00  0.00    +0.000 A 
ATOM     30  C   UNL     1      48.327   6.694  19.177  0.00  0.00    +0.000 A 
ATOM     31  C   UNL     1      48.898   7.239  20.329  0.00  0.00    +0.000 A 
ATOM     32  C   UNL     1      49.266   6.408  21.386  0.00  0.00    +0.000 A 
ATOM     33  C   UNL     1      49.097   5.030  21.283  0.00  0.00    +0.000 A 
ATOM     34  C   UNL     1      48.515   4.485  20.139  0.00  0.00    +0.000 A 
ENDBRANCH  28  29
ENDBRANCH  23  28
ENDBRANCH  22  23
ENDBRANCH   4  22
TORSDOF 10
ENDMDL
MODEL 7
REMARK VINA RESULT:    -7.201      2.607      9.209
REMARK INTER + INTRA:         -12.561
REMARK INTER:                 -11.772
REMARK INTRA:                  -0.789
REMARK UNBOUND:                -1.361
REMARK  Name = 
REMARK  10 active torsions:
REMARK  status: ('A' for Active; 'I' for Inactive)
REMARK    1  A    between atoms: C_2  and  C_23
REMARK    2  A    between atoms: N_3  and  C_4
REMARK    3  A    between atoms: C_4  and  C_5
REMARK    4  A    between atoms: C_8  and  C_9
REMARK    5  A    between atoms: C_9  and  N_10
REMARK    6  A    between atoms: N_10  and  C_11
REMARK    7  A    between atoms: N_10  and  C_14
REMARK    8  A    between atoms: C_11  and  C_12
REMARK    9  A    between atoms: C_12  and  O_13
REMARK   10  A    between atoms: C_14  and  C_15
REMARK                            x       y       z     vdW  Elec       q    Type
REMARK                         _______ _______ _______ _____ _____    ______ ____
ROOT
ATOM      1  C   UNL     1      46.058   6.707  12.648  0.00  0.00    +0.000 A 
ATOM      2  C   UNL     1      46.378   8.000  13.078  0.00  0.00    +0.000 A 
ATOM      3  C   UNL     1      47.418   8.188  13.979  0.00  0.00    +0.000 A 
ATOM      4  C   UNL     1      48.128   7.088  14.475  0.00  0.00    +0.000 A 
ATOM      5  C   UNL     1      47.886   5.811  13.944  0.00  0.00    +0.000 A 
ATOM      6  C   UNL     1      46.863   5.623  13.028  0.00  0.00    +0.000 A 
ENDROOT
BRANCH   1   7
ATOM      7  C   UNL     1      44.894   6.480  11.743  0.00  0.00    +0.000 C 
BRANCH   7  10
ATOM      8  O   UNL     1      45.994   5.954   9.270  0.00  0.00    +0.000 OA
ATOM      9  C   UNL     1      45.479   5.032   9.886  0.00  0.00    +0.000 C 
ATOM     10  N   UNL     1      44.978   5.174  11.164  0.00  0.00    +0.000 N 
ATOM     11  H   UNL     1      44.302   4.505  11.443  0.00  0.00    +0.000 HD
BRANCH   9  12
ATOM     12  C   UNL     1      45.240   3.729   9.327  0.00  0.00    +0.000 A 
ATOM     13  C   UNL     1      44.690   2.698  10.075  0.00  0.00    +0.000 A 
ATOM     14  N   UNL     1      44.533   1.641   9.189  0.00  0.00    +0.000 N 
ATOM     15  C   UNL     1      45.631   1.753   8.357  0.00  0.00    +0.000 A 
ATOM     16  C   UNL     1      46.516   0.803   7.865  0.00  0.00    +0.000 A 
ATOM     17  C   UNL     1      47.467   1.271   6.956  0.00  0.00    +0.000 A 
ATOM     18  C   UNL     1      47.427   2.586   6.479  0.00  0.00    +0.000 A 
ATOM     19  C   UNL     1      46.562   3.533   7.044  0.00  0.00    +0.000 A 
ATOM     20  C   UNL     1      45.768   3.117   8.127  0.00  0.00    +0.000 A 
ATOM     21  H   UNL     1      43.627   1.508   8.772  0.00  0.00    +0.000 HD
ENDBRANCH   9  12
ENDBRANCH   7  10
ENDBRANCH   1   7
BRANCH   4  22
ATOM     22  C   UNL     1      49.066   7.255  15.641  0.00  0.00    +0.000 C 
BRANCH  22  23
ATOM     23  N   UNL     1      48.465   6.809  16.925  0.00  0.00    +0.000 NA
BRANCH  23  24
ATOM     24  C   UNL     1      48.600   5.337  17.096  0.00  0.00    +0.000 C 
BRANCH  24  25
ATOM     25  C   UNL     1      47.296   4.580  17.423  0.00  0.00    +0.000 C 
BRANCH  25  26
ATOM     26  O   UNL     1      46.528   5.294  18.391  0.00  0.00    +0.000 OA
ATOM     27  H   UNL     1      46.241   4.653  19.064  0.00  0.00    +0.000 HD
ENDBRANCH  25  26
ENDBRANCH  24  25
ENDBRANCH  23  24
BRANCH  23  28
ATOM     28  C   UNL     1      49.124   7.518  18.033  0.00  0.00    +0.000 C 
BRANCH  28  29
ATOM     29  C   UNL     1      48.381   8.735  18.542  0.00  0.00    +0.000 A 
ATOM     30  C   UNL     1      48.398   9.947  17.835  0.00  0.00    +0.000 A 
ATOM     31  C   UNL     1      47.602  11.016  18.252  0.00  0.00    +0.000 A 
ATOM     32  C   UNL     1      46.806  10.891  19.389  0.00  0.00    +0.000 A 
ATOM     33  C   UNL     1      46.828   9.712  20.131  0.00  0.00    +0.000 A 
ATOM     34  C   UNL     1      47.611   8.639  19.710  0.00  0.00    +0.000 A 
ENDBRANCH  28  29
ENDBRANCH  23  28
ENDBRANCH  22  23
ENDBRANCH   4  22
TORSDOF 10
ENDMDL
MODEL 8
REMARK VINA RESULT:    -7.129      1.940      8.819
REMARK INTER + INTRA:         -12.450
REMARK INTER:                 -11.084
REMARK INTRA:                  -1.366
REMARK UNBOUND:                -1.361
REMARK  Name = 
REMARK  10 active torsions:
REMARK  status: ('A' for Active; 'I' for Inactive)
REMARK    1  A    between atoms: C_2  and  C_23
REMARK    2  A    between atoms: N_3  and  C_4
REMARK    3  A    between atoms: C_4  and  C_5
REMARK    4  A    between atoms: C_8  and  C_9
REMARK    5  A    between atoms: C_9  and  N_10
REMARK    6  A    between atoms: N_10  and  C_11
REMARK    7  A    between atoms: N_10  and  C_14
REMARK    8  A    between atoms: C_11  and  C_12
REMARK    9  A    between atoms: C_12  and  O_13
REMARK   10  A    between atoms: C_14  and  C_15
REMARK                            x       y       z     vdW  Elec       q    Type
REMARK                         _______ _______ _______ _____ _____    ______ ____
ROOT
ATOM      1  C   UNL     1      46.054   6.905  12.382  0.00  0.00    +0.000 A 
ATOM      2  C   UNL     1      47.065   5.958  12.586  0.00  0.00    +0.000 A 
ATOM      3  C   UNL     1      48.236   6.329  13.233  0.00  0.00    +0.000 A 
ATOM      4  C   UNL     1      48.417   7.651  13.658  0.00  0.00    +0.000 A 
ATOM      5  C   UNL     1      47.352   8.561  13.564  0.00  0.00    +0.000 A 
ATOM      6  C   UNL     1      46.173   8.187  12.938  0.00  0.00    +0.000 A 
ENDROOT
BRANCH   1   7
ATOM      7  C   UNL     1      44.825   6.542  11.618  0.00  0.00    +0.000 C 
BRANCH   7  10
ATOM      8  O   UNL     1      45.857   5.994   9.121  0.00  0.00    +0.000 OA
ATOM      9  C   UNL     1      45.420   5.067   9.786  0.00  0.00    +0.000 C 
ATOM     10  N   UNL     1      44.962   5.223  11.078  0.00  0.00    +0.000 N 
ATOM     11  H   UNL     1      44.337   4.528  11.407  0.00  0.00    +0.000 HD
BRANCH   9  12
ATOM     12  C   UNL     1      45.236   3.733   9.280  0.00  0.00    +0.000 A 
ATOM     13  C   UNL     1      44.780   2.698  10.084  0.00  0.00    +0.000 A 
ATOM     14  N   UNL     1      44.648   1.605   9.239  0.00  0.00    +0.000 N 
ATOM     15  C   UNL     1      45.702   1.752   8.356  0.00  0.00    +0.000 A 
ATOM     16  C   UNL     1      46.620   0.839   7.855  0.00  0.00    +0.000 A 
ATOM     17  C   UNL     1      47.502   1.330   6.890  0.00  0.00    +0.000 A 
ATOM     18  C   UNL     1      47.363   2.623   6.375  0.00  0.00    +0.000 A 
ATOM     19  C   UNL     1      46.469   3.537   6.947  0.00  0.00    +0.000 A 
ATOM     20  C   UNL     1      45.747   3.112   8.077  0.00  0.00    +0.000 A 
ATOM     21  H   UNL     1      43.735   1.405   8.867  0.00  0.00    +0.000 HD
ENDBRANCH   9  12
ENDBRANCH   7  10
ENDBRANCH   1   7
BRANCH   4  22
ATOM     22  C   UNL     1      49.773   8.121  14.113  0.00  0.00    +0.000 C 
BRANCH  22  23
ATOM     23  N   UNL     1      50.257   7.389  15.313  0.00  0.00    +0.000 NA
BRANCH  23  24
ATOM     24  C   UNL     1      51.742   7.395  15.382  0.00  0.00    +0.000 C 
BRANCH  24  25
ATOM     25  C   UNL     1      52.352   6.935  16.722  0.00  0.00    +0.000 C 
BRANCH  25  26
ATOM     26  O   UNL     1      52.211   5.524  16.882  0.00  0.00    +0.000 OA
ATOM     27  H   UNL     1      53.094   5.130  16.775  0.00  0.00    +0.000 HD
ENDBRANCH  25  26
ENDBRANCH  24  25
ENDBRANCH  23  24
BRANCH  23  28
ATOM     28  C   UNL     1      49.683   8.012  16.517  0.00  0.00    +0.000 C 
BRANCH  28  29
ATOM     29  C   UNL     1      48.742   7.127  17.306  0.00  0.00    +0.000 A 
ATOM     30  C   UNL     1      48.503   5.798  16.926  0.00  0.00    +0.000 A 
ATOM     31  C   UNL     1      47.735   4.962  17.740  0.00  0.00    +0.000 A 
ATOM     32  C   UNL     1      47.182   5.453  18.921  0.00  0.00    +0.000 A 
ATOM     33  C   UNL     1      47.364   6.788  19.275  0.00  0.00    +0.000 A 
ATOM     34  C   UNL     1      48.141   7.621  18.472  0.00  0.00    +0.000 A 
ENDBRANCH  28  29
ENDBRANCH  23  28
ENDBRANCH  22  23
ENDBRANCH   4  22
TORSDOF 10
ENDMDL
MODEL 9
REMARK VINA RESULT:    -6.940      2.314      3.320
REMARK INTER + INTRA:         -12.155
REMARK INTER:                 -11.335
REMARK INTRA:                  -0.820
REMARK UNBOUND:                -1.361
REMARK  Name = 
REMARK  10 active torsions:
REMARK  status: ('A' for Active; 'I' for Inactive)
REMARK    1  A    between atoms: C_2  and  C_23
REMARK    2  A    between atoms: N_3  and  C_4
REMARK    3  A    between atoms: C_4  and  C_5
REMARK    4  A    between atoms: C_8  and  C_9
REMARK    5  A    between atoms: C_9  and  N_10
REMARK    6  A    between atoms: N_10  and  C_11
REMARK    7  A    between atoms: N_10  and  C_14
REMARK    8  A    between atoms: C_11  and  C_12
REMARK    9  A    between atoms: C_12  and  O_13
REMARK   10  A    between atoms: C_14  and  C_15
REMARK                            x       y       z     vdW  Elec       q    Type
REMARK                         _______ _______ _______ _____ _____    ______ ____
ROOT
ATOM      1  C   UNL     1      47.720   6.714  13.840  0.00  0.00    +0.000 A 
ATOM      2  C   UNL     1      47.042   7.774  13.227  0.00  0.00    +0.000 A 
ATOM      3  C   UNL     1      46.057   7.508  12.285  0.00  0.00    +0.000 A 
ATOM      4  C   UNL     1      45.760   6.186  11.930  0.00  0.00    +0.000 A 
ATOM      5  C   UNL     1      46.353   5.130  12.639  0.00  0.00    +0.000 A 
ATOM      6  C   UNL     1      47.321   5.392  13.595  0.00  0.00    +0.000 A 
ENDROOT
BRANCH   1   7
ATOM      7  C   UNL     1      48.836   6.984  14.793  0.00  0.00    +0.000 C 
BRANCH   7  10
ATOM      8  O   UNL     1      49.259   9.517  15.797  0.00  0.00    +0.000 OA
ATOM      9  C   UNL     1      48.643   8.715  16.483  0.00  0.00    +0.000 C 
ATOM     10  N   UNL     1      48.306   7.453  16.037  0.00  0.00    +0.000 N 
ATOM     11  H   UNL     1      48.121   6.778  16.739  0.00  0.00    +0.000 HD
BRANCH   9  12
ATOM     12  C   UNL     1      48.285   8.943  17.857  0.00  0.00    +0.000 A 
ATOM     13  C   UNL     1      47.745  10.146  18.287  0.00  0.00    +0.000 A 
ATOM     14  N   UNL     1      47.455   9.962  19.631  0.00  0.00    +0.000 N 
ATOM     15  C   UNL     1      48.483   9.150  20.074  0.00  0.00    +0.000 A 
ATOM     16  C   UNL     1      49.269   9.198  21.218  0.00  0.00    +0.000 A 
ATOM     17  C   UNL     1      50.162   8.138  21.386  0.00  0.00    +0.000 A 
ATOM     18  C   UNL     1      50.154   7.040  20.519  0.00  0.00    +0.000 A 
ATOM     19  C   UNL     1      49.394   7.054  19.342  0.00  0.00    +0.000 A 
ATOM     20  C   UNL     1      48.674   8.227  19.053  0.00  0.00    +0.000 A 
ATOM     21  H   UNL     1      46.511   9.719  19.880  0.00  0.00    +0.000 HD
ENDBRANCH   9  12
ENDBRANCH   7  10
ENDBRANCH   1   7
BRANCH   4  22
ATOM     22  C   UNL     1      44.894   5.901  10.732  0.00  0.00    +0.000 C 
BRANCH  22  23
ATOM     23  N   UNL     1      44.559   4.458  10.601  0.00  0.00    +0.000 NA
BRANCH  23  24
ATOM     24  C   UNL     1      43.373   4.108  11.426  0.00  0.00    +0.000 C 
BRANCH  24  25
ATOM     25  C   UNL     1      42.504   5.296  11.887  0.00  0.00    +0.000 C 
BRANCH  25  26
ATOM     26  O   UNL     1      42.549   5.434  13.307  0.00  0.00    +0.000 OA
ATOM     27  H   UNL     1      42.356   4.561  13.689  0.00  0.00    +0.000 HD
ENDBRANCH  25  26
ENDBRANCH  24  25
ENDBRANCH  23  24
BRANCH  23  28
ATOM     28  C   UNL     1      44.309   4.152   9.184  0.00  0.00    +0.000 C 
BRANCH  28  29
ATOM     29  C   UNL     1      45.363   3.289   8.523  0.00  0.00    +0.000 A 
ATOM     30  C   UNL     1      45.443   1.912   8.782  0.00  0.00    +0.000 A 
ATOM     31  C   UNL     1      46.336   1.113   8.065  0.00  0.00    +0.000 A 
ATOM     32  C   UNL     1      47.169   1.685   7.105  0.00  0.00    +0.000 A 
ATOM     33  C   UNL     1      47.138   3.060   6.884  0.00  0.00    +0.000 A 
ATOM     34  C   UNL     1      46.239   3.858   7.589  0.00  0.00    +0.000 A 
ENDBRANCH  28  29
ENDBRANCH  23  28
ENDBRANCH  22  23
ENDBRANCH   4  22
TORSDOF 10
ENDMDL
