MODEL 1
REMARK VINA RESULT:    -7.277      0.000      0.000
REMARK INTER + INTRA:          -9.278
REMARK INTER:                  -8.554
REMARK INTRA:                  -0.724
REMARK UNBOUND:                -0.724
REMARK  Name = 
REMARK  3 active torsions:
REMARK  status: ('A' for Active; 'I' for Inactive)
REMARK    1  A    between atoms: N_7  and  C_8
REMARK    2  A    between atoms: C_8  and  C_9
REMARK    3  A    between atoms: C_13  and  C_14
REMARK                            x       y       z     vdW  Elec       q    Type
REMARK                         _______ _______ _______ _____ _____    ______ ____
ROOT
ATOM      1  C   UNL     1      44.312   4.273  11.304  0.00  0.00    +0.000 C 
ATOM      2  C   UNL     1      42.867   4.245  11.801  0.00  0.00    +0.000 C 
ATOM      3  C   UNL     1      43.256   5.190  10.715  0.00  0.00    +0.000 C 
ENDROOT
BRANCH   1  10
ATOM      4 CL   UNL     1      46.856   0.273   6.918  0.00  0.00    +0.000 Cl
ATOM      5  C   UNL     1      46.451   1.788   7.627  0.00  0.00    +0.000 A 
ATOM      6  C   UNL     1      46.775   2.964   6.975  0.00  0.00    +0.000 A 
ATOM      7  C   UNL     1      46.410   4.144   7.593  0.00  0.00    +0.000 A 
ATOM      8  N   UNL     1      45.762   4.209   8.779  0.00  0.00    +0.000 NA
ATOM      9  C   UNL     1      45.471   3.052   9.411  0.00  0.00    +0.000 A 
ATOM     10  N   UNL     1      44.755   3.034  10.636  0.00  0.00    +0.000 N 
ATOM     11  C   UNL     1      45.796   1.825   8.850  0.00  0.00    +0.000 A 
ATOM     12  H   UNL     1      45.215   2.385  11.271  0.00  0.00    +0.000 HD
ENDBRANCH   1  10
BRANCH   1  13
ATOM     13  C   UNL     1      45.357   4.929  12.198  0.00  0.00    +0.000 A 
ATOM     14  C   UNL     1      45.932   4.230  13.269  0.00  0.00    +0.000 A 
ATOM     15  C   UNL     1      46.985   4.771  14.001  0.00  0.00    +0.000 A 
ATOM     16  C   UNL     1      47.493   6.024  13.663  0.00  0.00    +0.000 A 
ATOM     17  C   UNL     1      46.949   6.773  12.605  0.00  0.00    +0.000 A 
ATOM     18  C   UNL     1      45.850   6.221  11.924  0.00  0.00    +0.000 A 
BRANCH  17  19
ATOM     19  C   UNL     1      47.571   8.037  12.152  0.00  0.00    +0.000 A 
ATOM     20  C   UNL     1      46.854   9.242  12.201  0.00  0.00    +0.000 A 
ATOM     21  C   UNL     1      47.472  10.422  11.825  0.00  0.00    +0.000 A 
ATOM     22  N   UNL     1      48.752  10.498  11.409  0.00  0.00    +0.000 NA
ATOM     23  C   UNL     1      49.438   9.339  11.370  0.00  0.00    +0.000 A 
ATOM     24  C   UNL     1      48.902   8.107  11.719  0.00  0.00    +0.000 A 
ENDBRANCH  17  19
ENDBRANCH   1  13
TORSDOF 3
ENDMDL
MODEL 2
REMARK VINA RESULT:    -7.232      2.137      3.494
REMARK INTER + INTRA:          -9.225
REMARK INTER:                  -8.551
REMARK INTRA:                  -0.673
REMARK UNBOUND:                -0.724
REMARK  Name = 
REMARK  3 active torsions:
REMARK  status: ('A' for Active; 'I' for Inactive)
REMARK    1  A    between atoms: N_7  and  C_8
REMARK    2  A    between atoms: C_8  and  C_9
REMARK    3  A    between atoms: C_13  and  C_14
REMARK                            x       y       z     vdW  Elec       q    Type
REMARK                         _______ _______ _______ _____ _____    ______ ____
ROOT
ATOM      1  C   UNL     1      44.169   4.659  11.450  0.00  0.00    +0.000 C 
ATOM      2  C   UNL     1      42.861   4.610  12.239  0.00  0.00    +0.000 C 
ATOM      3  C   UNL     1      42.933   5.402  10.977  0.00  0.00    +0.000 C 
ENDROOT
BRANCH   1  10
ATOM      4 CL   UNL     1      46.610   0.287   7.372  0.00  0.00    +0.000 Cl
ATOM      5  C   UNL     1      46.231   1.859   7.961  0.00  0.00    +0.000 A 
ATOM      6  C   UNL     1      46.559   2.974   7.211  0.00  0.00    +0.000 A 
ATOM      7  C   UNL     1      46.216   4.205   7.736  0.00  0.00    +0.000 A 
ATOM      8  N   UNL     1      45.585   4.374   8.921  0.00  0.00    +0.000 NA
ATOM      9  C   UNL     1      45.289   3.275   9.648  0.00  0.00    +0.000 A 
ATOM     10  N   UNL     1      44.590   3.364  10.879  0.00  0.00    +0.000 N 
ATOM     11  C   UNL     1      45.593   2.003   9.185  0.00  0.00    +0.000 A 
ATOM     12  H   UNL     1      45.051   2.763  11.559  0.00  0.00    +0.000 HD
ENDBRANCH   1  10
BRANCH   1  13
ATOM     13  C   UNL     1      45.302   5.513  12.007  0.00  0.00    +0.000 A 
ATOM     14  C   UNL     1      45.530   6.811  11.526  0.00  0.00    +0.000 A 
ATOM     15  C   UNL     1      46.469   7.646  12.124  0.00  0.00    +0.000 A 
ATOM     16  C   UNL     1      47.191   7.199  13.230  0.00  0.00    +0.000 A 
ATOM     17  C   UNL     1      47.009   5.906  13.747  0.00  0.00    +0.000 A 
ATOM     18  C   UNL     1      46.094   5.069  13.084  0.00  0.00    +0.000 A 
BRANCH  17  19
ATOM     19  C   UNL     1      47.667   5.474  15.001  0.00  0.00    +0.000 A 
ATOM     20  C   UNL     1      48.627   6.289  15.620  0.00  0.00    +0.000 A 
ATOM     21  C   UNL     1      49.189   5.892  16.821  0.00  0.00    +0.000 A 
ATOM     22  N   UNL     1      48.866   4.749  17.459  0.00  0.00    +0.000 NA
ATOM     23  C   UNL     1      47.939   3.974  16.863  0.00  0.00    +0.000 A 
ATOM     24  C   UNL     1      47.326   4.284  15.656  0.00  0.00    +0.000 A 
ENDBRANCH  17  19
ENDBRANCH   1  13
TORSDOF 3
ENDMDL
MODEL 3
REMARK VINA RESULT:    -6.915      1.542      2.024
REMARK INTER + INTRA:          -8.852
REMARK INTER:                  -9.197
REMARK INTRA:                   0.345
REMARK UNBOUND:                -0.724
REMARK  Name = 
REMARK  3 active torsions:
REMARK  status: ('A' for Active; 'I' for Inactive)
REMARK    1  A    between atoms: N_7  and  C_8
REMARK    2  A    between atoms: C_8  and  C_9
REMARK    3  A    between atoms: C_13  and  C_14
REMARK                            x       y       z     vdW  Elec       q    Type
REMARK                         _______ _______ _______ _____ _____    ______ ____
ROOT
ATOM      1  C   UNL     1      44.328   5.516  11.026  0.00  0.00    +0.000 C 
ATOM      2  C   UNL     1      43.059   4.692  11.238  0.00  0.00    +0.000 C 
ATOM      3  C   UNL     1      42.993   6.180  11.309  0.00  0.00    +0.000 C 
ENDROOT
BRANCH   1  10
ATOM      4 CL   UNL     1      46.931   3.056   5.652  0.00  0.00    +0.000 Cl
ATOM      5  C   UNL     1      46.211   3.026   7.215  0.00  0.00    +0.000 A 
ATOM      6  C   UNL     1      46.033   1.821   7.869  0.00  0.00    +0.000 A 
ATOM      7  C   UNL     1      45.460   1.870   9.125  0.00  0.00    +0.000 A 
ATOM      8  N   UNL     1      45.075   3.012   9.739  0.00  0.00    +0.000 NA
ATOM      9  C   UNL     1      45.239   4.178   9.077  0.00  0.00    +0.000 A 
ATOM     10  N   UNL     1      44.902   5.422   9.669  0.00  0.00    +0.000 N 
ATOM     11  C   UNL     1      45.816   4.213   7.816  0.00  0.00    +0.000 A 
ATOM     12  H   UNL     1      44.394   5.980   8.986  0.00  0.00    +0.000 HD
ENDBRANCH   1  10
BRANCH   1  13
ATOM     13  C   UNL     1      45.352   5.545  12.154  0.00  0.00    +0.000 A 
ATOM     14  C   UNL     1      45.303   4.608  13.197  0.00  0.00    +0.000 A 
ATOM     15  C   UNL     1      46.313   4.539  14.152  0.00  0.00    +0.000 A 
ATOM     16  C   UNL     1      47.404   5.403  14.072  0.00  0.00    +0.000 A 
ATOM     17  C   UNL     1      47.500   6.367  13.054  0.00  0.00    +0.000 A 
ATOM     18  C   UNL     1      46.435   6.446  12.140  0.00  0.00    +0.000 A 
BRANCH  17  19
ATOM     19  C   UNL     1      48.717   7.191  12.881  0.00  0.00    +0.000 A 
ATOM     20  C   UNL     1      49.549   7.474  13.975  0.00  0.00    +0.000 A 
ATOM     21  C   UNL     1      50.712   8.199  13.781  0.00  0.00    +0.000 A 
ATOM     22  N   UNL     1      51.116   8.661  12.580  0.00  0.00    +0.000 NA
ATOM     23  C   UNL     1      50.317   8.381  11.532  0.00  0.00    +0.000 A 
ATOM     24  C   UNL     1      49.129   7.668  11.629  0.00  0.00    +0.000 A 
ENDBRANCH  17  19
ENDBRANCH   1  13
TORSDOF 3
ENDMDL
MODEL 4
REMARK VINA RESULT:    -6.360      3.130      6.817
REMARK INTER + INTRA:          -8.199
REMARK INTER:                  -7.508
REMARK INTRA:                  -0.691
REMARK UNBOUND:                -0.724
REMARK  Name = 
REMARK  3 active torsions:
REMARK  status: ('A' for Active; 'I' for Inactive)
REMARK    1  A    between atoms: N_7  and  C_8
REMARK    2  A    between atoms: C_8  and  C_9
REMARK    3  A    between atoms: C_13  and  C_14
REMARK                            x       y       z     vdW  Elec       q    Type
REMARK                         _______ _______ _______ _____ _____    ______ ____
ROOT
ATOM      1  C   UNL     1      46.173   5.409  13.302  0.00  0.00    +0.000 C 
ATOM      2  C   UNL     1      46.147   4.591  14.593  0.00  0.00    +0.000 C 
ATOM      3  C   UNL     1      47.304   4.463  13.661  0.00  0.00    +0.000 C 
ENDROOT
BRANCH   1  10
ATOM      4 CL   UNL     1      48.232  11.517  12.902  0.00  0.00    +0.000 Cl
ATOM      5  C   UNL     1      48.193   9.836  12.535  0.00  0.00    +0.000 A 
ATOM      6  C   UNL     1      49.115   9.301  11.654  0.00  0.00    +0.000 A 
ATOM      7  C   UNL     1      49.035   7.943  11.412  0.00  0.00    +0.000 A 
ATOM      8  N   UNL     1      48.124   7.124  11.985  0.00  0.00    +0.000 NA
ATOM      9  C   UNL     1      47.220   7.666  12.828  0.00  0.00    +0.000 A 
ATOM     10  N   UNL     1      46.259   6.869  13.502  0.00  0.00    +0.000 N 
ATOM     11  C   UNL     1      47.239   9.021  13.129  0.00  0.00    +0.000 A 
ATOM     12  H   UNL     1      45.354   7.330  13.442  0.00  0.00    +0.000 HD
ENDBRANCH   1  10
BRANCH   1  13
ATOM     13  C   UNL     1      45.257   4.970  12.166  0.00  0.00    +0.000 A 
ATOM     14  C   UNL     1      43.940   5.446  12.075  0.00  0.00    +0.000 A 
ATOM     15  C   UNL     1      43.146   5.163  10.968  0.00  0.00    +0.000 A 
ATOM     16  C   UNL     1      43.663   4.403   9.919  0.00  0.00    +0.000 A 
ATOM     17  C   UNL     1      44.972   3.892   9.962  0.00  0.00    +0.000 A 
ATOM     18  C   UNL     1      45.726   4.151  11.120  0.00  0.00    +0.000 A 
BRANCH  17  19
ATOM     19  C   UNL     1      45.573   3.206   8.797  0.00  0.00    +0.000 A 
ATOM     20  C   UNL     1      45.994   3.939   7.676  0.00  0.00    +0.000 A 
ATOM     21  C   UNL     1      46.604   3.284   6.621  0.00  0.00    +0.000 A 
ATOM     22  N   UNL     1      46.836   1.956   6.595  0.00  0.00    +0.000 NA
ATOM     23  C   UNL     1      46.436   1.259   7.677  0.00  0.00    +0.000 A 
ATOM     24  C   UNL     1      45.809   1.825   8.779  0.00  0.00    +0.000 A 
ENDBRANCH  17  19
ENDBRANCH   1  13
TORSDOF 3
ENDMDL
MODEL 5
REMARK VINA RESULT:    -6.322      5.449      8.241
REMARK INTER + INTRA:          -8.154
REMARK INTER:                  -7.672
REMARK INTRA:                  -0.483
REMARK UNBOUND:                -0.724
REMARK  Name = 
REMARK  3 active torsions:
REMARK  status: ('A' for Active; 'I' for Inactive)
REMARK    1  A    between atoms: N_7  and  C_8
REMARK    2  A    between atoms: C_8  and  C_9
REMARK    3  A    between atoms: C_13  and  C_14
REMARK                            x       y       z     vdW  Elec       q    Type
REMARK                         _______ _______ _______ _____ _____    ______ ____
ROOT
ATOM      1  C   UNL     1      43.709  10.686  10.852  0.00  0.00    +0.000 C 
ATOM      2  C   UNL     1      44.395  11.617   9.853  0.00  0.00    +0.000 C 
ATOM      3  C   UNL     1      43.404  10.613   9.367  0.00  0.00    +0.000 C 
ENDROOT
BRANCH   1  10
ATOM      4 CL   UNL     1      38.377  12.558  13.977  0.00  0.00    +0.000 Cl
ATOM      5  C   UNL     1      39.312  11.654  12.850  0.00  0.00    +0.000 A 
ATOM      6  C   UNL     1      38.690  10.752  12.006  0.00  0.00    +0.000 A 
ATOM      7  C   UNL     1      39.498  10.068  11.118  0.00  0.00    +0.000 A 
ATOM      8  N   UNL     1      40.837  10.233  11.030  0.00  0.00    +0.000 NA
ATOM      9  C   UNL     1      41.429  11.103  11.875  0.00  0.00    +0.000 A 
ATOM     10  N   UNL     1      42.822  11.365  11.817  0.00  0.00    +0.000 N 
ATOM     11  C   UNL     1      40.686  11.836  12.789  0.00  0.00    +0.000 A 
ATOM     12  H   UNL     1      43.193  11.363  12.764  0.00  0.00    +0.000 HD
ENDBRANCH   1  10
BRANCH   1  13
ATOM     13  C   UNL     1      44.530   9.539  11.432  0.00  0.00    +0.000 A 
ATOM     14  C   UNL     1      45.484   9.770  12.433  0.00  0.00    +0.000 A 
ATOM     15  C   UNL     1      46.135   8.715  13.065  0.00  0.00    +0.000 A 
ATOM     16  C   UNL     1      45.830   7.401  12.713  0.00  0.00    +0.000 A 
ATOM     17  C   UNL     1      44.889   7.112  11.711  0.00  0.00    +0.000 A 
ATOM     18  C   UNL     1      44.293   8.203  11.054  0.00  0.00    +0.000 A 
BRANCH  17  19
ATOM     19  C   UNL     1      44.458   5.725  11.430  0.00  0.00    +0.000 A 
ATOM     20  C   UNL     1      43.571   5.064  12.294  0.00  0.00    +0.000 A 
ATOM     21  C   UNL     1      43.138   3.786  11.983  0.00  0.00    +0.000 A 
ATOM     22  N   UNL     1      43.514   3.116  10.875  0.00  0.00    +0.000 NA
ATOM     23  C   UNL     1      44.360   3.758  10.046  0.00  0.00    +0.000 A 
ATOM     24  C   UNL     1      44.855   5.034  10.276  0.00  0.00    +0.000 A 
ENDBRANCH  17  19
ENDBRANCH   1  13
TORSDOF 3
ENDMDL
MODEL 6
REMARK VINA RESULT:    -6.152      3.745      7.723
REMARK INTER + INTRA:          -7.955
REMARK INTER:                  -7.352
REMARK INTRA:                  -0.603
REMARK UNBOUND:                -0.724
REMARK  Name = 
REMARK  3 active torsions:
REMARK  status: ('A' for Active; 'I' for Inactive)
REMARK    1  A    between atoms: N_7  and  C_8
REMARK    2  A    between atoms: C_8  and  C_9
REMARK    3  A    between atoms: C_13  and  C_14
REMARK                            x       y       z     vdW  Elec       q    Type
REMARK                         _______ _______ _______ _____ _____    ______ ____
ROOT
ATOM      1  C   UNL     1      48.927   7.805  12.571  0.00  0.00    +0.000 C 
ATOM      2  C   UNL     1      49.913   7.855  11.404  0.00  0.00    +0.000 C 
ATOM      3  C   UNL     1      49.573   9.108  12.138  0.00  0.00    +0.000 C 
ENDROOT
BRANCH   1  10
ATOM      4 CL   UNL     1      50.178   6.116  18.677  0.00  0.00    +0.000 Cl
ATOM      5  C   UNL     1      49.526   7.076  17.406  0.00  0.00    +0.000 A 
ATOM      6  C   UNL     1      48.851   8.246  17.701  0.00  0.00    +0.000 A 
ATOM      7  C   UNL     1      48.364   8.974  16.633  0.00  0.00    +0.000 A 
ATOM      8  N   UNL     1      48.514   8.613  15.338  0.00  0.00    +0.000 NA
ATOM      9  C   UNL     1      49.159   7.457  15.069  0.00  0.00    +0.000 A 
ATOM     10  N   UNL     1      49.394   7.030  13.737  0.00  0.00    +0.000 N 
ATOM     11  C   UNL     1      49.685   6.674  16.086  0.00  0.00    +0.000 A 
ATOM     12  H   UNL     1      49.171   6.040  13.669  0.00  0.00    +0.000 HD
ENDBRANCH   1  10
BRANCH   1  13
ATOM     13  C   UNL     1      47.448   7.640  12.242  0.00  0.00    +0.000 A 
ATOM     14  C   UNL     1      46.554   8.712  12.383  0.00  0.00    +0.000 A 
ATOM     15  C   UNL     1      45.234   8.611  11.953  0.00  0.00    +0.000 A 
ATOM     16  C   UNL     1      44.786   7.432  11.358  0.00  0.00    +0.000 A 
ATOM     17  C   UNL     1      45.636   6.324  11.200  0.00  0.00    +0.000 A 
ATOM     18  C   UNL     1      46.946   6.441  11.697  0.00  0.00    +0.000 A 
BRANCH  17  19
ATOM     19  C   UNL     1      45.211   5.124  10.446  0.00  0.00    +0.000 A 
ATOM     20  C   UNL     1      45.567   4.964   9.098  0.00  0.00    +0.000 A 
ATOM     21  C   UNL     1      45.206   3.808   8.428  0.00  0.00    +0.000 A 
ATOM     22  N   UNL     1      44.524   2.794   8.995  0.00  0.00    +0.000 NA
ATOM     23  C   UNL     1      44.191   2.949  10.292  0.00  0.00    +0.000 A 
ATOM     24  C   UNL     1      44.501   4.074  11.044  0.00  0.00    +0.000 A 
ENDBRANCH  17  19
ENDBRANCH   1  13
TORSDOF 3
ENDMDL
MODEL 7
REMARK VINA RESULT:    -6.145      5.225      7.945
REMARK INTER + INTRA:          -7.947
REMARK INTER:                  -7.319
REMARK INTRA:                  -0.628
REMARK UNBOUND:                -0.724
REMARK  Name = 
REMARK  3 active torsions:
REMARK  status: ('A' for Active; 'I' for Inactive)
REMARK    1  A    between atoms: N_7  and  C_8
REMARK    2  A    between atoms: C_8  and  C_9
REMARK    3  A    between atoms: C_13  and  C_14
REMARK                            x       y       z     vdW  Elec       q    Type
REMARK                         _______ _______ _______ _____ _____    ______ ____
ROOT
ATOM      1  C   UNL     1      48.697   5.400  17.354  0.00  0.00    +0.000 C 
ATOM      2  C   UNL     1      47.742   5.935  18.421  0.00  0.00    +0.000 C 
ATOM      3  C   UNL     1      47.488   4.601  17.804  0.00  0.00    +0.000 C 
ENDROOT
BRANCH   1  10
ATOM      4 CL   UNL     1      54.153   2.242  18.755  0.00  0.00    +0.000 Cl
ATOM      5  C   UNL     1      52.581   2.460  18.090  0.00  0.00    +0.000 A 
ATOM      6  C   UNL     1      51.946   1.406  17.458  0.00  0.00    +0.000 A 
ATOM      7  C   UNL     1      50.681   1.646  16.957  0.00  0.00    +0.000 A 
ATOM      8  N   UNL     1      50.041   2.833  17.054  0.00  0.00    +0.000 NA
ATOM      9  C   UNL     1      50.683   3.857  17.657  0.00  0.00    +0.000 A 
ATOM     10  N   UNL     1      50.064   5.121  17.836  0.00  0.00    +0.000 N 
ATOM     11  C   UNL     1      51.952   3.693  18.194  0.00  0.00    +0.000 A 
ATOM     12  H   UNL     1      50.729   5.848  17.583  0.00  0.00    +0.000 HD
ENDBRANCH   1  10
BRANCH   1  13
ATOM     13  C   UNL     1      48.622   6.017  15.962  0.00  0.00    +0.000 A 
ATOM     14  C   UNL     1      49.612   6.902  15.510  0.00  0.00    +0.000 A 
ATOM     15  C   UNL     1      49.626   7.358  14.195  0.00  0.00    +0.000 A 
ATOM     16  C   UNL     1      48.651   6.922  13.299  0.00  0.00    +0.000 A 
ATOM     17  C   UNL     1      47.631   6.043  13.700  0.00  0.00    +0.000 A 
ATOM     18  C   UNL     1      47.614   5.648  15.049  0.00  0.00    +0.000 A 
BRANCH  17  19
ATOM     19  C   UNL     1      46.678   5.468  12.725  0.00  0.00    +0.000 A 
ATOM     20  C   UNL     1      46.014   4.262  13.001  0.00  0.00    +0.000 A 
ATOM     21  C   UNL     1      45.086   3.770  12.100  0.00  0.00    +0.000 A 
ATOM     22  N   UNL     1      44.759   4.388  10.947  0.00  0.00    +0.000 NA
ATOM     23  C   UNL     1      45.394   5.548  10.690  0.00  0.00    +0.000 A 
ATOM     24  C   UNL     1      46.345   6.116  11.528  0.00  0.00    +0.000 A 
ENDBRANCH  17  19
ENDBRANCH   1  13
TORSDOF 3
ENDMDL
MODEL 8
REMARK VINA RESULT:    -5.782      3.439      7.099
REMARK INTER + INTRA:          -7.520
REMARK INTER:                  -8.109
REMARK INTRA:                   0.590
REMARK UNBOUND:                -0.724
REMARK  Name = 
REMARK  3 active torsions:
REMARK  status: ('A' for Active; 'I' for Inactive)
REMARK    1  A    between atoms: N_7  and  C_8
REMARK    2  A    between atoms: C_8  and  C_9
REMARK    3  A    between atoms: C_13  and  C_14
REMARK                            x       y       z     vdW  Elec       q    Type
REMARK                         _______ _______ _______ _____ _____    ______ ____
ROOT
ATOM      1  C   UNL     1      48.784   7.877  12.784  0.00  0.00    +0.000 C 
ATOM      2  C   UNL     1      49.863   7.390  11.819  0.00  0.00    +0.000 C 
ATOM      3  C   UNL     1      49.554   8.846  11.907  0.00  0.00    +0.000 C 
ENDROOT
BRANCH   1  10
ATOM      4 CL   UNL     1      48.813   5.345  18.725  0.00  0.00    +0.000 Cl
ATOM      5  C   UNL     1      48.428   5.439  17.051  0.00  0.00    +0.000 A 
ATOM      6  C   UNL     1      47.619   4.477  16.473  0.00  0.00    +0.000 A 
ATOM      7  C   UNL     1      47.340   4.620  15.128  0.00  0.00    +0.000 A 
ATOM      8  N   UNL     1      47.803   5.633  14.361  0.00  0.00    +0.000 NA
ATOM      9  C   UNL     1      48.606   6.553  14.937  0.00  0.00    +0.000 A 
ATOM     10  N   UNL     1      49.097   7.669  14.212  0.00  0.00    +0.000 N 
ATOM     11  C   UNL     1      48.926   6.485  16.285  0.00  0.00    +0.000 A 
ATOM     12  H   UNL     1      50.087   7.782  14.419  0.00  0.00    +0.000 HD
ENDBRANCH   1  10
BRANCH   1  13
ATOM     13  C   UNL     1      47.328   7.629  12.405  0.00  0.00    +0.000 A 
ATOM     14  C   UNL     1      46.349   8.609  12.624  0.00  0.00    +0.000 A 
ATOM     15  C   UNL     1      45.049   8.447  12.153  0.00  0.00    +0.000 A 
ATOM     16  C   UNL     1      44.708   7.299  11.439  0.00  0.00    +0.000 A 
ATOM     17  C   UNL     1      45.647   6.282  11.198  0.00  0.00    +0.000 A 
ATOM     18  C   UNL     1      46.934   6.453  11.737  0.00  0.00    +0.000 A 
BRANCH  17  19
ATOM     19  C   UNL     1      45.333   5.130  10.324  0.00  0.00    +0.000 A 
ATOM     20  C   UNL     1      44.565   4.058  10.804  0.00  0.00    +0.000 A 
ATOM     21  C   UNL     1      44.236   3.017   9.954  0.00  0.00    +0.000 A 
ATOM     22  N   UNL     1      44.606   2.961   8.659  0.00  0.00    +0.000 NA
ATOM     23  C   UNL     1      45.338   3.996   8.201  0.00  0.00    +0.000 A 
ATOM     24  C   UNL     1      45.723   5.079   8.979  0.00  0.00    +0.000 A 
ENDBRANCH  17  19
ENDBRANCH   1  13
TORSDOF 3
ENDMDL
MODEL 9
REMARK VINA RESULT:    -5.628      3.853      6.404
REMARK INTER + INTRA:          -7.339
REMARK INTER:                  -6.854
REMARK INTRA:                  -0.485
REMARK UNBOUND:                -0.724
REMARK  Name = 
REMARK  3 active torsions:
REMARK  status: ('A' for Active; 'I' for Inactive)
REMARK    1  A    between atoms: N_7  and  C_8
REMARK    2  A    between atoms: C_8  and  C_9
REMARK    3  A    between atoms: C_13  and  C_14
REMARK                            x       y       z     vdW  Elec       q    Type
REMARK                         _______ _______ _______ _____ _____    ______ ____
ROOT
ATOM      1  C   UNL     1      48.058   8.108  12.709  0.00  0.00    +0.000 C 
ATOM      2  C   UNL     1      48.823   9.095  11.827  0.00  0.00    +0.000 C 
ATOM      3  C   UNL     1      49.133   7.638  11.747  0.00  0.00    +0.000 C 
ENDROOT
BRANCH   1  10
ATOM      4 CL   UNL     1      42.176   5.611  11.779  0.00  0.00    +0.000 Cl
ATOM      5  C   UNL     1      43.840   5.612  12.219  0.00  0.00    +0.000 A 
ATOM      6  C   UNL     1      44.450   4.435  12.615  0.00  0.00    +0.000 A 
ATOM      7  C   UNL     1      45.789   4.505  12.943  0.00  0.00    +0.000 A 
ATOM      8  N   UNL     1      46.523   5.639  12.896  0.00  0.00    +0.000 NA
ATOM      9  C   UNL     1      45.907   6.783  12.526  0.00  0.00    +0.000 A 
ATOM     10  N   UNL     1      46.617   8.006  12.409  0.00  0.00    +0.000 N 
ATOM     11  C   UNL     1      44.566   6.794  12.172  0.00  0.00    +0.000 A 
ATOM     12  H   UNL     1      46.068   8.743  12.846  0.00  0.00    +0.000 HD
ENDBRANCH   1  10
BRANCH   1  13
ATOM     13  C   UNL     1      48.409   8.062  14.192  0.00  0.00    +0.000 A 
ATOM     14  C   UNL     1      48.206   9.179  15.017  0.00  0.00    +0.000 A 
ATOM     15  C   UNL     1      48.391   9.101  16.394  0.00  0.00    +0.000 A 
ATOM     16  C   UNL     1      48.772   7.892  16.975  0.00  0.00    +0.000 A 
ATOM     17  C   UNL     1      48.999   6.745  16.196  0.00  0.00    +0.000 A 
ATOM     18  C   UNL     1      48.858   6.875  14.803  0.00  0.00    +0.000 A 
BRANCH  17  19
ATOM     19  C   UNL     1      49.266   5.429  16.817  0.00  0.00    +0.000 A 
ATOM     20  C   UNL     1      48.302   4.410  16.773  0.00  0.00    +0.000 A 
ATOM     21  C   UNL     1      48.594   3.168  17.311  0.00  0.00    +0.000 A 
ATOM     22  N   UNL     1      49.774   2.858  17.884  0.00  0.00    +0.000 NA
ATOM     23  C   UNL     1      50.699   3.838  17.917  0.00  0.00    +0.000 A 
ATOM     24  C   UNL     1      50.496   5.115  17.412  0.00  0.00    +0.000 A 
ENDBRANCH  17  19
ENDBRANCH   1  13
TORSDOF 3
ENDMDL
