MODEL 1
REMARK VINA RESULT:    -7.706      0.000      0.000
REMARK INTER + INTRA:         -11.000
REMARK INTER:                  -9.958
REMARK INTRA:                  -1.042
REMARK UNBOUND:                -1.042
REMARK  Name = 
REMARK  5 active torsions:
REMARK  status: ('A' for Active; 'I' for Inactive)
REMARK    1  A    between atoms: C_2  and  C_18
REMARK    2  A    between atoms: N_3  and  C_4
REMARK    3  A    between atoms: C_4  and  C_5
REMARK    4  A    between atoms: C_8  and  C_9
REMARK    5  A    between atoms: C_9  and  C_10
REMARK                            x       y       z     vdW  Elec       q    Type
REMARK                         _______ _______ _______ _____ _____    ______ ____
ROOT
ATOM      1  O   UNL     1      48.662   7.196  13.055  0.00  0.00    +0.000 OA
ATOM      2  C   UNL     1      47.961   6.851  14.001  0.00  0.00    +0.000 C 
ATOM      3  N   UNL     1      46.589   6.875  13.941  0.00  0.00    +0.000 N 
ATOM      4  H   UNL     1      46.052   6.814  14.801  0.00  0.00    +0.000 HD
ENDROOT
BRANCH   2   5
ATOM      5  C   UNL     1      48.551   6.347  15.244  0.00  0.00    +0.000 A 
ATOM      6  C   UNL     1      49.581   7.042  15.856  0.00  0.00    +0.000 A 
ATOM      7  S   UNL     1      50.142   6.310  17.290  0.00  0.00    +0.000 S 
ATOM      8  C   UNL     1      48.994   5.060  17.163  0.00  0.00    +0.000 A 
ATOM      9  N   UNL     1      48.903   4.091  18.115  0.00  0.00    +0.000 NA
ATOM     10  C   UNL     1      47.965   3.227  17.908  0.00  0.00    +0.000 A 
ATOM     11  N   UNL     1      47.116   3.237  16.829  0.00  0.00    +0.000 N 
ATOM     12  C   UNL     1      47.195   4.171  15.829  0.00  0.00    +0.000 A 
ATOM     13  O   UNL     1      46.461   4.116  14.844  0.00  0.00    +0.000 OA
ATOM     14  C   UNL     1      48.217   5.183  16.026  0.00  0.00    +0.000 A 
ATOM     15  H   UNL     1      46.414   2.523  16.718  0.00  0.00    +0.000 HD
ENDBRANCH   2   5
BRANCH   3  16
ATOM     16  C   UNL     1      45.923   7.442  12.798  0.00  0.00    +0.000 C 
BRANCH  16  17
ATOM     17  C   UNL     1      45.618   6.408  11.747  0.00  0.00    +0.000 A 
ATOM     18  C   UNL     1      46.157   6.532  10.460  0.00  0.00    +0.000 A 
ATOM     19  C   UNL     1      45.925   5.550   9.494  0.00  0.00    +0.000 A 
ATOM     20  C   UNL     1      45.140   4.428   9.789  0.00  0.00    +0.000 A 
ATOM     21  C   UNL     1      44.570   4.323  11.064  0.00  0.00    +0.000 A 
ATOM     22  C   UNL     1      44.797   5.309  12.030  0.00  0.00    +0.000 A 
BRANCH  20  23
ATOM     23  C   UNL     1      44.894   3.363   8.746  0.00  0.00    +0.000 C 
BRANCH  23  24
ATOM     24  C   UNL     1      46.138   2.539   8.335  0.00  0.00    +0.000 C 
ATOM     25  C   UNL     1      46.698   2.989   6.973  0.00  0.00    +0.000 C 
ATOM     26  C   UNL     1      47.645   1.972   6.351  0.00  0.00    +0.000 C 
ATOM     27  O   UNL     1      47.041   0.684   6.301  0.00  0.00    +0.000 OA
ATOM     28  C   UNL     1      46.797   0.180   7.610  0.00  0.00    +0.000 C 
ATOM     29  C   UNL     1      45.770   1.042   8.327  0.00  0.00    +0.000 C 
ENDBRANCH  23  24
ENDBRANCH  20  23
ENDBRANCH  16  17
ENDBRANCH   3  16
TORSDOF 5
ENDMDL
MODEL 2
REMARK VINA RESULT:    -7.621      1.630      2.439
REMARK INTER + INTRA:         -10.890
REMARK INTER:                 -10.753
REMARK INTRA:                  -0.137
REMARK UNBOUND:                -1.042
REMARK  Name = 
REMARK  5 active torsions:
REMARK  status: ('A' for Active; 'I' for Inactive)
REMARK    1  A    between atoms: C_2  and  C_18
REMARK    2  A    between atoms: N_3  and  C_4
REMARK    3  A    between atoms: C_4  and  C_5
REMARK    4  A    between atoms: C_8  and  C_9
REMARK    5  A    between atoms: C_9  and  C_10
REMARK                            x       y       z     vdW  Elec       q    Type
REMARK                         _______ _______ _______ _____ _____    ______ ____
ROOT
ATOM      1  O   UNL     1      46.737   3.117  13.968  0.00  0.00    +0.000 OA
ATOM      2  C   UNL     1      46.471   4.268  14.298  0.00  0.00    +0.000 C 
ATOM      3  N   UNL     1      45.248   4.838  14.043  0.00  0.00    +0.000 N 
ATOM      4  H   UNL     1      45.144   5.846  14.112  0.00  0.00    +0.000 HD
ENDROOT
BRANCH   2   5
ATOM      5  C   UNL     1      47.435   5.094  15.030  0.00  0.00    +0.000 A 
ATOM      6  C   UNL     1      48.094   6.128  14.385  0.00  0.00    +0.000 A 
ATOM      7  S   UNL     1      49.176   6.981  15.391  0.00  0.00    +0.000 S 
ATOM      8  C   UNL     1      48.764   6.022  16.735  0.00  0.00    +0.000 A 
ATOM      9  N   UNL     1      49.314   6.256  17.958  0.00  0.00    +0.000 NA
ATOM     10  C   UNL     1      48.885   5.475  18.893  0.00  0.00    +0.000 A 
ATOM     11  N   UNL     1      47.963   4.473  18.715  0.00  0.00    +0.000 N 
ATOM     12  C   UNL     1      47.411   4.179  17.495  0.00  0.00    +0.000 A 
ATOM     13  O   UNL     1      46.636   3.236  17.355  0.00  0.00    +0.000 OA
ATOM     14  C   UNL     1      47.840   5.046  16.413  0.00  0.00    +0.000 A 
ATOM     15  H   UNL     1      47.682   3.887  19.485  0.00  0.00    +0.000 HD
ENDBRANCH   2   5
BRANCH   3  16
ATOM     16  C   UNL     1      44.273   4.137  13.249  0.00  0.00    +0.000 C 
BRANCH  16  17
ATOM     17  C   UNL     1      44.608   4.167  11.781  0.00  0.00    +0.000 A 
ATOM     18  C   UNL     1      44.108   3.176  10.926  0.00  0.00    +0.000 A 
ATOM     19  C   UNL     1      44.366   3.225   9.553  0.00  0.00    +0.000 A 
ATOM     20  C   UNL     1      45.138   4.259   9.007  0.00  0.00    +0.000 A 
ATOM     21  C   UNL     1      45.668   5.228   9.868  0.00  0.00    +0.000 A 
ATOM     22  C   UNL     1      45.415   5.176  11.243  0.00  0.00    +0.000 A 
BRANCH  20  23
ATOM     23  C   UNL     1      45.412   4.315   7.523  0.00  0.00    +0.000 C 
BRANCH  23  24
ATOM     24  C   UNL     1      45.910   2.992   6.891  0.00  0.00    +0.000 C 
ATOM     25  C   UNL     1      46.442   2.015   7.955  0.00  0.00    +0.000 C 
ATOM     26  C   UNL     1      47.294   0.899   7.368  0.00  0.00    +0.000 C 
ATOM     27  O   UNL     1      48.326   1.431   6.544  0.00  0.00    +0.000 OA
ATOM     28  C   UNL     1      47.783   2.092   5.405  0.00  0.00    +0.000 C 
ATOM     29  C   UNL     1      46.984   3.313   5.833  0.00  0.00    +0.000 C 
ENDBRANCH  23  24
ENDBRANCH  20  23
ENDBRANCH  16  17
ENDBRANCH   3  16
TORSDOF 5
ENDMDL
MODEL 3
REMARK VINA RESULT:    -7.156      1.900      2.498
REMARK INTER + INTRA:         -10.289
REMARK INTER:                  -9.568
REMARK INTRA:                  -0.722
REMARK UNBOUND:                -1.042
REMARK  Name = 
REMARK  5 active torsions:
REMARK  status: ('A' for Active; 'I' for Inactive)
REMARK    1  A    between atoms: C_2  and  C_18
REMARK    2  A    between atoms: N_3  and  C_4
REMARK    3  A    between atoms: C_4  and  C_5
REMARK    4  A    between atoms: C_8  and  C_9
REMARK    5  A    between atoms: C_9  and  C_10
REMARK                            x       y       z     vdW  Elec       q    Type
REMARK                         _______ _______ _______ _____ _____    ______ ____
ROOT
ATOM      1  O   UNL     1      47.247   4.746  14.043  0.00  0.00    +0.000 OA
ATOM      2  C   UNL     1      47.300   5.962  13.895  0.00  0.00    +0.000 C 
ATOM      3  N   UNL     1      46.191   6.711  13.584  0.00  0.00    +0.000 N 
ATOM      4  H   UNL     1      46.311   7.658  13.241  0.00  0.00    +0.000 HD
ENDROOT
BRANCH   2   5
ATOM      5  C   UNL     1      48.552   6.700  14.088  0.00  0.00    +0.000 A 
ATOM      6  C   UNL     1      49.100   7.423  13.040  0.00  0.00    +0.000 A 
ATOM      7  S   UNL     1      50.553   8.218  13.446  0.00  0.00    +0.000 S 
ATOM      8  C   UNL     1      50.474   7.657  15.050  0.00  0.00    +0.000 A 
ATOM      9  N   UNL     1      51.416   8.013  15.966  0.00  0.00    +0.000 NA
ATOM     10  C   UNL     1      51.211   7.543  17.151  0.00  0.00    +0.000 A 
ATOM     11  N   UNL     1      50.155   6.739  17.504  0.00  0.00    +0.000 N 
ATOM     12  C   UNL     1      49.204   6.326  16.608  0.00  0.00    +0.000 A 
ATOM     13  O   UNL     1      48.305   5.556  16.939  0.00  0.00    +0.000 OA
ATOM     14  C   UNL     1      49.372   6.849  15.264  0.00  0.00    +0.000 A 
ATOM     15  H   UNL     1      50.062   6.392  18.445  0.00  0.00    +0.000 HD
ENDBRANCH   2   5
BRANCH   3  16
ATOM     16  C   UNL     1      44.941   6.063  13.285  0.00  0.00    +0.000 C 
BRANCH  16  17
ATOM     17  C   UNL     1      44.910   5.504  11.887  0.00  0.00    +0.000 A 
ATOM     18  C   UNL     1      45.736   6.045  10.894  0.00  0.00    +0.000 A 
ATOM     19  C   UNL     1      45.756   5.498   9.609  0.00  0.00    +0.000 A 
ATOM     20  C   UNL     1      44.941   4.405   9.285  0.00  0.00    +0.000 A 
ATOM     21  C   UNL     1      44.087   3.888  10.267  0.00  0.00    +0.000 A 
ATOM     22  C   UNL     1      44.063   4.440  11.553  0.00  0.00    +0.000 A 
BRANCH  20  23
ATOM     23  C   UNL     1      44.967   3.810   7.897  0.00  0.00    +0.000 C 
BRANCH  23  24
ATOM     24  C   UNL     1      46.311   3.169   7.476  0.00  0.00    +0.000 C 
ATOM     25  C   UNL     1      46.529   3.244   5.954  0.00  0.00    +0.000 C 
ATOM     26  C   UNL     1      47.611   2.296   5.457  0.00  0.00    +0.000 C 
ATOM     27  O   UNL     1      47.367   0.969   5.913  0.00  0.00    +0.000 OA
ATOM     28  C   UNL     1      47.457   0.890   7.332  0.00  0.00    +0.000 C 
ATOM     29  C   UNL     1      46.354   1.712   7.979  0.00  0.00    +0.000 C 
ENDBRANCH  23  24
ENDBRANCH  20  23
ENDBRANCH  16  17
ENDBRANCH   3  16
TORSDOF 5
ENDMDL
MODEL 4
REMARK VINA RESULT:    -7.145      2.946      3.515
REMARK INTER + INTRA:         -10.275
REMARK INTER:                  -9.335
REMARK INTRA:                  -0.940
REMARK UNBOUND:                -1.042
REMARK  Name = 
REMARK  5 active torsions:
REMARK  status: ('A' for Active; 'I' for Inactive)
REMARK    1  A    between atoms: C_2  and  C_18
REMARK    2  A    between atoms: N_3  and  C_4
REMARK    3  A    between atoms: C_4  and  C_5
REMARK    4  A    between atoms: C_8  and  C_9
REMARK    5  A    between atoms: C_9  and  C_10
REMARK                            x       y       z     vdW  Elec       q    Type
REMARK                         _______ _______ _______ _____ _____    ______ ____
ROOT
ATOM      1  O   UNL     1      46.046   9.274  12.735  0.00  0.00    +0.000 OA
ATOM      2  C   UNL     1      46.638   8.369  13.313  0.00  0.00    +0.000 C 
ATOM      3  N   UNL     1      46.115   7.103  13.418  0.00  0.00    +0.000 N 
ATOM      4  H   UNL     1      46.510   6.455  14.092  0.00  0.00    +0.000 HD
ENDROOT
BRANCH   2   5
ATOM      5  C   UNL     1      47.970   8.573  13.889  0.00  0.00    +0.000 A 
ATOM      6  C   UNL     1      48.100   8.977  15.208  0.00  0.00    +0.000 A 
ATOM      7  S   UNL     1      49.720   9.163  15.708  0.00  0.00    +0.000 S 
ATOM      8  C   UNL     1      50.302   8.666  14.188  0.00  0.00    +0.000 A 
ATOM      9  N   UNL     1      51.637   8.562  13.947  0.00  0.00    +0.000 NA
ATOM     10  C   UNL     1      51.934   8.141  12.763  0.00  0.00    +0.000 A 
ATOM     11  N   UNL     1      51.016   7.824  11.792  0.00  0.00    +0.000 N 
ATOM     12  C   UNL     1      49.664   7.949  11.978  0.00  0.00    +0.000 A 
ATOM     13  O   UNL     1      48.870   7.717  11.068  0.00  0.00    +0.000 OA
ATOM     14  C   UNL     1      49.275   8.394  13.303  0.00  0.00    +0.000 A 
ATOM     15  H   UNL     1      51.315   7.515  10.880  0.00  0.00    +0.000 HD
ENDBRANCH   2   5
BRANCH   3  16
ATOM     16  C   UNL     1      44.776   6.833  12.964  0.00  0.00    +0.000 C 
BRANCH  16  17
ATOM     17  C   UNL     1      44.758   6.047  11.680  0.00  0.00    +0.000 A 
ATOM     18  C   UNL     1      45.809   6.174  10.762  0.00  0.00    +0.000 A 
ATOM     19  C   UNL     1      45.829   5.408   9.594  0.00  0.00    +0.000 A 
ATOM     20  C   UNL     1      44.794   4.508   9.311  0.00  0.00    +0.000 A 
ATOM     21  C   UNL     1      43.725   4.409  10.210  0.00  0.00    +0.000 A 
ATOM     22  C   UNL     1      43.701   5.180  11.377  0.00  0.00    +0.000 A 
BRANCH  20  23
ATOM     23  C   UNL     1      44.819   3.676   8.050  0.00  0.00    +0.000 C 
BRANCH  23  24
ATOM     24  C   UNL     1      46.172   2.995   7.733  0.00  0.00    +0.000 C 
ATOM     25  C   UNL     1      46.569   3.171   6.257  0.00  0.00    +0.000 C 
ATOM     26  C   UNL     1      47.656   2.204   5.810  0.00  0.00    +0.000 C 
ATOM     27  O   UNL     1      47.301   0.862   6.129  0.00  0.00    +0.000 OA
ATOM     28  C   UNL     1      47.222   0.674   7.538  0.00  0.00    +0.000 C 
ATOM     29  C   UNL     1      46.089   1.505   8.121  0.00  0.00    +0.000 C 
ENDBRANCH  23  24
ENDBRANCH  20  23
ENDBRANCH  16  17
ENDBRANCH   3  16
TORSDOF 5
ENDMDL
MODEL 5
REMARK VINA RESULT:    -7.072      2.162      2.951
REMARK INTER + INTRA:         -10.181
REMARK INTER:                  -9.548
REMARK INTRA:                  -0.633
REMARK UNBOUND:                -1.042
REMARK  Name = 
REMARK  5 active torsions:
REMARK  status: ('A' for Active; 'I' for Inactive)
REMARK    1  A    between atoms: C_2  and  C_18
REMARK    2  A    between atoms: N_3  and  C_4
REMARK    3  A    between atoms: C_4  and  C_5
REMARK    4  A    between atoms: C_8  and  C_9
REMARK    5  A    between atoms: C_9  and  C_10
REMARK                            x       y       z     vdW  Elec       q    Type
REMARK                         _______ _______ _______ _____ _____    ______ ____
ROOT
ATOM      1  O   UNL     1      50.323   6.475  15.822  0.00  0.00    +0.000 OA
ATOM      2  C   UNL     1      49.158   6.660  16.158  0.00  0.00    +0.000 C 
ATOM      3  N   UNL     1      48.124   6.640  15.253  0.00  0.00    +0.000 N 
ATOM      4  H   UNL     1      47.223   7.024  15.518  0.00  0.00    +0.000 HD
ENDROOT
BRANCH   2   5
ATOM      5  C   UNL     1      48.792   6.868  17.561  0.00  0.00    +0.000 A 
ATOM      6  C   UNL     1      48.394   8.122  17.996  0.00  0.00    +0.000 A 
ATOM      7  S   UNL     1      48.005   8.178  19.655  0.00  0.00    +0.000 S 
ATOM      8  C   UNL     1      48.314   6.515  19.838  0.00  0.00    +0.000 A 
ATOM      9  N   UNL     1      48.131   5.894  21.035  0.00  0.00    +0.000 NA
ATOM     10  C   UNL     1      48.370   4.625  21.020  0.00  0.00    +0.000 A 
ATOM     11  N   UNL     1      48.786   3.920  19.917  0.00  0.00    +0.000 N 
ATOM     12  C   UNL     1      49.017   4.510  18.702  0.00  0.00    +0.000 A 
ATOM     13  O   UNL     1      49.449   3.863  17.750  0.00  0.00    +0.000 OA
ATOM     14  C   UNL     1      48.738   5.933  18.657  0.00  0.00    +0.000 A 
ATOM     15  H   UNL     1      48.970   2.931  19.976  0.00  0.00    +0.000 HD
ENDBRANCH   2   5
BRANCH   3  16
ATOM     16  C   UNL     1      48.397   6.535  13.844  0.00  0.00    +0.000 C 
BRANCH  16  17
ATOM     17  C   UNL     1      47.188   6.096  13.061  0.00  0.00    +0.000 A 
ATOM     18  C   UNL     1      46.609   6.957  12.120  0.00  0.00    +0.000 A 
ATOM     19  C   UNL     1      45.521   6.539  11.349  0.00  0.00    +0.000 A 
ATOM     20  C   UNL     1      44.982   5.256  11.509  0.00  0.00    +0.000 A 
ATOM     21  C   UNL     1      45.537   4.410  12.477  0.00  0.00    +0.000 A 
ATOM     22  C   UNL     1      46.622   4.829  13.253  0.00  0.00    +0.000 A 
BRANCH  20  23
ATOM     23  C   UNL     1      43.809   4.803  10.671  0.00  0.00    +0.000 C 
BRANCH  23  24
ATOM     24  C   UNL     1      44.171   3.946   9.434  0.00  0.00    +0.000 C 
ATOM     25  C   UNL     1      44.403   2.471   9.808  0.00  0.00    +0.000 C 
ATOM     26  C   UNL     1      45.138   1.689   8.729  0.00  0.00    +0.000 C 
ATOM     27  O   UNL     1      46.337   2.356   8.350  0.00  0.00    +0.000 OA
ATOM     28  C   UNL     1      46.056   3.612   7.742  0.00  0.00    +0.000 C 
ATOM     29  C   UNL     1      45.409   4.554   8.746  0.00  0.00    +0.000 C 
ENDBRANCH  23  24
ENDBRANCH  20  23
ENDBRANCH  16  17
ENDBRANCH   3  16
TORSDOF 5
ENDMDL
MODEL 6
REMARK VINA RESULT:    -7.042      2.151      3.768
REMARK INTER + INTRA:         -10.142
REMARK INTER:                  -9.555
REMARK INTRA:                  -0.586
REMARK UNBOUND:                -1.042
REMARK  Name = 
REMARK  5 active torsions:
REMARK  status: ('A' for Active; 'I' for Inactive)
REMARK    1  A    between atoms: C_2  and  C_18
REMARK    2  A    between atoms: N_3  and  C_4
REMARK    3  A    between atoms: C_4  and  C_5
REMARK    4  A    between atoms: C_8  and  C_9
REMARK    5  A    between atoms: C_9  and  C_10
REMARK                            x       y       z     vdW  Elec       q    Type
REMARK                         _______ _______ _______ _____ _____    ______ ____
ROOT
ATOM      1  O   UNL     1      48.622   4.930  16.174  0.00  0.00    +0.000 OA
ATOM      2  C   UNL     1      48.309   5.892  15.481  0.00  0.00    +0.000 C 
ATOM      3  N   UNL     1      47.253   5.848  14.603  0.00  0.00    +0.000 N 
ATOM      4  H   UNL     1      47.171   6.564  13.888  0.00  0.00    +0.000 HD
ENDROOT
BRANCH   2   5
ATOM      5  C   UNL     1      49.019   7.170  15.584  0.00  0.00    +0.000 A 
ATOM      6  C   UNL     1      49.137   7.801  16.812  0.00  0.00    +0.000 A 
ATOM      7  S   UNL     1      49.994   9.274  16.743  0.00  0.00    +0.000 S 
ATOM      8  C   UNL     1      50.275   9.093  15.074  0.00  0.00    +0.000 A 
ATOM      9  N   UNL     1      51.004  10.010  14.381  0.00  0.00    +0.000 NA
ATOM     10  C   UNL     1      51.166   9.728  13.131  0.00  0.00    +0.000 A 
ATOM     11  N   UNL     1      50.655   8.617  12.507  0.00  0.00    +0.000 N 
ATOM     12  C   UNL     1      49.885   7.687  13.156  0.00  0.00    +0.000 A 
ATOM     13  O   UNL     1      49.391   6.735  12.555  0.00  0.00    +0.000 OA
ATOM     14  C   UNL     1      49.694   7.943  14.572  0.00  0.00    +0.000 A 
ATOM     15  H   UNL     1      50.805   8.463  11.522  0.00  0.00    +0.000 HD
ENDBRANCH   2   5
BRANCH   3  16
ATOM     16  C   UNL     1      46.558   4.611  14.367  0.00  0.00    +0.000 C 
BRANCH  16  17
ATOM     17  C   UNL     1      46.021   4.518  12.963  0.00  0.00    +0.000 A 
ATOM     18  C   UNL     1      45.402   3.341  12.523  0.00  0.00    +0.000 A 
ATOM     19  C   UNL     1      44.851   3.264  11.241  0.00  0.00    +0.000 A 
ATOM     20  C   UNL     1      44.916   4.357  10.368  0.00  0.00    +0.000 A 
ATOM     21  C   UNL     1      45.567   5.520  10.795  0.00  0.00    +0.000 A 
ATOM     22  C   UNL     1      46.124   5.597  12.076  0.00  0.00    +0.000 A 
BRANCH  20  23
ATOM     23  C   UNL     1      44.314   4.275   8.984  0.00  0.00    +0.000 C 
BRANCH  23  24
ATOM     24  C   UNL     1      45.008   3.283   8.019  0.00  0.00    +0.000 C 
ATOM     25  C   UNL     1      45.390   1.970   8.726  0.00  0.00    +0.000 C 
ATOM     26  C   UNL     1      46.408   1.148   7.949  0.00  0.00    +0.000 C 
ATOM     27  O   UNL     1      47.541   1.939   7.606  0.00  0.00    +0.000 OA
ATOM     28  C   UNL     1      47.183   2.988   6.712  0.00  0.00    +0.000 C 
ATOM     29  C   UNL     1      46.240   3.967   7.395  0.00  0.00    +0.000 C 
ENDBRANCH  23  24
ENDBRANCH  20  23
ENDBRANCH  16  17
ENDBRANCH   3  16
TORSDOF 5
ENDMDL
MODEL 7
REMARK VINA RESULT:    -6.733      2.760      3.737
REMARK INTER + INTRA:          -9.743
REMARK INTER:                  -9.022
REMARK INTRA:                  -0.721
REMARK UNBOUND:                -1.042
REMARK  Name = 
REMARK  5 active torsions:
REMARK  status: ('A' for Active; 'I' for Inactive)
REMARK    1  A    between atoms: C_2  and  C_18
REMARK    2  A    between atoms: N_3  and  C_4
REMARK    3  A    between atoms: C_4  and  C_5
REMARK    4  A    between atoms: C_8  and  C_9
REMARK    5  A    between atoms: C_9  and  C_10
REMARK                            x       y       z     vdW  Elec       q    Type
REMARK                         _______ _______ _______ _____ _____    ______ ____
ROOT
ATOM      1  O   UNL     1      49.617   5.062  16.412  0.00  0.00    +0.000 OA
ATOM      2  C   UNL     1      48.667   5.829  16.531  0.00  0.00    +0.000 C 
ATOM      3  N   UNL     1      47.934   6.258  15.450  0.00  0.00    +0.000 N 
ATOM      4  H   UNL     1      47.321   7.061  15.552  0.00  0.00    +0.000 HD
ENDROOT
BRANCH   2   5
ATOM      5  C   UNL     1      48.226   6.301  17.846  0.00  0.00    +0.000 A 
ATOM      6  C   UNL     1      48.001   5.394  18.869  0.00  0.00    +0.000 A 
ATOM      7  S   UNL     1      47.495   6.120  20.327  0.00  0.00    +0.000 S 
ATOM      8  C   UNL     1      47.604   7.678  19.650  0.00  0.00    +0.000 A 
ATOM      9  N   UNL     1      47.339   8.787  20.394  0.00  0.00    +0.000 NA
ATOM     10  C   UNL     1      47.495   9.902  19.761  0.00  0.00    +0.000 A 
ATOM     11  N   UNL     1      47.883  10.010  18.449  0.00  0.00    +0.000 N 
ATOM     12  C   UNL     1      48.125   8.922  17.652  0.00  0.00    +0.000 A 
ATOM     13  O   UNL     1      48.410   9.050  16.464  0.00  0.00    +0.000 OA
ATOM     14  C   UNL     1      47.989   7.641  18.322  0.00  0.00    +0.000 A 
ATOM     15  H   UNL     1      47.971  10.913  18.009  0.00  0.00    +0.000 HD
ENDBRANCH   2   5
BRANCH   3  16
ATOM     16  C   UNL     1      48.349   5.922  14.114  0.00  0.00    +0.000 C 
BRANCH  16  17
ATOM     17  C   UNL     1      47.179   5.675  13.200  0.00  0.00    +0.000 A 
ATOM     18  C   UNL     1      46.960   6.511  12.096  0.00  0.00    +0.000 A 
ATOM     19  C   UNL     1      45.910   6.258  11.210  0.00  0.00    +0.000 A 
ATOM     20  C   UNL     1      45.049   5.172  11.413  0.00  0.00    +0.000 A 
ATOM     21  C   UNL     1      45.244   4.360  12.537  0.00  0.00    +0.000 A 
ATOM     22  C   UNL     1      46.292   4.616  13.428  0.00  0.00    +0.000 A 
BRANCH  20  23
ATOM     23  C   UNL     1      43.917   4.895  10.452  0.00  0.00    +0.000 C 
BRANCH  23  24
ATOM     24  C   UNL     1      44.262   3.949   9.277  0.00  0.00    +0.000 C 
ATOM     25  C   UNL     1      44.489   2.503   9.755  0.00  0.00    +0.000 C 
ATOM     26  C   UNL     1      45.209   1.640   8.729  0.00  0.00    +0.000 C 
ATOM     27  O   UNL     1      46.408   2.270   8.292  0.00  0.00    +0.000 OA
ATOM     28  C   UNL     1      46.128   3.480   7.596  0.00  0.00    +0.000 C 
ATOM     29  C   UNL     1      45.496   4.497   8.535  0.00  0.00    +0.000 C 
ENDBRANCH  23  24
ENDBRANCH  20  23
ENDBRANCH  16  17
ENDBRANCH   3  16
TORSDOF 5
ENDMDL
MODEL 8
REMARK VINA RESULT:    -6.568      2.866      3.775
REMARK INTER + INTRA:          -9.529
REMARK INTER:                  -8.314
REMARK INTRA:                  -1.215
REMARK UNBOUND:                -1.042
REMARK  Name = 
REMARK  5 active torsions:
REMARK  status: ('A' for Active; 'I' for Inactive)
REMARK    1  A    between atoms: C_2  and  C_18
REMARK    2  A    between atoms: N_3  and  C_4
REMARK    3  A    between atoms: C_4  and  C_5
REMARK    4  A    between atoms: C_8  and  C_9
REMARK    5  A    between atoms: C_9  and  C_10
REMARK                            x       y       z     vdW  Elec       q    Type
REMARK                         _______ _______ _______ _____ _____    ______ ____
ROOT
ATOM      1  O   UNL     1      48.719   8.687  16.212  0.00  0.00    +0.000 OA
ATOM      2  C   UNL     1      49.009   7.528  15.936  0.00  0.00    +0.000 C 
ATOM      3  N   UNL     1      49.254   7.122  14.646  0.00  0.00    +0.000 N 
ATOM      4  H   UNL     1      49.255   6.131  14.429  0.00  0.00    +0.000 HD
ENDROOT
BRANCH   2   5
ATOM      5  C   UNL     1      49.156   6.509  16.979  0.00  0.00    +0.000 A 
ATOM      6  C   UNL     1      49.948   6.761  18.088  0.00  0.00    +0.000 A 
ATOM      7  S   UNL     1      50.002   5.467  19.197  0.00  0.00    +0.000 S 
ATOM      8  C   UNL     1      48.931   4.542  18.250  0.00  0.00    +0.000 A 
ATOM      9  N   UNL     1      48.518   3.311  18.658  0.00  0.00    +0.000 NA
ATOM     10  C   UNL     1      47.681   2.739  17.859  0.00  0.00    +0.000 A 
ATOM     11  N   UNL     1      47.225   3.281  16.683  0.00  0.00    +0.000 N 
ATOM     12  C   UNL     1      47.641   4.501  16.216  0.00  0.00    +0.000 A 
ATOM     13  O   UNL     1      47.263   4.932  15.129  0.00  0.00    +0.000 OA
ATOM     14  C   UNL     1      48.564   5.200  17.090  0.00  0.00    +0.000 A 
ATOM     15  H   UNL     1      46.582   2.774  16.095  0.00  0.00    +0.000 HD
ENDBRANCH   2   5
BRANCH   3  16
ATOM     16  C   UNL     1      49.043   8.029  13.549  0.00  0.00    +0.000 C 
BRANCH  16  17
ATOM     17  C   UNL     1      47.716   7.805  12.873  0.00  0.00    +0.000 A 
ATOM     18  C   UNL     1      47.576   6.792  11.916  0.00  0.00    +0.000 A 
ATOM     19  C   UNL     1      46.337   6.539  11.323  0.00  0.00    +0.000 A 
ATOM     20  C   UNL     1      45.212   7.301  11.666  0.00  0.00    +0.000 A 
ATOM     21  C   UNL     1      45.360   8.338  12.594  0.00  0.00    +0.000 A 
ATOM     22  C   UNL     1      46.602   8.595  13.184  0.00  0.00    +0.000 A 
BRANCH  20  23
ATOM     23  C   UNL     1      43.870   7.024  11.028  0.00  0.00    +0.000 C 
BRANCH  23  24
ATOM     24  C   UNL     1      43.243   5.652  11.376  0.00  0.00    +0.000 C 
ATOM     25  C   UNL     1      43.460   5.282  12.854  0.00  0.00    +0.000 C 
ATOM     26  C   UNL     1      43.227   3.806  13.141  0.00  0.00    +0.000 C 
ATOM     27  O   UNL     1      43.985   2.992  12.252  0.00  0.00    +0.000 OA
ATOM     28  C   UNL     1      43.551   3.160  10.907  0.00  0.00    +0.000 C 
ATOM     29  C   UNL     1      43.825   4.580  10.435  0.00  0.00    +0.000 C 
ENDBRANCH  23  24
ENDBRANCH  20  23
ENDBRANCH  16  17
ENDBRANCH   3  16
TORSDOF 5
ENDMDL
MODEL 9
REMARK VINA RESULT:    -6.459      4.035      8.735
REMARK INTER + INTRA:          -9.389
REMARK INTER:                  -8.602
REMARK INTRA:                  -0.787
REMARK UNBOUND:                -1.042
REMARK  Name = 
REMARK  5 active torsions:
REMARK  status: ('A' for Active; 'I' for Inactive)
REMARK    1  A    between atoms: C_2  and  C_18
REMARK    2  A    between atoms: N_3  and  C_4
REMARK    3  A    between atoms: C_4  and  C_5
REMARK    4  A    between atoms: C_8  and  C_9
REMARK    5  A    between atoms: C_9  and  C_10
REMARK                            x       y       z     vdW  Elec       q    Type
REMARK                         _______ _______ _______ _____ _____    ______ ____
ROOT
ATOM      1  O   UNL     1      47.278   3.142  13.992  0.00  0.00    +0.000 OA
ATOM      2  C   UNL     1      46.848   4.183  14.477  0.00  0.00    +0.000 C 
ATOM      3  N   UNL     1      46.858   4.418  15.831  0.00  0.00    +0.000 N 
ATOM      4  H   UNL     1      46.290   5.169  16.210  0.00  0.00    +0.000 HD
ENDROOT
BRANCH   2   5
ATOM      5  C   UNL     1      46.338   5.266  13.632  0.00  0.00    +0.000 A 
ATOM      6  C   UNL     1      47.106   6.399  13.416  0.00  0.00    +0.000 A 
ATOM      7  S   UNL     1      46.354   7.551  12.408  0.00  0.00    +0.000 S 
ATOM      8  C   UNL     1      44.994   6.552  12.191  0.00  0.00    +0.000 A 
ATOM      9  N   UNL     1      43.965   6.932  11.385  0.00  0.00    +0.000 NA
ATOM     10  C   UNL     1      43.016   6.062  11.286  0.00  0.00    +0.000 A 
ATOM     11  N   UNL     1      42.997   4.848  11.929  0.00  0.00    +0.000 N 
ATOM     12  C   UNL     1      43.993   4.440  12.777  0.00  0.00    +0.000 A 
ATOM     13  O   UNL     1      43.917   3.375  13.386  0.00  0.00    +0.000 OA
ATOM     14  C   UNL     1      45.098   5.371  12.903  0.00  0.00    +0.000 A 
ATOM     15  H   UNL     1      42.216   4.219  11.821  0.00  0.00    +0.000 HD
ENDBRANCH   2   5
BRANCH   3  16
ATOM     16  C   UNL     1      47.254   3.377  16.743  0.00  0.00    +0.000 C 
BRANCH  16  17
ATOM     17  C   UNL     1      48.612   3.632  17.342  0.00  0.00    +0.000 A 
ATOM     18  C   UNL     1      48.788   4.663  18.274  0.00  0.00    +0.000 A 
ATOM     19  C   UNL     1      50.030   4.873  18.878  0.00  0.00    +0.000 A 
ATOM     20  C   UNL     1      51.127   4.063  18.555  0.00  0.00    +0.000 A 
ATOM     21  C   UNL     1      50.961   3.057  17.595  0.00  0.00    +0.000 A 
ATOM     22  C   UNL     1      49.718   2.851  16.986  0.00  0.00    +0.000 A 
BRANCH  20  23
ATOM     23  C   UNL     1      52.469   4.286  19.212  0.00  0.00    +0.000 C 
BRANCH  23  24
ATOM     24  C   UNL     1      53.447   5.195  18.429  0.00  0.00    +0.000 C 
ATOM     25  C   UNL     1      52.701   6.217  17.552  0.00  0.00    +0.000 C 
ATOM     26  C   UNL     1      53.583   6.845  16.483  0.00  0.00    +0.000 C 
ATOM     27  O   UNL     1      54.243   5.841  15.719  0.00  0.00    +0.000 OA
ATOM     28  C   UNL     1      55.148   5.094  16.525  0.00  0.00    +0.000 C 
ATOM     29  C   UNL     1      54.390   4.312  17.587  0.00  0.00    +0.000 C 
ENDBRANCH  23  24
ENDBRANCH  20  23
ENDBRANCH  16  17
ENDBRANCH   3  16
TORSDOF 5
ENDMDL
