MODEL 1
REMARK VINA RESULT:    -7.967      0.000      0.000
REMARK INTER + INTRA:         -10.483
REMARK INTER:                  -9.830
REMARK INTRA:                  -0.653
REMARK UNBOUND:                -0.653
REMARK  Name = 
REMARK  4 active torsions:
REMARK  status: ('A' for Active; 'I' for Inactive)
REMARK    1  A    between atoms: C_2  and  C_4
REMARK    2  A    between atoms: C_8  and  N_9
REMARK    3  A    between atoms: N_9  and  C_10
REMARK    4  A    between atoms: C_10  and  C_11
REMARK                            x       y       z     vdW  Elec       q    Type
REMARK                         _______ _______ _______ _____ _____    ______ ____
ROOT
ATOM      1  N   UNL     1      44.241   4.831   9.200  0.00  0.00    +0.000 N 
ATOM      2  H   UNL     1      44.726   5.681   8.922  0.00  0.00    +0.000 HD
ENDROOT
BRANCH   1   7
ATOM      3  C   UNL     1      46.475   2.597   7.222  0.00  0.00    +0.000 A 
ATOM      4  C   UNL     1      46.224   1.351   7.805  0.00  0.00    +0.000 A 
ATOM      5  C   UNL     1      45.304   1.256   8.843  0.00  0.00    +0.000 A 
ATOM      6  C   UNL     1      44.654   2.402   9.313  0.00  0.00    +0.000 A 
ATOM      7  C   UNL     1      44.925   3.673   8.787  0.00  0.00    +0.000 A 
ATOM      8  C   UNL     1      45.821   3.744   7.707  0.00  0.00    +0.000 A 
BRANCH   3  10
ATOM      9  N   UNL     1      48.772   2.496   6.405  0.00  0.00    +0.000 N 
ATOM     10  C   UNL     1      47.456   2.742   6.115  0.00  0.00    +0.000 C 
ATOM     11  O   UNL     1      47.110   3.046   4.982  0.00  0.00    +0.000 OA
ATOM     12  H   UNL     1      49.415   2.514   5.626  0.00  0.00    +0.000 HD
ATOM     13  H   UNL     1      49.063   2.016   7.243  0.00  0.00    +0.000 HD
ENDBRANCH   3  10
ENDBRANCH   1   7
BRANCH   1  14
ATOM     14  C   UNL     1      43.765   4.891  10.581  0.00  0.00    +0.000 C 
BRANCH  14  15
ATOM     15  C   UNL     1      44.913   5.028  11.553  0.00  0.00    +0.000 A 
ATOM     16  C   UNL     1      45.135   4.090  12.559  0.00  0.00    +0.000 A 
ATOM     17  C   UNL     1      46.211   4.288  13.408  0.00  0.00    +0.000 A 
ATOM     18  N   UNL     1      47.075   5.323  13.312  0.00  0.00    +0.000 NA
ATOM     19  C   UNL     1      46.871   6.241  12.345  0.00  0.00    +0.000 A 
ATOM     20  N   UNL     1      47.786   7.266  12.176  0.00  0.00    +0.000 N 
ATOM     21  C   UNL     1      49.186   6.992  12.477  0.00  0.00    +0.000 C 
ATOM     22  C   UNL     1      49.647   7.727  13.731  0.00  0.00    +0.000 C 
ATOM     23  C   UNL     1      49.325   9.214  13.636  0.00  0.00    +0.000 C 
ATOM     24  C   UNL     1      47.830   9.416  13.394  0.00  0.00    +0.000 C 
ATOM     25  C   UNL     1      47.343   8.657  12.156  0.00  0.00    +0.000 C 
ATOM     26  C   UNL     1      45.793   6.118  11.465  0.00  0.00    +0.000 A 
ENDBRANCH  14  15
ENDBRANCH   1  14
TORSDOF 4
ENDMDL
MODEL 2
REMARK VINA RESULT:    -7.694      2.115      3.242
REMARK INTER + INTRA:         -10.146
REMARK INTER:                  -9.536
REMARK INTRA:                  -0.609
REMARK UNBOUND:                -0.653
REMARK  Name = 
REMARK  4 active torsions:
REMARK  status: ('A' for Active; 'I' for Inactive)
REMARK    1  A    between atoms: C_2  and  C_4
REMARK    2  A    between atoms: C_8  and  N_9
REMARK    3  A    between atoms: N_9  and  C_10
REMARK    4  A    between atoms: C_10  and  C_11
REMARK                            x       y       z     vdW  Elec       q    Type
REMARK                         _______ _______ _______ _____ _____    ______ ____
ROOT
ATOM      1  N   UNL     1      45.297   5.754   9.940  0.00  0.00    +0.000 N 
ATOM      2  H   UNL     1      46.058   6.371   9.664  0.00  0.00    +0.000 HD
ENDROOT
BRANCH   1   7
ATOM      3  C   UNL     1      46.282   3.027   7.597  0.00  0.00    +0.000 A 
ATOM      4  C   UNL     1      45.640   1.920   8.159  0.00  0.00    +0.000 A 
ATOM      5  C   UNL     1      44.871   2.086   9.305  0.00  0.00    +0.000 A 
ATOM      6  C   UNL     1      44.762   3.347   9.902  0.00  0.00    +0.000 A 
ATOM      7  C   UNL     1      45.439   4.465   9.394  0.00  0.00    +0.000 A 
ATOM      8  C   UNL     1      46.172   4.289   8.209  0.00  0.00    +0.000 A 
BRANCH   3  10
ATOM      9  N   UNL     1      48.465   2.705   6.553  0.00  0.00    +0.000 N 
ATOM     10  C   UNL     1      47.118   2.890   6.376  0.00  0.00    +0.000 C 
ATOM     11  O   UNL     1      46.632   2.919   5.254  0.00  0.00    +0.000 OA
ATOM     12  H   UNL     1      49.007   2.527   5.720  0.00  0.00    +0.000 HD
ATOM     13  H   UNL     1      48.863   2.436   7.440  0.00  0.00    +0.000 HD
ENDBRANCH   3  10
ENDBRANCH   1   7
BRANCH   1  14
ATOM     14  C   UNL     1      44.980   5.866  11.363  0.00  0.00    +0.000 C 
BRANCH  14  15
ATOM     15  C   UNL     1      46.232   5.994  12.197  0.00  0.00    +0.000 A 
ATOM     16  C   UNL     1      47.342   6.705  11.747  0.00  0.00    +0.000 A 
ATOM     17  C   UNL     1      48.450   6.775  12.574  0.00  0.00    +0.000 A 
ATOM     18  N   UNL     1      48.519   6.216  13.803  0.00  0.00    +0.000 NA
ATOM     19  C   UNL     1      47.453   5.521  14.251  0.00  0.00    +0.000 A 
ATOM     20  N   UNL     1      47.469   5.006  15.536  0.00  0.00    +0.000 N 
ATOM     21  C   UNL     1      48.198   5.743  16.562  0.00  0.00    +0.000 C 
ATOM     22  C   UNL     1      49.457   5.004  16.999  0.00  0.00    +0.000 C 
ATOM     23  C   UNL     1      49.130   3.569  17.398  0.00  0.00    +0.000 C 
ATOM     24  C   UNL     1      48.436   2.846  16.245  0.00  0.00    +0.000 C 
ATOM     25  C   UNL     1      47.187   3.593  15.770  0.00  0.00    +0.000 C 
ATOM     26  C   UNL     1      46.308   5.390  13.463  0.00  0.00    +0.000 A 
ENDBRANCH  14  15
ENDBRANCH   1  14
TORSDOF 4
ENDMDL
MODEL 3
REMARK VINA RESULT:    -7.301      1.863      2.562
REMARK INTER + INTRA:          -9.662
REMARK INTER:                  -9.060
REMARK INTRA:                  -0.601
REMARK UNBOUND:                -0.653
REMARK  Name = 
REMARK  4 active torsions:
REMARK  status: ('A' for Active; 'I' for Inactive)
REMARK    1  A    between atoms: C_2  and  C_4
REMARK    2  A    between atoms: C_8  and  N_9
REMARK    3  A    between atoms: N_9  and  C_10
REMARK    4  A    between atoms: C_10  and  C_11
REMARK                            x       y       z     vdW  Elec       q    Type
REMARK                         _______ _______ _______ _____ _____    ______ ____
ROOT
ATOM      1  N   UNL     1      44.704   4.972   9.051  0.00  0.00    +0.000 N 
ATOM      2  H   UNL     1      44.352   5.484   8.246  0.00  0.00    +0.000 HD
ENDROOT
BRANCH   1   7
ATOM      3  C   UNL     1      46.612   2.382   7.167  0.00  0.00    +0.000 A 
ATOM      4  C   UNL     1      46.222   1.209   7.819  0.00  0.00    +0.000 A 
ATOM      5  C   UNL     1      45.317   1.280   8.872  0.00  0.00    +0.000 A 
ATOM      6  C   UNL     1      44.820   2.520   9.289  0.00  0.00    +0.000 A 
ATOM      7  C   UNL     1      45.234   3.719   8.692  0.00  0.00    +0.000 A 
ATOM      8  C   UNL     1      46.112   3.624   7.599  0.00  0.00    +0.000 A 
BRANCH   3  10
ATOM      9  N   UNL     1      47.450   3.305   5.069  0.00  0.00    +0.000 N 
ATOM     10  C   UNL     1      47.582   2.349   6.043  0.00  0.00    +0.000 C 
ATOM     11  O   UNL     1      48.479   1.518   5.988  0.00  0.00    +0.000 OA
ATOM     12  H   UNL     1      48.167   3.323   4.358  0.00  0.00    +0.000 HD
ATOM     13  H   UNL     1      46.894   4.136   5.198  0.00  0.00    +0.000 HD
ENDBRANCH   3  10
ENDBRANCH   1   7
BRANCH   1  14
ATOM     14  C   UNL     1      45.492   5.819   9.945  0.00  0.00    +0.000 C 
BRANCH  14  15
ATOM     15  C   UNL     1      45.306   5.419  11.389  0.00  0.00    +0.000 A 
ATOM     16  C   UNL     1      44.053   5.093  11.902  0.00  0.00    +0.000 A 
ATOM     17  C   UNL     1      43.968   4.734  13.237  0.00  0.00    +0.000 A 
ATOM     18  N   UNL     1      45.028   4.658  14.073  0.00  0.00    +0.000 NA
ATOM     19  C   UNL     1      46.248   4.974  13.592  0.00  0.00    +0.000 A 
ATOM     20  N   UNL     1      47.359   4.829  14.405  0.00  0.00    +0.000 N 
ATOM     21  C   UNL     1      47.347   3.759  15.396  0.00  0.00    +0.000 C 
ATOM     22  C   UNL     1      47.247   4.308  16.815  0.00  0.00    +0.000 C 
ATOM     23  C   UNL     1      48.323   5.359  17.066  0.00  0.00    +0.000 C 
ATOM     24  C   UNL     1      48.219   6.478  16.031  0.00  0.00    +0.000 C 
ATOM     25  C   UNL     1      48.284   5.941  14.598  0.00  0.00    +0.000 C 
ATOM     26  C   UNL     1      46.407   5.365  12.260  0.00  0.00    +0.000 A 
ENDBRANCH  14  15
ENDBRANCH   1  14
TORSDOF 4
ENDMDL
MODEL 4
REMARK VINA RESULT:    -7.211      1.441      2.246
REMARK INTER + INTRA:          -9.551
REMARK INTER:                  -9.133
REMARK INTRA:                  -0.418
REMARK UNBOUND:                -0.653
REMARK  Name = 
REMARK  4 active torsions:
REMARK  status: ('A' for Active; 'I' for Inactive)
REMARK    1  A    between atoms: C_2  and  C_4
REMARK    2  A    between atoms: C_8  and  N_9
REMARK    3  A    between atoms: N_9  and  C_10
REMARK    4  A    between atoms: C_10  and  C_11
REMARK                            x       y       z     vdW  Elec       q    Type
REMARK                         _______ _______ _______ _____ _____    ______ ____
ROOT
ATOM      1  N   UNL     1      45.053   5.390   9.461  0.00  0.00    +0.000 N 
ATOM      2  H   UNL     1      45.745   6.057   9.127  0.00  0.00    +0.000 HD
ENDROOT
BRANCH   1   7
ATOM      3  C   UNL     1      46.501   2.564   7.508  0.00  0.00    +0.000 A 
ATOM      4  C   UNL     1      45.868   1.461   8.088  0.00  0.00    +0.000 A 
ATOM      5  C   UNL     1      44.951   1.660   9.114  0.00  0.00    +0.000 A 
ATOM      6  C   UNL     1      44.686   2.954   9.578  0.00  0.00    +0.000 A 
ATOM      7  C   UNL     1      45.346   4.075   9.055  0.00  0.00    +0.000 A 
ATOM      8  C   UNL     1      46.232   3.860   7.986  0.00  0.00    +0.000 A 
BRANCH   3  10
ATOM      9  N   UNL     1      47.308   3.137   5.277  0.00  0.00    +0.000 N 
ATOM     10  C   UNL     1      47.490   2.392   6.413  0.00  0.00    +0.000 C 
ATOM     11  O   UNL     1      48.446   1.635   6.519  0.00  0.00    +0.000 OA
ATOM     12  H   UNL     1      48.034   3.075   4.578  0.00  0.00    +0.000 HD
ATOM     13  H   UNL     1      46.691   3.934   5.245  0.00  0.00    +0.000 HD
ENDBRANCH   3  10
ENDBRANCH   1   7
BRANCH   1  14
ATOM     14  C   UNL     1      44.699   5.613  10.862  0.00  0.00    +0.000 C 
BRANCH  14  15
ATOM     15  C   UNL     1      45.350   6.864  11.402  0.00  0.00    +0.000 A 
ATOM     16  C   UNL     1      44.645   8.058  11.531  0.00  0.00    +0.000 A 
ATOM     17  C   UNL     1      45.316   9.159  12.035  0.00  0.00    +0.000 A 
ATOM     18  N   UNL     1      46.607   9.146  12.434  0.00  0.00    +0.000 NA
ATOM     19  C   UNL     1      47.305   7.998  12.311  0.00  0.00    +0.000 A 
ATOM     20  N   UNL     1      48.604   7.938  12.784  0.00  0.00    +0.000 N 
ATOM     21  C   UNL     1      48.948   8.745  13.949  0.00  0.00    +0.000 C 
ATOM     22  C   UNL     1      49.876   9.897  13.581  0.00  0.00    +0.000 C 
ATOM     23  C   UNL     1      51.091   9.389  12.813  0.00  0.00    +0.000 C 
ATOM     24  C   UNL     1      50.646   8.620  11.571  0.00  0.00    +0.000 C 
ATOM     25  C   UNL     1      49.685   7.478  11.918  0.00  0.00    +0.000 C 
ATOM     26  C   UNL     1      46.699   6.852  11.790  0.00  0.00    +0.000 A 
ENDBRANCH  14  15
ENDBRANCH   1  14
TORSDOF 4
ENDMDL
MODEL 5
REMARK VINA RESULT:    -6.892      2.839      4.691
REMARK INTER + INTRA:          -9.157
REMARK INTER:                  -8.668
REMARK INTRA:                  -0.489
REMARK UNBOUND:                -0.653
REMARK  Name = 
REMARK  4 active torsions:
REMARK  status: ('A' for Active; 'I' for Inactive)
REMARK    1  A    between atoms: C_2  and  C_4
REMARK    2  A    between atoms: C_8  and  N_9
REMARK    3  A    between atoms: N_9  and  C_10
REMARK    4  A    between atoms: C_10  and  C_11
REMARK                            x       y       z     vdW  Elec       q    Type
REMARK                         _______ _______ _______ _____ _____    ______ ____
ROOT
ATOM      1  N   UNL     1      45.342   6.591  12.126  0.00  0.00    +0.000 N 
ATOM      2  H   UNL     1      44.712   7.325  11.809  0.00  0.00    +0.000 HD
ENDROOT
BRANCH   1   7
ATOM      3  C   UNL     1      44.419   3.433  10.375  0.00  0.00    +0.000 A 
ATOM      4  C   UNL     1      43.647   2.783  11.343  0.00  0.00    +0.000 A 
ATOM      5  C   UNL     1      43.424   3.403  12.568  0.00  0.00    +0.000 A 
ATOM      6  C   UNL     1      43.988   4.655  12.835  0.00  0.00    +0.000 A 
ATOM      7  C   UNL     1      44.812   5.307  11.906  0.00  0.00    +0.000 A 
ATOM      8  C   UNL     1      44.987   4.688  10.656  0.00  0.00    +0.000 A 
BRANCH   3  10
ATOM      9  N   UNL     1      44.371   3.527   7.937  0.00  0.00    +0.000 N 
ATOM     10  C   UNL     1      44.685   2.801   9.057  0.00  0.00    +0.000 C 
ATOM     11  O   UNL     1      45.184   1.688   8.963  0.00  0.00    +0.000 OA
ATOM     12  H   UNL     1      44.637   3.121   7.050  0.00  0.00    +0.000 HD
ATOM     13  H   UNL     1      44.192   4.519   7.966  0.00  0.00    +0.000 HD
ENDBRANCH   3  10
ENDBRANCH   1   7
BRANCH   1  14
ATOM     14  C   UNL     1      46.727   6.840  11.729  0.00  0.00    +0.000 C 
BRANCH  14  15
ATOM     15  C   UNL     1      47.666   6.724  12.905  0.00  0.00    +0.000 A 
ATOM     16  C   UNL     1      48.852   7.451  12.969  0.00  0.00    +0.000 A 
ATOM     17  C   UNL     1      49.657   7.288  14.084  0.00  0.00    +0.000 A 
ATOM     18  N   UNL     1      49.357   6.483  15.128  0.00  0.00    +0.000 NA
ATOM     19  C   UNL     1      48.214   5.769  15.079  0.00  0.00    +0.000 A 
ATOM     20  N   UNL     1      47.846   4.998  16.168  0.00  0.00    +0.000 N 
ATOM     21  C   UNL     1      48.221   5.466  17.497  0.00  0.00    +0.000 C 
ATOM     22  C   UNL     1      49.297   4.584  18.121  0.00  0.00    +0.000 C 
ATOM     23  C   UNL     1      48.882   3.117  18.087  0.00  0.00    +0.000 C 
ATOM     24  C   UNL     1      48.578   2.689  16.653  0.00  0.00    +0.000 C 
ATOM     25  C   UNL     1      47.522   3.585  15.999  0.00  0.00    +0.000 C 
ATOM     26  C   UNL     1      47.362   5.867  13.976  0.00  0.00    +0.000 A 
ENDBRANCH  14  15
ENDBRANCH   1  14
TORSDOF 4
ENDMDL
MODEL 6
REMARK VINA RESULT:    -6.757      3.278      5.486
REMARK INTER + INTRA:          -8.990
REMARK INTER:                  -8.343
REMARK INTRA:                  -0.648
REMARK UNBOUND:                -0.653
REMARK  Name = 
REMARK  4 active torsions:
REMARK  status: ('A' for Active; 'I' for Inactive)
REMARK    1  A    between atoms: C_2  and  C_4
REMARK    2  A    between atoms: C_8  and  N_9
REMARK    3  A    between atoms: N_9  and  C_10
REMARK    4  A    between atoms: C_10  and  C_11
REMARK                            x       y       z     vdW  Elec       q    Type
REMARK                         _______ _______ _______ _____ _____    ______ ____
ROOT
ATOM      1  N   UNL     1      46.466   7.131  11.974  0.00  0.00    +0.000 N 
ATOM      2  H   UNL     1      46.010   8.030  11.838  0.00  0.00    +0.000 HD
ENDROOT
BRANCH   1   7
ATOM      3  C   UNL     1      44.445   4.079  11.272  0.00  0.00    +0.000 A 
ATOM      4  C   UNL     1      44.641   3.915   9.897  0.00  0.00    +0.000 A 
ATOM      5  C   UNL     1      45.456   4.809   9.212  0.00  0.00    +0.000 A 
ATOM      6  C   UNL     1      46.053   5.878   9.890  0.00  0.00    +0.000 A 
ATOM      7  C   UNL     1      45.830   6.101  11.256  0.00  0.00    +0.000 A 
ATOM      8  C   UNL     1      45.044   5.160  11.943  0.00  0.00    +0.000 A 
BRANCH   3  10
ATOM      9  N   UNL     1      43.506   3.328  13.396  0.00  0.00    +0.000 N 
ATOM     10  C   UNL     1      43.577   3.148  12.038  0.00  0.00    +0.000 C 
ATOM     11  O   UNL     1      42.930   2.268  11.488  0.00  0.00    +0.000 OA
ATOM     12  H   UNL     1      42.847   2.744  13.892  0.00  0.00    +0.000 HD
ATOM     13  H   UNL     1      43.821   4.172  13.848  0.00  0.00    +0.000 HD
ENDBRANCH   3  10
ENDBRANCH   1   7
BRANCH   1  14
ATOM     14  C   UNL     1      47.922   7.230  11.887  0.00  0.00    +0.000 C 
BRANCH  14  15
ATOM     15  C   UNL     1      48.570   7.008  13.233  0.00  0.00    +0.000 A 
ATOM     16  C   UNL     1      49.760   7.639  13.586  0.00  0.00    +0.000 A 
ATOM     17  C   UNL     1      50.287   7.382  14.840  0.00  0.00    +0.000 A 
ATOM     18  N   UNL     1      49.710   6.574  15.757  0.00  0.00    +0.000 NA
ATOM     19  C   UNL     1      48.558   5.952  15.429  0.00  0.00    +0.000 A 
ATOM     20  N   UNL     1      47.907   5.182  16.377  0.00  0.00    +0.000 N 
ATOM     21  C   UNL     1      48.013   5.582  17.776  0.00  0.00    +0.000 C 
ATOM     22  C   UNL     1      48.862   4.602  18.578  0.00  0.00    +0.000 C 
ATOM     23  C   UNL     1      48.363   3.174  18.390  0.00  0.00    +0.000 C 
ATOM     24  C   UNL     1      48.353   2.810  16.906  0.00  0.00    +0.000 C 
ATOM     25  C   UNL     1      47.531   3.804  16.079  0.00  0.00    +0.000 C 
ATOM     26  C   UNL     1      47.979   6.147  14.173  0.00  0.00    +0.000 A 
ENDBRANCH  14  15
ENDBRANCH   1  14
TORSDOF 4
ENDMDL
MODEL 7
REMARK VINA RESULT:    -6.695      3.267      7.218
REMARK INTER + INTRA:          -8.914
REMARK INTER:                  -8.210
REMARK INTRA:                  -0.703
REMARK UNBOUND:                -0.653
REMARK  Name = 
REMARK  4 active torsions:
REMARK  status: ('A' for Active; 'I' for Inactive)
REMARK    1  A    between atoms: C_2  and  C_4
REMARK    2  A    between atoms: C_8  and  N_9
REMARK    3  A    between atoms: N_9  and  C_10
REMARK    4  A    between atoms: C_10  and  C_11
REMARK                            x       y       z     vdW  Elec       q    Type
REMARK                         _______ _______ _______ _____ _____    ______ ____
ROOT
ATOM      1  N   UNL     1      46.171   8.941  13.551  0.00  0.00    +0.000 N 
ATOM      2  H   UNL     1      46.251   9.441  14.434  0.00  0.00    +0.000 HD
ENDROOT
BRANCH   1   7
ATOM      3  C   UNL     1      44.066  10.388  10.837  0.00  0.00    +0.000 A 
ATOM      4  C   UNL     1      44.925  11.345  10.287  0.00  0.00    +0.000 A 
ATOM      5  C   UNL     1      46.205  11.494  10.809  0.00  0.00    +0.000 A 
ATOM      6  C   UNL     1      46.618  10.710  11.892  0.00  0.00    +0.000 A 
ATOM      7  C   UNL     1      45.761   9.783  12.501  0.00  0.00    +0.000 A 
ATOM      8  C   UNL     1      44.489   9.610  11.930  0.00  0.00    +0.000 A 
BRANCH   3  10
ATOM      9  N   UNL     1      41.882   9.306  10.963  0.00  0.00    +0.000 N 
ATOM     10  C   UNL     1      42.689  10.202  10.311  0.00  0.00    +0.000 C 
ATOM     11  O   UNL     1      42.275  10.833   9.348  0.00  0.00    +0.000 OA
ATOM     12  H   UNL     1      40.924   9.253  10.648  0.00  0.00    +0.000 HD
ATOM     13  H   UNL     1      42.095   8.956  11.884  0.00  0.00    +0.000 HD
ENDBRANCH   3  10
ENDBRANCH   1   7
BRANCH   1  14
ATOM     14  C   UNL     1      47.307   8.051  13.313  0.00  0.00    +0.000 C 
BRANCH  14  15
ATOM     15  C   UNL     1      46.853   6.631  13.073  0.00  0.00    +0.000 A 
ATOM     16  C   UNL     1      47.095   5.619  13.999  0.00  0.00    +0.000 A 
ATOM     17  C   UNL     1      46.643   4.344  13.702  0.00  0.00    +0.000 A 
ATOM     18  N   UNL     1      45.962   4.019  12.581  0.00  0.00    +0.000 NA
ATOM     19  C   UNL     1      45.724   4.988  11.673  0.00  0.00    +0.000 A 
ATOM     20  N   UNL     1      44.961   4.699  10.554  0.00  0.00    +0.000 N 
ATOM     21  C   UNL     1      43.903   3.704  10.684  0.00  0.00    +0.000 C 
ATOM     22  C   UNL     1      44.237   2.425   9.926  0.00  0.00    +0.000 C 
ATOM     23  C   UNL     1      44.608   2.734   8.479  0.00  0.00    +0.000 C 
ATOM     24  C   UNL     1      45.769   3.724   8.433  0.00  0.00    +0.000 C 
ATOM     25  C   UNL     1      45.464   5.003   9.218  0.00  0.00    +0.000 C 
ATOM     26  C   UNL     1      46.168   6.294  11.894  0.00  0.00    +0.000 A 
ENDBRANCH  14  15
ENDBRANCH   1  14
TORSDOF 4
ENDMDL
MODEL 8
REMARK VINA RESULT:    -6.615      4.208      8.083
REMARK INTER + INTRA:          -8.815
REMARK INTER:                  -8.180
REMARK INTRA:                  -0.636
REMARK UNBOUND:                -0.653
REMARK  Name = 
REMARK  4 active torsions:
REMARK  status: ('A' for Active; 'I' for Inactive)
REMARK    1  A    between atoms: C_2  and  C_4
REMARK    2  A    between atoms: C_8  and  N_9
REMARK    3  A    between atoms: N_9  and  C_10
REMARK    4  A    between atoms: C_10  and  C_11
REMARK                            x       y       z     vdW  Elec       q    Type
REMARK                         _______ _______ _______ _____ _____    ______ ____
ROOT
ATOM      1  N   UNL     1      48.561   7.169  16.481  0.00  0.00    +0.000 N 
ATOM      2  H   UNL     1      47.649   7.615  16.564  0.00  0.00    +0.000 HD
ENDROOT
BRANCH   1   7
ATOM      3  C   UNL     1      49.169   3.651  17.553  0.00  0.00    +0.000 A 
ATOM      4  C   UNL     1      48.786   3.690  18.897  0.00  0.00    +0.000 A 
ATOM      5  C   UNL     1      48.313   4.881  19.438  0.00  0.00    +0.000 A 
ATOM      6  C   UNL     1      48.245   6.034  18.648  0.00  0.00    +0.000 A 
ATOM      7  C   UNL     1      48.675   6.040  17.313  0.00  0.00    +0.000 A 
ATOM      8  C   UNL     1      49.104   4.817  16.769  0.00  0.00    +0.000 A 
BRANCH   3  10
ATOM      9  N   UNL     1      50.749   1.791  17.552  0.00  0.00    +0.000 N 
ATOM     10  C   UNL     1      49.685   2.400  16.939  0.00  0.00    +0.000 C 
ATOM     11  O   UNL     1      49.175   1.913  15.939  0.00  0.00    +0.000 OA
ATOM     12  H   UNL     1      51.034   0.898  17.175  0.00  0.00    +0.000 HD
ATOM     13  H   UNL     1      51.036   2.018  18.492  0.00  0.00    +0.000 HD
ENDBRANCH   3  10
ENDBRANCH   1   7
BRANCH   1  14
ATOM     14  C   UNL     1      48.992   7.043  15.090  0.00  0.00    +0.000 C 
BRANCH  14  15
ATOM     15  C   UNL     1      47.826   7.163  14.139  0.00  0.00    +0.000 A 
ATOM     16  C   UNL     1      47.289   8.401  13.794  0.00  0.00    +0.000 A 
ATOM     17  C   UNL     1      46.220   8.424  12.913  0.00  0.00    +0.000 A 
ATOM     18  N   UNL     1      45.676   7.324  12.348  0.00  0.00    +0.000 NA
ATOM     19  C   UNL     1      46.183   6.117  12.675  0.00  0.00    +0.000 A 
ATOM     20  N   UNL     1      45.696   4.982  12.051  0.00  0.00    +0.000 N 
ATOM     21  C   UNL     1      45.236   5.102  10.672  0.00  0.00    +0.000 C 
ATOM     22  C   UNL     1      43.722   4.960  10.569  0.00  0.00    +0.000 C 
ATOM     23  C   UNL     1      43.249   3.686  11.260  0.00  0.00    +0.000 C 
ATOM     24  C   UNL     1      43.708   3.674  12.716  0.00  0.00    +0.000 C 
ATOM     25  C   UNL     1      45.225   3.848  12.840  0.00  0.00    +0.000 C 
ATOM     26  C   UNL     1      47.248   6.015  13.574  0.00  0.00    +0.000 A 
ENDBRANCH  14  15
ENDBRANCH   1  14
TORSDOF 4
ENDMDL
MODEL 9
REMARK VINA RESULT:    -6.520      4.409      6.044
REMARK INTER + INTRA:          -8.698
REMARK INTER:                  -8.278
REMARK INTRA:                  -0.421
REMARK UNBOUND:                -0.653
REMARK  Name = 
REMARK  4 active torsions:
REMARK  status: ('A' for Active; 'I' for Inactive)
REMARK    1  A    between atoms: C_2  and  C_4
REMARK    2  A    between atoms: C_8  and  N_9
REMARK    3  A    between atoms: N_9  and  C_10
REMARK    4  A    between atoms: C_10  and  C_11
REMARK                            x       y       z     vdW  Elec       q    Type
REMARK                         _______ _______ _______ _____ _____    ______ ____
ROOT
ATOM      1  N   UNL     1      46.180   4.628  14.689  0.00  0.00    +0.000 N 
ATOM      2  H   UNL     1      46.063   5.371  15.373  0.00  0.00    +0.000 HD
ENDROOT
BRANCH   1   7
ATOM      3  C   UNL     1      45.028   4.799  11.148  0.00  0.00    +0.000 A 
ATOM      4  C   UNL     1      45.763   5.884  10.659  0.00  0.00    +0.000 A 
ATOM      5  C   UNL     1      46.650   6.543  11.503  0.00  0.00    +0.000 A 
ATOM      6  C   UNL     1      46.784   6.140  12.836  0.00  0.00    +0.000 A 
ATOM      7  C   UNL     1      46.020   5.092  13.370  0.00  0.00    +0.000 A 
ATOM      8  C   UNL     1      45.165   4.405  12.491  0.00  0.00    +0.000 A 
BRANCH   3  10
ATOM      9  N   UNL     1      44.072   4.375   8.943  0.00  0.00    +0.000 N 
ATOM     10  C   UNL     1      44.067   4.072  10.279  0.00  0.00    +0.000 C 
ATOM     11  O   UNL     1      43.311   3.219  10.726  0.00  0.00    +0.000 OA
ATOM     12  H   UNL     1      43.475   3.813   8.352  0.00  0.00    +0.000 HD
ATOM     13  H   UNL     1      44.827   4.880   8.504  0.00  0.00    +0.000 HD
ENDBRANCH   3  10
ENDBRANCH   1   7
BRANCH   1  14
ATOM     14  C   UNL     1      47.334   3.780  14.983  0.00  0.00    +0.000 C 
BRANCH  14  15
ATOM     15  C   UNL     1      47.801   3.961  16.407  0.00  0.00    +0.000 A 
ATOM     16  C   UNL     1      47.963   2.877  17.267  0.00  0.00    +0.000 A 
ATOM     17  C   UNL     1      48.396   3.129  18.558  0.00  0.00    +0.000 A 
ATOM     18  N   UNL     1      48.695   4.358  19.034  0.00  0.00    +0.000 NA
ATOM     19  C   UNL     1      48.540   5.418  18.214  0.00  0.00    +0.000 A 
ATOM     20  N   UNL     1      48.913   6.677  18.652  0.00  0.00    +0.000 N 
ATOM     21  C   UNL     1      50.035   6.776  19.579  0.00  0.00    +0.000 C 
ATOM     22  C   UNL     1      49.578   7.191  20.973  0.00  0.00    +0.000 C 
ATOM     23  C   UNL     1      48.728   8.456  20.909  0.00  0.00    +0.000 C 
ATOM     24  C   UNL     1      47.537   8.244  19.977  0.00  0.00    +0.000 C 
ATOM     25  C   UNL     1      47.976   7.793  18.580  0.00  0.00    +0.000 C 
ATOM     26  C   UNL     1      48.086   5.243  16.905  0.00  0.00    +0.000 A 
ENDBRANCH  14  15
ENDBRANCH   1  14
TORSDOF 4
ENDMDL
