MODEL 1
REMARK VINA RESULT:    -8.084      0.000      0.000
REMARK INTER + INTRA:         -13.549
REMARK INTER:                 -12.574
REMARK INTRA:                  -0.975
REMARK UNBOUND:                -0.975
REMARK  Name = 
REMARK  10 active torsions:
REMARK  status: ('A' for Active; 'I' for Inactive)
REMARK    1  A    between atoms: C_2  and  C_23
REMARK    2  A    between atoms: N_3  and  C_4
REMARK    3  A    between atoms: C_4  and  C_5
REMARK    4  A    between atoms: C_8  and  C_9
REMARK    5  A    between atoms: C_9  and  N_10
REMARK    6  A    between atoms: N_10  and  C_11
REMARK    7  A    between atoms: N_10  and  C_14
REMARK    8  A    between atoms: C_11  and  C_12
REMARK    9  A    between atoms: C_12  and  O_13
REMARK   10  A    between atoms: C_14  and  C_15
REMARK                            x       y       z     vdW  Elec       q    Type
REMARK                         _______ _______ _______ _____ _____    ______ ____
ROOT
ATOM      1  C   UNL     1      47.975   6.289  13.896  0.00  0.00    +0.000 A 
ATOM      2  C   UNL     1      47.039   5.248  13.983  0.00  0.00    +0.000 A 
ATOM      3  C   UNL     1      46.089   5.064  12.978  0.00  0.00    +0.000 A 
ATOM      4  C   UNL     1      46.050   5.925  11.875  0.00  0.00    +0.000 A 
ATOM      5  C   UNL     1      47.046   6.900  11.739  0.00  0.00    +0.000 A 
ATOM      6  C   UNL     1      48.006   7.077  12.739  0.00  0.00    +0.000 A 
ENDROOT
BRANCH   1   7
ATOM      7  C   UNL     1      48.906   6.580  15.047  0.00  0.00    +0.000 C 
BRANCH   7  10
ATOM      8  N   UNL     1      49.059   4.155  16.733  0.00  0.00    +0.000 NA
ATOM      9  C   UNL     1      48.647   5.311  17.124  0.00  0.00    +0.000 C 
ATOM     10  N   UNL     1      48.260   6.343  16.320  0.00  0.00    +0.000 N 
ATOM     11  H   UNL     1      49.038   4.110  15.715  0.00  0.00    +0.000 HD
ATOM     12  H   UNL     1      48.119   7.232  16.800  0.00  0.00    +0.000 HD
BRANCH   9  13
ATOM     13  C   UNL     1      48.564   5.533  18.567  0.00  0.00    +0.000 A 
ATOM     14  C   UNL     1      47.386   5.978  19.153  0.00  0.00    +0.000 A 
ATOM     15  S   UNL     1      47.475   6.122  20.850  0.00  0.00    +0.000 S 
ATOM     16  C   UNL     1      49.081   5.557  20.868  0.00  0.00    +0.000 A 
ATOM     17  N   UNL     1      49.747   5.383  22.041  0.00  0.00    +0.000 NA
ATOM     18  C   UNL     1      50.940   4.902  21.905  0.00  0.00    +0.000 A 
ATOM     19  N   UNL     1      51.528   4.598  20.708  0.00  0.00    +0.000 N 
ATOM     20  C   UNL     1      50.909   4.802  19.498  0.00  0.00    +0.000 A 
ATOM     21  O   UNL     1      51.500   4.599  18.442  0.00  0.00    +0.000 OA
ATOM     22  C   UNL     1      49.551   5.298  19.594  0.00  0.00    +0.000 A 
ATOM     23  H   UNL     1      52.478   4.255  20.669  0.00  0.00    +0.000 HD
ENDBRANCH   9  13
ENDBRANCH   7  10
ENDBRANCH   1   7
BRANCH   4  24
ATOM     24  C   UNL     1      44.924   5.831  10.865  0.00  0.00    +0.000 C 
BRANCH  24  25
ATOM     25  N   UNL     1      44.460   4.436  10.622  0.00  0.00    +0.000 NA
BRANCH  25  26
ATOM     26  C   UNL     1      43.226   4.154  11.394  0.00  0.00    +0.000 C 
BRANCH  26  27
ATOM     27  C   UNL     1      42.487   5.398  11.926  0.00  0.00    +0.000 C 
BRANCH  27  28
ATOM     28  O   UNL     1      42.525   5.434  13.351  0.00  0.00    +0.000 OA
ATOM     29  H   UNL     1      41.990   6.194  13.635  0.00  0.00    +0.000 HD
ENDBRANCH  27  28
ENDBRANCH  26  27
ENDBRANCH  25  26
BRANCH  25  30
ATOM     30  C   UNL     1      44.221   4.244   9.170  0.00  0.00    +0.000 C 
BRANCH  30  31
ATOM     31  C   UNL     1      45.236   3.357   8.483  0.00  0.00    +0.000 A 
ATOM     32  C   UNL     1      45.361   2.016   8.841  0.00  0.00    +0.000 A 
ATOM     33  N   UNL     1      46.280   1.191   8.286  0.00  0.00    +0.000 NA
ATOM     34  C   UNL     1      47.076   1.761   7.355  0.00  0.00    +0.000 A 
ATOM     35  C   UNL     1      46.955   3.090   6.986  0.00  0.00    +0.000 A 
ATOM     36  N   UNL     1      46.039   3.916   7.540  0.00  0.00    +0.000 NA
ENDBRANCH  30  31
ENDBRANCH  25  30
ENDBRANCH  24  25
ENDBRANCH   4  24
TORSDOF 10
ENDMDL
MODEL 2
REMARK VINA RESULT:    -8.003      2.288      2.929
REMARK INTER + INTRA:         -13.423
REMARK INTER:                 -12.433
REMARK INTRA:                  -0.990
REMARK UNBOUND:                -0.975
REMARK  Name = 
REMARK  10 active torsions:
REMARK  status: ('A' for Active; 'I' for Inactive)
REMARK    1  A    between atoms: C_2  and  C_23
REMARK    2  A    between atoms: N_3  and  C_4
REMARK    3  A    between atoms: C_4  and  C_5
REMARK    4  A    between atoms: C_8  and  C_9
REMARK    5  A    between atoms: C_9  and  N_10
REMARK    6  A    between atoms: N_10  and  C_11
REMARK    7  A    between atoms: N_10  and  C_14
REMARK    8  A    between atoms: C_11  and  C_12
REMARK    9  A    between atoms: C_12  and  O_13
REMARK   10  A    between atoms: C_14  and  C_15
REMARK                            x       y       z     vdW  Elec       q    Type
REMARK                         _______ _______ _______ _____ _____    ______ ____
ROOT
ATOM      1  C   UNL     1      47.039   4.651  14.796  0.00  0.00    +0.000 A 
ATOM      2  C   UNL     1      46.494   3.621  14.015  0.00  0.00    +0.000 A 
ATOM      3  C   UNL     1      46.079   3.868  12.706  0.00  0.00    +0.000 A 
ATOM      4  C   UNL     1      46.190   5.152  12.159  0.00  0.00    +0.000 A 
ATOM      5  C   UNL     1      46.826   6.154  12.903  0.00  0.00    +0.000 A 
ATOM      6  C   UNL     1      47.253   5.903  14.210  0.00  0.00    +0.000 A 
ENDROOT
BRANCH   1   7
ATOM      7  C   UNL     1      47.351   4.423  16.254  0.00  0.00    +0.000 C 
BRANCH   7  10
ATOM      8  N   UNL     1      48.519   5.138  18.876  0.00  0.00    +0.000 NA
ATOM      9  C   UNL     1      49.185   4.764  17.839  0.00  0.00    +0.000 C 
ATOM     10  N   UNL     1      48.731   4.743  16.553  0.00  0.00    +0.000 N 
ATOM     11  H   UNL     1      47.588   5.442  18.594  0.00  0.00    +0.000 HD
ATOM     12  H   UNL     1      49.342   4.267  15.889  0.00  0.00    +0.000 HD
BRANCH   9  13
ATOM     13  C   UNL     1      50.569   4.343  18.056  0.00  0.00    +0.000 A 
ATOM     14  C   UNL     1      51.471   5.170  18.713  0.00  0.00    +0.000 A 
ATOM     15  S   UNL     1      53.016   4.476  18.915  0.00  0.00    +0.000 S 
ATOM     16  C   UNL     1      52.524   3.029  18.166  0.00  0.00    +0.000 A 
ATOM     17  N   UNL     1      53.374   1.972  18.063  0.00  0.00    +0.000 NA
ATOM     18  C   UNL     1      52.849   0.923  17.517  0.00  0.00    +0.000 A 
ATOM     19  N   UNL     1      51.566   0.844  17.051  0.00  0.00    +0.000 N 
ATOM     20  C   UNL     1      50.689   1.902  17.092  0.00  0.00    +0.000 A 
ATOM     21  O   UNL     1      49.575   1.821  16.587  0.00  0.00    +0.000 OA
ATOM     22  C   UNL     1      51.211   3.090  17.737  0.00  0.00    +0.000 A 
ATOM     23  H   UNL     1      51.227   0.004  16.603  0.00  0.00    +0.000 HD
ENDBRANCH   9  13
ENDBRANCH   7  10
ENDBRANCH   1   7
BRANCH   4  24
ATOM     24  C   UNL     1      45.595   5.463  10.800  0.00  0.00    +0.000 C 
BRANCH  24  25
ATOM     25  N   UNL     1      44.587   4.463  10.350  0.00  0.00    +0.000 NA
BRANCH  25  26
ATOM     26  C   UNL     1      43.244   4.800  10.882  0.00  0.00    +0.000 C 
BRANCH  26  27
ATOM     27  C   UNL     1      43.073   6.257  11.353  0.00  0.00    +0.000 C 
BRANCH  27  28
ATOM     28  O   UNL     1      41.735   6.490  11.789  0.00  0.00    +0.000 OA
ATOM     29  H   UNL     1      41.785   6.991  12.621  0.00  0.00    +0.000 HD
ENDBRANCH  27  28
ENDBRANCH  26  27
ENDBRANCH  25  26
BRANCH  25  30
ATOM     30  C   UNL     1      44.564   4.422   8.867  0.00  0.00    +0.000 C 
BRANCH  30  31
ATOM     31  C   UNL     1      45.489   3.391   8.259  0.00  0.00    +0.000 A 
ATOM     32  C   UNL     1      45.472   2.071   8.707  0.00  0.00    +0.000 A 
ATOM     33  N   UNL     1      46.306   1.121   8.224  0.00  0.00    +0.000 NA
ATOM     34  C   UNL     1      47.166   1.542   7.270  0.00  0.00    +0.000 A 
ATOM     35  C   UNL     1      47.187   2.849   6.813  0.00  0.00    +0.000 A 
ATOM     36  N   UNL     1      46.356   3.800   7.295  0.00  0.00    +0.000 NA
ENDBRANCH  30  31
ENDBRANCH  25  30
ENDBRANCH  24  25
ENDBRANCH   4  24
TORSDOF 10
ENDMDL
MODEL 3
REMARK VINA RESULT:    -7.947      1.623      2.055
REMARK INTER + INTRA:         -13.335
REMARK INTER:                 -12.342
REMARK INTRA:                  -0.993
REMARK UNBOUND:                -0.975
REMARK  Name = 
REMARK  10 active torsions:
REMARK  status: ('A' for Active; 'I' for Inactive)
REMARK    1  A    between atoms: C_2  and  C_23
REMARK    2  A    between atoms: N_3  and  C_4
REMARK    3  A    between atoms: C_4  and  C_5
REMARK    4  A    between atoms: C_8  and  C_9
REMARK    5  A    between atoms: C_9  and  N_10
REMARK    6  A    between atoms: N_10  and  C_11
REMARK    7  A    between atoms: N_10  and  C_14
REMARK    8  A    between atoms: C_11  and  C_12
REMARK    9  A    between atoms: C_12  and  O_13
REMARK   10  A    between atoms: C_14  and  C_15
REMARK                            x       y       z     vdW  Elec       q    Type
REMARK                         _______ _______ _______ _____ _____    ______ ____
ROOT
ATOM      1  C   UNL     1      47.916   6.458  13.870  0.00  0.00    +0.000 A 
ATOM      2  C   UNL     1      47.087   5.329  13.919  0.00  0.00    +0.000 A 
ATOM      3  C   UNL     1      46.175   5.073  12.894  0.00  0.00    +0.000 A 
ATOM      4  C   UNL     1      46.068   5.951  11.808  0.00  0.00    +0.000 A 
ATOM      5  C   UNL     1      46.966   7.022  11.709  0.00  0.00    +0.000 A 
ATOM      6  C   UNL     1      47.887   7.270  12.730  0.00  0.00    +0.000 A 
ENDROOT
BRANCH   1   7
ATOM      7  C   UNL     1      48.796   6.814  15.043  0.00  0.00    +0.000 C 
BRANCH   7  10
ATOM      8  N   UNL     1      50.539   5.339  16.923  0.00  0.00    +0.000 NA
ATOM      9  C   UNL     1      49.329   5.710  17.162  0.00  0.00    +0.000 C 
ATOM     10  N   UNL     1      48.404   6.091  16.234  0.00  0.00    +0.000 N 
ATOM     11  H   UNL     1      50.709   5.350  15.918  0.00  0.00    +0.000 HD
ATOM     12  H   UNL     1      47.555   6.505  16.618  0.00  0.00    +0.000 HD
BRANCH   9  13
ATOM     13  C   UNL     1      48.896   5.703  18.559  0.00  0.00    +0.000 A 
ATOM     14  C   UNL     1      49.089   4.584  19.358  0.00  0.00    +0.000 A 
ATOM     15  S   UNL     1      48.566   4.794  20.968  0.00  0.00    +0.000 S 
ATOM     16  C   UNL     1      48.099   6.402  20.665  0.00  0.00    +0.000 A 
ATOM     17  N   UNL     1      47.612   7.188  21.662  0.00  0.00    +0.000 NA
ATOM     18  C   UNL     1      47.345   8.401  21.298  0.00  0.00    +0.000 A 
ATOM     19  N   UNL     1      47.505   8.888  20.031  0.00  0.00    +0.000 N 
ATOM     20  C   UNL     1      47.948   8.116  18.983  0.00  0.00    +0.000 A 
ATOM     21  O   UNL     1      47.997   8.564  17.842  0.00  0.00    +0.000 OA
ATOM     22  C   UNL     1      48.306   6.760  19.346  0.00  0.00    +0.000 A 
ATOM     23  H   UNL     1      47.246   9.839  19.803  0.00  0.00    +0.000 HD
ENDBRANCH   9  13
ENDBRANCH   7  10
ENDBRANCH   1   7
BRANCH   4  24
ATOM     24  C   UNL     1      44.973   5.768  10.776  0.00  0.00    +0.000 C 
BRANCH  24  25
ATOM     25  N   UNL     1      44.518   4.356  10.637  0.00  0.00    +0.000 NA
BRANCH  25  26
ATOM     26  C   UNL     1      43.333   4.103  11.492  0.00  0.00    +0.000 C 
BRANCH  26  27
ATOM     27  C   UNL     1      42.550   5.361  11.916  0.00  0.00    +0.000 C 
BRANCH  27  28
ATOM     28  O   UNL     1      42.527   5.483  13.337  0.00  0.00    +0.000 OA
ATOM     29  H   UNL     1      41.597   5.579  13.604  0.00  0.00    +0.000 HD
ENDBRANCH  27  28
ENDBRANCH  26  27
ENDBRANCH  25  26
BRANCH  25  30
ATOM     30  C   UNL     1      44.202   4.081   9.214  0.00  0.00    +0.000 C 
BRANCH  30  31
ATOM     31  C   UNL     1      45.257   3.277   8.486  0.00  0.00    +0.000 A 
ATOM     32  C   UNL     1      45.442   1.926   8.774  0.00  0.00    +0.000 A 
ATOM     33  N   UNL     1      46.398   1.173   8.180  0.00  0.00    +0.000 NA
ATOM     34  C   UNL     1      47.169   1.827   7.283  0.00  0.00    +0.000 A 
ATOM     35  C   UNL     1      46.990   3.167   6.985  0.00  0.00    +0.000 A 
ATOM     36  N   UNL     1      46.037   3.921   7.578  0.00  0.00    +0.000 NA
ENDBRANCH  30  31
ENDBRANCH  25  30
ENDBRANCH  24  25
ENDBRANCH   4  24
TORSDOF 10
ENDMDL
MODEL 4
REMARK VINA RESULT:    -7.788      2.333      2.551
REMARK INTER + INTRA:         -13.089
REMARK INTER:                 -11.622
REMARK INTRA:                  -1.467
REMARK UNBOUND:                -0.975
REMARK  Name = 
REMARK  10 active torsions:
REMARK  status: ('A' for Active; 'I' for Inactive)
REMARK    1  A    between atoms: C_2  and  C_23
REMARK    2  A    between atoms: N_3  and  C_4
REMARK    3  A    between atoms: C_4  and  C_5
REMARK    4  A    between atoms: C_8  and  C_9
REMARK    5  A    between atoms: C_9  and  N_10
REMARK    6  A    between atoms: N_10  and  C_11
REMARK    7  A    between atoms: N_10  and  C_14
REMARK    8  A    between atoms: C_11  and  C_12
REMARK    9  A    between atoms: C_12  and  O_13
REMARK   10  A    between atoms: C_14  and  C_15
REMARK                            x       y       z     vdW  Elec       q    Type
REMARK                         _______ _______ _______ _____ _____    ______ ____
ROOT
ATOM      1  C   UNL     1      48.100   8.007  13.558  0.00  0.00    +0.000 A 
ATOM      2  C   UNL     1      48.347   7.016  12.596  0.00  0.00    +0.000 A 
ATOM      3  C   UNL     1      47.316   6.548  11.780  0.00  0.00    +0.000 A 
ATOM      4  C   UNL     1      46.018   7.054  11.920  0.00  0.00    +0.000 A 
ATOM      5  C   UNL     1      45.794   8.113  12.808  0.00  0.00    +0.000 A 
ATOM      6  C   UNL     1      46.829   8.590  13.617  0.00  0.00    +0.000 A 
ENDROOT
BRANCH   1   7
ATOM      7  C   UNL     1      49.175   8.409  14.537  0.00  0.00    +0.000 C 
BRANCH   7  10
ATOM      8  N   UNL     1      48.198   7.629  17.217  0.00  0.00    +0.000 NA
ATOM      9  C   UNL     1      48.867   6.873  16.418  0.00  0.00    +0.000 C 
ATOM     10  N   UNL     1      49.600   7.284  15.343  0.00  0.00    +0.000 N 
ATOM     11  H   UNL     1      48.310   8.603  16.941  0.00  0.00    +0.000 HD
ATOM     12  H   UNL     1      49.928   6.534  14.734  0.00  0.00    +0.000 HD
BRANCH   9  13
ATOM     13  C   UNL     1      48.860   5.438  16.700  0.00  0.00    +0.000 A 
ATOM     14  C   UNL     1      47.710   4.681  16.518  0.00  0.00    +0.000 A 
ATOM     15  S   UNL     1      47.921   3.021  16.849  0.00  0.00    +0.000 S 
ATOM     16  C   UNL     1      49.569   3.247  17.210  0.00  0.00    +0.000 A 
ATOM     17  N   UNL     1      50.367   2.191  17.522  0.00  0.00    +0.000 NA
ATOM     18  C   UNL     1      51.606   2.505  17.724  0.00  0.00    +0.000 A 
ATOM     19  N   UNL     1      52.110   3.774  17.659  0.00  0.00    +0.000 N 
ATOM     20  C   UNL     1      51.331   4.876  17.394  0.00  0.00    +0.000 A 
ATOM     21  O   UNL     1      51.802   6.007  17.429  0.00  0.00    +0.000 OA
ATOM     22  C   UNL     1      49.942   4.575  17.114  0.00  0.00    +0.000 A 
ATOM     23  H   UNL     1      53.084   3.957  17.861  0.00  0.00    +0.000 HD
ENDBRANCH   9  13
ENDBRANCH   7  10
ENDBRANCH   1   7
BRANCH   4  24
ATOM     24  C   UNL     1      44.866   6.438  11.152  0.00  0.00    +0.000 C 
BRANCH  24  25
ATOM     25  N   UNL     1      44.927   4.951  11.081  0.00  0.00    +0.000 NA
BRANCH  25  26
ATOM     26  C   UNL     1      44.288   4.346  12.276  0.00  0.00    +0.000 C 
BRANCH  26  27
ATOM     27  C   UNL     1      43.206   3.290  11.977  0.00  0.00    +0.000 C 
BRANCH  27  28
ATOM     28  O   UNL     1      43.570   2.028  12.531  0.00  0.00    +0.000 OA
ATOM     29  H   UNL     1      44.119   1.571  11.872  0.00  0.00    +0.000 HD
ENDBRANCH  27  28
ENDBRANCH  26  27
ENDBRANCH  25  26
BRANCH  25  30
ATOM     30  C   UNL     1      44.254   4.491   9.842  0.00  0.00    +0.000 C 
BRANCH  30  31
ATOM     31  C   UNL     1      45.124   3.646   8.938  0.00  0.00    +0.000 A 
ATOM     32  C   UNL     1      45.252   2.275   9.157  0.00  0.00    +0.000 A 
ATOM     33  N   UNL     1      46.049   1.483   8.402  0.00  0.00    +0.000 NA
ATOM     34  C   UNL     1      46.720   2.116   7.414  0.00  0.00    +0.000 A 
ATOM     35  C   UNL     1      46.594   3.476   7.183  0.00  0.00    +0.000 A 
ATOM     36  N   UNL     1      45.800   4.269   7.937  0.00  0.00    +0.000 NA
ENDBRANCH  30  31
ENDBRANCH  25  30
ENDBRANCH  24  25
ENDBRANCH   4  24
TORSDOF 10
ENDMDL
MODEL 5
REMARK VINA RESULT:    -7.719      1.695      2.027
REMARK INTER + INTRA:         -12.981
REMARK INTER:                 -11.749
REMARK INTRA:                  -1.232
REMARK UNBOUND:                -0.975
REMARK  Name = 
REMARK  10 active torsions:
REMARK  status: ('A' for Active; 'I' for Inactive)
REMARK    1  A    between atoms: C_2  and  C_23
REMARK    2  A    between atoms: N_3  and  C_4
REMARK    3  A    between atoms: C_4  and  C_5
REMARK    4  A    between atoms: C_8  and  C_9
REMARK    5  A    between atoms: C_9  and  N_10
REMARK    6  A    between atoms: N_10  and  C_11
REMARK    7  A    between atoms: N_10  and  C_14
REMARK    8  A    between atoms: C_11  and  C_12
REMARK    9  A    between atoms: C_12  and  O_13
REMARK   10  A    between atoms: C_14  and  C_15
REMARK                            x       y       z     vdW  Elec       q    Type
REMARK                         _______ _______ _______ _____ _____    ______ ____
ROOT
ATOM      1  C   UNL     1      47.082   7.814  13.021  0.00  0.00    +0.000 A 
ATOM      2  C   UNL     1      47.333   6.544  12.480  0.00  0.00    +0.000 A 
ATOM      3  C   UNL     1      46.367   5.900  11.706  0.00  0.00    +0.000 A 
ATOM      4  C   UNL     1      45.128   6.508  11.470  0.00  0.00    +0.000 A 
ATOM      5  C   UNL     1      44.916   7.816  11.925  0.00  0.00    +0.000 A 
ATOM      6  C   UNL     1      45.889   8.466  12.690  0.00  0.00    +0.000 A 
ENDROOT
BRANCH   1   7
ATOM      7  C   UNL     1      48.064   8.447  13.975  0.00  0.00    +0.000 C 
BRANCH   7  10
ATOM      8  N   UNL     1      50.086   6.647  15.166  0.00  0.00    +0.000 NA
ATOM      9  C   UNL     1      49.146   7.245  15.812  0.00  0.00    +0.000 C 
ATOM     10  N   UNL     1      48.026   7.806  15.272  0.00  0.00    +0.000 N 
ATOM     11  H   UNL     1      49.862   6.632  14.172  0.00  0.00    +0.000 HD
ATOM     12  H   UNL     1      47.476   8.375  15.917  0.00  0.00    +0.000 HD
BRANCH   9  13
ATOM     13  C   UNL     1      49.281   7.312  17.267  0.00  0.00    +0.000 A 
ATOM     14  C   UNL     1      49.263   8.533  17.929  0.00  0.00    +0.000 A 
ATOM     15  S   UNL     1      49.378   8.396  19.625  0.00  0.00    +0.000 S 
ATOM     16  C   UNL     1      49.416   6.696  19.540  0.00  0.00    +0.000 A 
ATOM     17  N   UNL     1      49.453   5.941  20.670  0.00  0.00    +0.000 NA
ATOM     18  C   UNL     1      49.429   4.665  20.454  0.00  0.00    +0.000 A 
ATOM     19  N   UNL     1      49.389   4.083  19.218  0.00  0.00    +0.000 N 
ATOM     20  C   UNL     1      49.398   4.807  18.049  0.00  0.00    +0.000 A 
ATOM     21  O   UNL     1      49.449   4.249  16.959  0.00  0.00    +0.000 OA
ATOM     22  C   UNL     1      49.379   6.244  18.234  0.00  0.00    +0.000 A 
ATOM     23  H   UNL     1      49.406   3.077  19.116  0.00  0.00    +0.000 HD
ENDBRANCH   9  13
ENDBRANCH   7  10
ENDBRANCH   1   7
BRANCH   4  24
ATOM     24  C   UNL     1      44.019   5.750  10.770  0.00  0.00    +0.000 C 
BRANCH  24  25
ATOM     25  N   UNL     1      44.399   4.359  10.392  0.00  0.00    +0.000 NA
BRANCH  25  26
ATOM     26  C   UNL     1      43.523   3.375  11.075  0.00  0.00    +0.000 C 
BRANCH  26  27
ATOM     27  C   UNL     1      43.923   3.036  12.523  0.00  0.00    +0.000 C 
BRANCH  27  28
ATOM     28  O   UNL     1      45.297   2.660  12.589  0.00  0.00    +0.000 OA
ATOM     29  H   UNL     1      45.703   2.897  11.738  0.00  0.00    +0.000 HD
ENDBRANCH  27  28
ENDBRANCH  26  27
ENDBRANCH  25  26
BRANCH  25  30
ATOM     30  C   UNL     1      44.302   4.207   8.919  0.00  0.00    +0.000 C 
BRANCH  30  31
ATOM     31  C   UNL     1      45.370   3.322   8.313  0.00  0.00    +0.000 A 
ATOM     32  C   UNL     1      45.442   1.971   8.647  0.00  0.00    +0.000 A 
ATOM     33  N   UNL     1      46.402   1.147   8.164  0.00  0.00    +0.000 NA
ATOM     34  C   UNL     1      47.293   1.728   7.331  0.00  0.00    +0.000 A 
ATOM     35  C   UNL     1      47.226   3.068   6.988  0.00  0.00    +0.000 A 
ATOM     36  N   UNL     1      46.270   3.893   7.470  0.00  0.00    +0.000 NA
ENDBRANCH  30  31
ENDBRANCH  25  30
ENDBRANCH  24  25
ENDBRANCH   4  24
TORSDOF 10
ENDMDL
MODEL 6
REMARK VINA RESULT:    -7.530      2.401      3.009
REMARK INTER + INTRA:         -12.687
REMARK INTER:                 -11.014
REMARK INTRA:                  -1.674
REMARK UNBOUND:                -0.975
REMARK  Name = 
REMARK  10 active torsions:
REMARK  status: ('A' for Active; 'I' for Inactive)
REMARK    1  A    between atoms: C_2  and  C_23
REMARK    2  A    between atoms: N_3  and  C_4
REMARK    3  A    between atoms: C_4  and  C_5
REMARK    4  A    between atoms: C_8  and  C_9
REMARK    5  A    between atoms: C_9  and  N_10
REMARK    6  A    between atoms: N_10  and  C_11
REMARK    7  A    between atoms: N_10  and  C_14
REMARK    8  A    between atoms: C_11  and  C_12
REMARK    9  A    between atoms: C_12  and  O_13
REMARK   10  A    between atoms: C_14  and  C_15
REMARK                            x       y       z     vdW  Elec       q    Type
REMARK                         _______ _______ _______ _____ _____    ______ ____
ROOT
ATOM      1  C   UNL     1      48.149   8.218  13.515  0.00  0.00    +0.000 A 
ATOM      2  C   UNL     1      46.788   8.555  13.513  0.00  0.00    +0.000 A 
ATOM      3  C   UNL     1      45.893   7.885  12.677  0.00  0.00    +0.000 A 
ATOM      4  C   UNL     1      46.347   6.876  11.819  0.00  0.00    +0.000 A 
ATOM      5  C   UNL     1      47.686   6.471  11.895  0.00  0.00    +0.000 A 
ATOM      6  C   UNL     1      48.579   7.134  12.742  0.00  0.00    +0.000 A 
ENDROOT
BRANCH   1   7
ATOM      7  C   UNL     1      49.140   9.036  14.307  0.00  0.00    +0.000 C 
BRANCH   7  10
ATOM      8  N   UNL     1      48.073   8.240  16.948  0.00  0.00    +0.000 NA
ATOM      9  C   UNL     1      49.082   7.700  16.358  0.00  0.00    +0.000 C 
ATOM     10  N   UNL     1      49.791   8.235  15.322  0.00  0.00    +0.000 N 
ATOM     11  H   UNL     1      47.883   9.153  16.538  0.00  0.00    +0.000 HD
ATOM     12  H   UNL     1      50.452   7.597  14.879  0.00  0.00    +0.000 HD
BRANCH   9  13
ATOM     13  C   UNL     1      49.527   6.400  16.859  0.00  0.00    +0.000 A 
ATOM     14  C   UNL     1      50.657   6.294  17.659  0.00  0.00    +0.000 A 
ATOM     15  S   UNL     1      50.978   4.703  18.184  0.00  0.00    +0.000 S 
ATOM     16  C   UNL     1      49.595   4.104  17.394  0.00  0.00    +0.000 A 
ATOM     17  N   UNL     1      49.246   2.793  17.492  0.00  0.00    +0.000 NA
ATOM     18  C   UNL     1      48.147   2.491  16.881  0.00  0.00    +0.000 A 
ATOM     19  N   UNL     1      47.380   3.373  16.171  0.00  0.00    +0.000 N 
ATOM     20  C   UNL     1      47.720   4.695  16.006  0.00  0.00    +0.000 A 
ATOM     21  O   UNL     1      47.054   5.436  15.291  0.00  0.00    +0.000 OA
ATOM     22  C   UNL     1      48.920   5.098  16.709  0.00  0.00    +0.000 A 
ATOM     23  H   UNL     1      46.547   3.065  15.687  0.00  0.00    +0.000 HD
ENDBRANCH   9  13
ENDBRANCH   7  10
ENDBRANCH   1   7
BRANCH   4  24
ATOM     24  C   UNL     1      45.414   6.258  10.797  0.00  0.00    +0.000 C 
BRANCH  24  25
ATOM     25  N   UNL     1      45.163   4.807  11.025  0.00  0.00    +0.000 NA
BRANCH  25  26
ATOM     26  C   UNL     1      44.413   4.599  12.287  0.00  0.00    +0.000 C 
BRANCH  26  27
ATOM     27  C   UNL     1      43.057   5.328  12.372  0.00  0.00    +0.000 C 
BRANCH  27  28
ATOM     28  O   UNL     1      42.531   5.255  13.695  0.00  0.00    +0.000 OA
ATOM     29  H   UNL     1      43.132   4.696  14.216  0.00  0.00    +0.000 HD
ENDBRANCH  27  28
ENDBRANCH  26  27
ENDBRANCH  25  26
BRANCH  25  30
ATOM     30  C   UNL     1      44.407   4.254   9.874  0.00  0.00    +0.000 C 
BRANCH  30  31
ATOM     31  C   UNL     1      45.260   3.514   8.866  0.00  0.00    +0.000 A 
ATOM     32  C   UNL     1      45.451   2.138   8.975  0.00  0.00    +0.000 A 
ATOM     33  N   UNL     1      46.236   1.437   8.124  0.00  0.00    +0.000 NA
ATOM     34  C   UNL     1      46.830   2.168   7.155  0.00  0.00    +0.000 A 
ATOM     35  C   UNL     1      46.642   3.535   7.034  0.00  0.00    +0.000 A 
ATOM     36  N   UNL     1      45.860   4.237   7.884  0.00  0.00    +0.000 NA
ENDBRANCH  30  31
ENDBRANCH  25  30
ENDBRANCH  24  25
ENDBRANCH   4  24
TORSDOF 10
ENDMDL
MODEL 7
REMARK VINA RESULT:    -7.402      2.039      2.641
REMARK INTER + INTRA:         -12.488
REMARK INTER:                 -11.160
REMARK INTRA:                  -1.328
REMARK UNBOUND:                -0.975
REMARK  Name = 
REMARK  10 active torsions:
REMARK  status: ('A' for Active; 'I' for Inactive)
REMARK    1  A    between atoms: C_2  and  C_23
REMARK    2  A    between atoms: N_3  and  C_4
REMARK    3  A    between atoms: C_4  and  C_5
REMARK    4  A    between atoms: C_8  and  C_9
REMARK    5  A    between atoms: C_9  and  N_10
REMARK    6  A    between atoms: N_10  and  C_11
REMARK    7  A    between atoms: N_10  and  C_14
REMARK    8  A    between atoms: C_11  and  C_12
REMARK    9  A    between atoms: C_12  and  O_13
REMARK   10  A    between atoms: C_14  and  C_15
REMARK                            x       y       z     vdW  Elec       q    Type
REMARK                         _______ _______ _______ _____ _____    ______ ____
ROOT
ATOM      1  C   UNL     1      47.613   8.430  12.816  0.00  0.00    +0.000 A 
ATOM      2  C   UNL     1      47.962   7.335  12.013  0.00  0.00    +0.000 A 
ATOM      3  C   UNL     1      46.973   6.541  11.429  0.00  0.00    +0.000 A 
ATOM      4  C   UNL     1      45.619   6.821  11.649  0.00  0.00    +0.000 A 
ATOM      5  C   UNL     1      45.272   7.973  12.367  0.00  0.00    +0.000 A 
ATOM      6  C   UNL     1      46.262   8.775  12.942  0.00  0.00    +0.000 A 
ENDROOT
BRANCH   1   7
ATOM      7  C   UNL     1      48.673   9.199  13.565  0.00  0.00    +0.000 C 
BRANCH   7  10
ATOM      8  N   UNL     1      47.721   9.254  16.365  0.00  0.00    +0.000 NA
ATOM      9  C   UNL     1      48.466   8.340  15.848  0.00  0.00    +0.000 C 
ATOM     10  N   UNL     1      49.179   8.440  14.689  0.00  0.00    +0.000 N 
ATOM     11  H   UNL     1      47.753  10.091  15.785  0.00  0.00    +0.000 HD
ATOM     12  H   UNL     1      49.581   7.564  14.354  0.00  0.00    +0.000 HD
BRANCH   9  13
ATOM     13  C   UNL     1      48.578   7.080  16.583  0.00  0.00    +0.000 A 
ATOM     14  C   UNL     1      48.423   5.861  15.936  0.00  0.00    +0.000 A 
ATOM     15  S   UNL     1      48.644   4.511  16.955  0.00  0.00    +0.000 S 
ATOM     16  C   UNL     1      48.995   5.507  18.290  0.00  0.00    +0.000 A 
ATOM     17  N   UNL     1      49.336   4.970  19.492  0.00  0.00    +0.000 NA
ATOM     18  C   UNL     1      49.624   5.845  20.400  0.00  0.00    +0.000 A 
ATOM     19  N   UNL     1      49.582   7.200  20.219  0.00  0.00    +0.000 N 
ATOM     20  C   UNL     1      49.196   7.785  19.037  0.00  0.00    +0.000 A 
ATOM     21  O   UNL     1      49.088   9.003  18.939  0.00  0.00    +0.000 OA
ATOM     22  C   UNL     1      48.907   6.849  17.970  0.00  0.00    +0.000 A 
ATOM     23  H   UNL     1      49.786   7.832  20.982  0.00  0.00    +0.000 HD
ENDBRANCH   9  13
ENDBRANCH   7  10
ENDBRANCH   1   7
BRANCH   4  24
ATOM     24  C   UNL     1      44.547   5.873  11.153  0.00  0.00    +0.000 C 
BRANCH  24  25
ATOM     25  N   UNL     1      45.071   4.530  10.775  0.00  0.00    +0.000 NA
BRANCH  25  26
ATOM     26  C   UNL     1      44.746   3.529  11.821  0.00  0.00    +0.000 C 
BRANCH  26  27
ATOM     27  C   UNL     1      43.259   3.138  11.914  0.00  0.00    +0.000 C 
BRANCH  27  28
ATOM     28  O   UNL     1      43.092   1.741  11.682  0.00  0.00    +0.000 OA
ATOM     29  H   UNL     1      42.999   1.616  10.723  0.00  0.00    +0.000 HD
ENDBRANCH  27  28
ENDBRANCH  26  27
ENDBRANCH  25  26
BRANCH  25  30
ATOM     30  C   UNL     1      44.490   4.126   9.471  0.00  0.00    +0.000 C 
BRANCH  30  31
ATOM     31  C   UNL     1      45.416   3.297   8.607  0.00  0.00    +0.000 A 
ATOM     32  C   UNL     1      45.516   1.920   8.797  0.00  0.00    +0.000 A 
ATOM     33  N   UNL     1      46.358   1.140   8.078  0.00  0.00    +0.000 NA
ATOM     34  C   UNL     1      47.102   1.793   7.158  0.00  0.00    +0.000 A 
ATOM     35  C   UNL     1      47.005   3.160   6.957  0.00  0.00    +0.000 A 
ATOM     36  N   UNL     1      46.166   3.941   7.674  0.00  0.00    +0.000 NA
ENDBRANCH  30  31
ENDBRANCH  25  30
ENDBRANCH  24  25
ENDBRANCH   4  24
TORSDOF 10
ENDMDL
MODEL 8
REMARK VINA RESULT:    -7.235      2.399      3.006
REMARK INTER + INTRA:         -12.228
REMARK INTER:                 -11.045
REMARK INTRA:                  -1.183
REMARK UNBOUND:                -0.975
REMARK  Name = 
REMARK  10 active torsions:
REMARK  status: ('A' for Active; 'I' for Inactive)
REMARK    1  A    between atoms: C_2  and  C_23
REMARK    2  A    between atoms: N_3  and  C_4
REMARK    3  A    between atoms: C_4  and  C_5
REMARK    4  A    between atoms: C_8  and  C_9
REMARK    5  A    between atoms: C_9  and  N_10
REMARK    6  A    between atoms: N_10  and  C_11
REMARK    7  A    between atoms: N_10  and  C_14
REMARK    8  A    between atoms: C_11  and  C_12
REMARK    9  A    between atoms: C_12  and  O_13
REMARK   10  A    between atoms: C_14  and  C_15
REMARK                            x       y       z     vdW  Elec       q    Type
REMARK                         _______ _______ _______ _____ _____    ______ ____
ROOT
ATOM      1  C   UNL     1      47.374   4.613  14.934  0.00  0.00    +0.000 A 
ATOM      2  C   UNL     1      46.899   3.523  14.190  0.00  0.00    +0.000 A 
ATOM      3  C   UNL     1      46.247   3.725  12.973  0.00  0.00    +0.000 A 
ATOM      4  C   UNL     1      46.048   5.022  12.484  0.00  0.00    +0.000 A 
ATOM      5  C   UNL     1      46.612   6.103  13.175  0.00  0.00    +0.000 A 
ATOM      6  C   UNL     1      47.275   5.899  14.389  0.00  0.00    +0.000 A 
ENDROOT
BRANCH   1   7
ATOM      7  C   UNL     1      47.946   4.408  16.314  0.00  0.00    +0.000 C 
BRANCH   7  10
ATOM      8  N   UNL     1      49.473   5.543  18.580  0.00  0.00    +0.000 NA
ATOM      9  C   UNL     1      48.449   6.090  18.021  0.00  0.00    +0.000 C 
ATOM     10  N   UNL     1      47.541   5.467  17.215  0.00  0.00    +0.000 N 
ATOM     11  H   UNL     1      49.501   4.551  18.347  0.00  0.00    +0.000 HD
ATOM     12  H   UNL     1      46.893   6.092  16.735  0.00  0.00    +0.000 HD
BRANCH   9  13
ATOM     13  C   UNL     1      48.224   7.509  18.293  0.00  0.00    +0.000 A 
ATOM     14  C   UNL     1      48.363   8.458  17.288  0.00  0.00    +0.000 A 
ATOM     15  S   UNL     1      48.004  10.047  17.792  0.00  0.00    +0.000 S 
ATOM     16  C   UNL     1      47.612   9.520  19.362  0.00  0.00    +0.000 A 
ATOM     17  N   UNL     1      47.161  10.394  20.301  0.00  0.00    +0.000 NA
ATOM     18  C   UNL     1      46.855   9.846  21.432  0.00  0.00    +0.000 A 
ATOM     19  N   UNL     1      46.977   8.512  21.711  0.00  0.00    +0.000 N 
ATOM     20  C   UNL     1      47.473   7.602  20.809  0.00  0.00    +0.000 A 
ATOM     21  O   UNL     1      47.648   6.430  21.123  0.00  0.00    +0.000 OA
ATOM     22  C   UNL     1      47.788   8.156  19.508  0.00  0.00    +0.000 A 
ATOM     23  H   UNL     1      46.752   8.151  22.628  0.00  0.00    +0.000 HD
ENDBRANCH   9  13
ENDBRANCH   7  10
ENDBRANCH   1   7
BRANCH   4  24
ATOM     24  C   UNL     1      45.204   5.258  11.248  0.00  0.00    +0.000 C 
BRANCH  24  25
ATOM     25  N   UNL     1      44.441   4.053  10.812  0.00  0.00    +0.000 NA
BRANCH  25  26
ATOM     26  C   UNL     1      43.114   4.010  11.472  0.00  0.00    +0.000 C 
BRANCH  26  27
ATOM     27  C   UNL     1      42.567   5.374  11.936  0.00  0.00    +0.000 C 
BRANCH  27  28
ATOM     28  O   UNL     1      42.532   5.443  13.360  0.00  0.00    +0.000 OA
ATOM     29  H   UNL     1      43.211   6.083  13.634  0.00  0.00    +0.000 HD
ENDBRANCH  27  28
ENDBRANCH  26  27
ENDBRANCH  25  26
BRANCH  25  30
ATOM     30  C   UNL     1      44.289   4.077   9.337  0.00  0.00    +0.000 C 
BRANCH  30  31
ATOM     31  C   UNL     1      45.306   3.240   8.592  0.00  0.00    +0.000 A 
ATOM     32  C   UNL     1      46.143   3.823   7.642  0.00  0.00    +0.000 A 
ATOM     33  N   UNL     1      47.041   3.111   6.921  0.00  0.00    +0.000 NA
ATOM     34  C   UNL     1      47.070   1.786   7.185  0.00  0.00    +0.000 A 
ATOM     35  C   UNL     1      46.248   1.199   8.132  0.00  0.00    +0.000 A 
ATOM     36  N   UNL     1      45.350   1.907   8.853  0.00  0.00    +0.000 NA
ENDBRANCH  30  31
ENDBRANCH  25  30
ENDBRANCH  24  25
ENDBRANCH   4  24
TORSDOF 10
ENDMDL
MODEL 9
REMARK VINA RESULT:    -7.180      2.675      3.827
REMARK INTER + INTRA:         -12.142
REMARK INTER:                  -9.877
REMARK INTRA:                  -2.265
REMARK UNBOUND:                -0.975
REMARK  Name = 
REMARK  10 active torsions:
REMARK  status: ('A' for Active; 'I' for Inactive)
REMARK    1  A    between atoms: C_2  and  C_23
REMARK    2  A    between atoms: N_3  and  C_4
REMARK    3  A    between atoms: C_4  and  C_5
REMARK    4  A    between atoms: C_8  and  C_9
REMARK    5  A    between atoms: C_9  and  N_10
REMARK    6  A    between atoms: N_10  and  C_11
REMARK    7  A    between atoms: N_10  and  C_14
REMARK    8  A    between atoms: C_11  and  C_12
REMARK    9  A    between atoms: C_12  and  O_13
REMARK   10  A    between atoms: C_14  and  C_15
REMARK                            x       y       z     vdW  Elec       q    Type
REMARK                         _______ _______ _______ _____ _____    ______ ____
ROOT
ATOM      1  C   UNL     1      48.530   8.965  12.287  0.00  0.00    +0.000 A 
ATOM      2  C   UNL     1      47.262   9.451  12.634  0.00  0.00    +0.000 A 
ATOM      3  C   UNL     1      46.120   8.683  12.400  0.00  0.00    +0.000 A 
ATOM      4  C   UNL     1      46.227   7.421  11.803  0.00  0.00    +0.000 A 
ATOM      5  C   UNL     1      47.500   6.895  11.550  0.00  0.00    +0.000 A 
ATOM      6  C   UNL     1      48.644   7.659  11.796  0.00  0.00    +0.000 A 
ENDROOT
BRANCH   1   7
ATOM      7  C   UNL     1      49.747   9.849  12.403  0.00  0.00    +0.000 C 
BRANCH   7  10
ATOM      8  N   UNL     1      49.751  10.051  15.354  0.00  0.00    +0.000 NA
ATOM      9  C   UNL     1      50.440   9.210  14.663  0.00  0.00    +0.000 C 
ATOM     10  N   UNL     1      50.714   9.296  13.329  0.00  0.00    +0.000 N 
ATOM     11  H   UNL     1      49.447  10.818  14.757  0.00  0.00    +0.000 HD
ATOM     12  H   UNL     1      51.134   8.460  12.922  0.00  0.00    +0.000 HD
BRANCH   9  13
ATOM     13  C   UNL     1      51.003   8.066  15.378  0.00  0.00    +0.000 A 
ATOM     14  C   UNL     1      52.350   8.027  15.712  0.00  0.00    +0.000 A 
ATOM     15  S   UNL     1      52.799   6.635  16.591  0.00  0.00    +0.000 S 
ATOM     16  C   UNL     1      51.199   6.053  16.592  0.00  0.00    +0.000 A 
ATOM     17  N   UNL     1      50.875   4.903  17.241  0.00  0.00    +0.000 NA
ATOM     18  C   UNL     1      49.616   4.609  17.199  0.00  0.00    +0.000 A 
ATOM     19  N   UNL     1      48.662   5.348  16.555  0.00  0.00    +0.000 N 
ATOM     20  C   UNL     1      48.953   6.490  15.847  0.00  0.00    +0.000 A 
ATOM     21  O   UNL     1      48.086   7.079  15.210  0.00  0.00    +0.000 OA
ATOM     22  C   UNL     1      50.345   6.891  15.900  0.00  0.00    +0.000 A 
ATOM     23  H   UNL     1      47.698   5.045  16.531  0.00  0.00    +0.000 HD
ENDBRANCH   9  13
ENDBRANCH   7  10
ENDBRANCH   1   7
BRANCH   4  24
ATOM     24  C   UNL     1      44.984   6.653  11.400  0.00  0.00    +0.000 C 
BRANCH  24  25
ATOM     25  N   UNL     1      45.199   5.180  11.313  0.00  0.00    +0.000 NA
BRANCH  25  26
ATOM     26  C   UNL     1      44.890   4.531  12.610  0.00  0.00    +0.000 C 
BRANCH  26  27
ATOM     27  C   UNL     1      46.110   3.992  13.381  0.00  0.00    +0.000 C 
BRANCH  27  28
ATOM     28  O   UNL     1      46.235   4.645  14.642  0.00  0.00    +0.000 OA
ATOM     29  H   UNL     1      46.178   5.602  14.479  0.00  0.00    +0.000 HD
ENDBRANCH  27  28
ENDBRANCH  26  27
ENDBRANCH  25  26
BRANCH  25  30
ATOM     30  C   UNL     1      44.345   4.623  10.235  0.00  0.00    +0.000 C 
BRANCH  30  31
ATOM     31  C   UNL     1      45.087   3.762   9.236  0.00  0.00    +0.000 A 
ATOM     32  C   UNL     1      45.185   2.385   9.423  0.00  0.00    +0.000 A 
ATOM     33  N   UNL     1      45.870   1.576   8.581  0.00  0.00    +0.000 NA
ATOM     34  C   UNL     1      46.461   2.201   7.538  0.00  0.00    +0.000 A 
ATOM     35  C   UNL     1      46.364   3.568   7.339  0.00  0.00    +0.000 A 
ATOM     36  N   UNL     1      45.681   4.377   8.179  0.00  0.00    +0.000 NA
ENDBRANCH  30  31
ENDBRANCH  25  30
ENDBRANCH  24  25
ENDBRANCH   4  24
TORSDOF 10
ENDMDL
