MODEL 1
REMARK VINA RESULT:    -7.732      0.000      0.000
REMARK INTER + INTRA:          -9.739
REMARK INTER:                  -9.088
REMARK INTRA:                  -0.652
REMARK UNBOUND:                -0.652
REMARK  Name = 
REMARK  3 active torsions:
REMARK  status: ('A' for Active; 'I' for Inactive)
REMARK    1  A    between atoms: C_4  and  C_5
REMARK    2  A    between atoms: C_5  and  C_6
REMARK    3  A    between atoms: C_10  and  C_11
REMARK                            x       y       z     vdW  Elec       q    Type
REMARK                         _______ _______ _______ _____ _____    ______ ____
ROOT
ATOM      1  C   UNL     1      45.729   5.051  11.928  0.00  0.00    +0.000 A 
ATOM      2  C   UNL     1      46.068   6.406  11.789  0.00  0.00    +0.000 A 
ATOM      3  C   UNL     1      46.803   7.069  12.771  0.00  0.00    +0.000 A 
ATOM      4  C   UNL     1      47.218   6.383  13.912  0.00  0.00    +0.000 A 
ATOM      5  C   UNL     1      46.965   5.011  14.065  0.00  0.00    +0.000 A 
ATOM      6  C   UNL     1      46.255   4.362  13.038  0.00  0.00    +0.000 A 
ENDROOT
BRANCH   5   7
ATOM      7  C   UNL     1      47.325   4.304  15.307  0.00  0.00    +0.000 A 
ATOM      8  C   UNL     1      47.279   4.907  16.563  0.00  0.00    +0.000 A 
ATOM      9  C   UNL     1      47.730   4.202  17.676  0.00  0.00    +0.000 A 
ATOM     10  C   UNL     1      48.222   2.913  17.511  0.00  0.00    +0.000 A 
ATOM     11  C   UNL     1      48.226   2.375  16.234  0.00  0.00    +0.000 A 
ATOM     12  N   UNL     1      47.775   3.031  15.144  0.00  0.00    +0.000 NA
ENDBRANCH   5   7
BRANCH   1  13
ATOM     13  C   UNL     1      44.676   4.400  11.024  0.00  0.00    +0.000 C 
ATOM     14  C   UNL     1      43.444   3.805  11.715  0.00  0.00    +0.000 C 
ATOM     15  C   UNL     1      43.314   5.109  11.001  0.00  0.00    +0.000 C 
BRANCH  13  19
ATOM     16  C   UNL     1      46.169   2.492   7.402  0.00  0.00    +0.000 A 
ATOM     17  C   UNL     1      46.175   3.880   7.511  0.00  0.00    +0.000 A 
ATOM     18  C   UNL     1      45.660   4.494   8.658  0.00  0.00    +0.000 A 
ATOM     19  C   UNL     1      45.137   3.741   9.724  0.00  0.00    +0.000 A 
ATOM     20  C   UNL     1      45.119   2.342   9.571  0.00  0.00    +0.000 A 
ATOM     21  C   UNL     1      45.633   1.722   8.428  0.00  0.00    +0.000 A 
ENDBRANCH  13  19
ENDBRANCH   1  13
TORSDOF 3
ENDMDL
MODEL 2
REMARK VINA RESULT:    -7.670      2.200      4.146
REMARK INTER + INTRA:          -9.667
REMARK INTER:                  -8.937
REMARK INTRA:                  -0.730
REMARK UNBOUND:                -0.652
REMARK  Name = 
REMARK  3 active torsions:
REMARK  status: ('A' for Active; 'I' for Inactive)
REMARK    1  A    between atoms: C_4  and  C_5
REMARK    2  A    between atoms: C_5  and  C_6
REMARK    3  A    between atoms: C_10  and  C_11
REMARK                            x       y       z     vdW  Elec       q    Type
REMARK                         _______ _______ _______ _____ _____    ______ ____
ROOT
ATOM      1  C   UNL     1      45.431   4.976  12.086  0.00  0.00    +0.000 A 
ATOM      2  C   UNL     1      45.804   4.292  13.254  0.00  0.00    +0.000 A 
ATOM      3  C   UNL     1      46.874   4.729  14.035  0.00  0.00    +0.000 A 
ATOM      4  C   UNL     1      47.589   5.866  13.662  0.00  0.00    +0.000 A 
ATOM      5  C   UNL     1      47.212   6.626  12.543  0.00  0.00    +0.000 A 
ATOM      6  C   UNL     1      46.103   6.181  11.798  0.00  0.00    +0.000 A 
ENDROOT
BRANCH   5   7
ATOM      7  C   UNL     1      48.016   7.777  12.097  0.00  0.00    +0.000 A 
ATOM      8  C   UNL     1      49.361   7.672  11.748  0.00  0.00    +0.000 A 
ATOM      9  C   UNL     1      50.077   8.824  11.432  0.00  0.00    +0.000 A 
ATOM     10  C   UNL     1      49.437  10.056  11.477  0.00  0.00    +0.000 A 
ATOM     11  C   UNL     1      48.095  10.082  11.821  0.00  0.00    +0.000 A 
ATOM     12  N   UNL     1      47.375   8.977  12.110  0.00  0.00    +0.000 NA
ENDBRANCH   5   7
BRANCH   1  13
ATOM     13  C   UNL     1      44.475   4.345  11.068  0.00  0.00    +0.000 C 
ATOM     14  C   UNL     1      43.212   3.678  11.625  0.00  0.00    +0.000 C 
ATOM     15  C   UNL     1      43.097   5.014  10.971  0.00  0.00    +0.000 C 
BRANCH  13  19
ATOM     16  C   UNL     1      46.316   2.680   7.486  0.00  0.00    +0.000 A 
ATOM     17  C   UNL     1      46.244   4.060   7.655  0.00  0.00    +0.000 A 
ATOM     18  C   UNL     1      45.620   4.595   8.787  0.00  0.00    +0.000 A 
ATOM     19  C   UNL     1      45.060   3.770   9.778  0.00  0.00    +0.000 A 
ATOM     20  C   UNL     1      45.123   2.380   9.564  0.00  0.00    +0.000 A 
ATOM     21  C   UNL     1      45.747   1.839   8.436  0.00  0.00    +0.000 A 
ENDBRANCH  13  19
ENDBRANCH   1  13
TORSDOF 3
ENDMDL
MODEL 3
REMARK VINA RESULT:    -7.105      3.025      5.162
REMARK INTER + INTRA:          -9.003
REMARK INTER:                  -8.331
REMARK INTRA:                  -0.672
REMARK UNBOUND:                -0.652
REMARK  Name = 
REMARK  3 active torsions:
REMARK  status: ('A' for Active; 'I' for Inactive)
REMARK    1  A    between atoms: C_4  and  C_5
REMARK    2  A    between atoms: C_5  and  C_6
REMARK    3  A    between atoms: C_10  and  C_11
REMARK                            x       y       z     vdW  Elec       q    Type
REMARK                         _______ _______ _______ _____ _____    ______ ____
ROOT
ATOM      1  C   UNL     1      45.139   5.652  12.004  0.00  0.00    +0.000 A 
ATOM      2  C   UNL     1      46.359   5.386  12.646  0.00  0.00    +0.000 A 
ATOM      3  C   UNL     1      47.230   6.417  12.995  0.00  0.00    +0.000 A 
ATOM      4  C   UNL     1      46.892   7.739  12.710  0.00  0.00    +0.000 A 
ATOM      5  C   UNL     1      45.655   8.064  12.133  0.00  0.00    +0.000 A 
ATOM      6  C   UNL     1      44.781   7.003  11.829  0.00  0.00    +0.000 A 
ENDROOT
BRANCH   5   7
ATOM      7  C   UNL     1      45.332   9.450  11.752  0.00  0.00    +0.000 A 
ATOM      8  C   UNL     1      46.210  10.514  11.949  0.00  0.00    +0.000 A 
ATOM      9  C   UNL     1      45.791  11.810  11.653  0.00  0.00    +0.000 A 
ATOM     10  C   UNL     1      44.505  12.014  11.172  0.00  0.00    +0.000 A 
ATOM     11  C   UNL     1      43.692  10.907  10.989  0.00  0.00    +0.000 A 
ATOM     12  N   UNL     1      44.083   9.641  11.249  0.00  0.00    +0.000 NA
ENDBRANCH   5   7
BRANCH   1  13
ATOM     13  C   UNL     1      44.328   4.531  11.346  0.00  0.00    +0.000 C 
ATOM     14  C   UNL     1      43.509   3.631  12.278  0.00  0.00    +0.000 C 
ATOM     15  C   UNL     1      42.804   4.672  11.475  0.00  0.00    +0.000 C 
BRANCH  13  19
ATOM     16  C   UNL     1      46.022   2.716   7.764  0.00  0.00    +0.000 A 
ATOM     17  C   UNL     1      46.001   4.101   7.900  0.00  0.00    +0.000 A 
ATOM     18  C   UNL     1      45.423   4.685   9.032  0.00  0.00    +0.000 A 
ATOM     19  C   UNL     1      44.861   3.904  10.057  0.00  0.00    +0.000 A 
ATOM     20  C   UNL     1      44.872   2.508   9.877  0.00  0.00    +0.000 A 
ATOM     21  C   UNL     1      45.450   1.918   8.749  0.00  0.00    +0.000 A 
ENDBRANCH  13  19
ENDBRANCH   1  13
TORSDOF 3
ENDMDL
MODEL 4
REMARK VINA RESULT:    -6.725      2.108      2.637
REMARK INTER + INTRA:          -8.556
REMARK INTER:                  -8.028
REMARK INTRA:                  -0.528
REMARK UNBOUND:                -0.652
REMARK  Name = 
REMARK  3 active torsions:
REMARK  status: ('A' for Active; 'I' for Inactive)
REMARK    1  A    between atoms: C_4  and  C_5
REMARK    2  A    between atoms: C_5  and  C_6
REMARK    3  A    between atoms: C_10  and  C_11
REMARK                            x       y       z     vdW  Elec       q    Type
REMARK                         _______ _______ _______ _____ _____    ______ ____
ROOT
ATOM      1  C   UNL     1      45.207   6.329  11.692  0.00  0.00    +0.000 A 
ATOM      2  C   UNL     1      44.724   7.626  11.461  0.00  0.00    +0.000 A 
ATOM      3  C   UNL     1      45.344   8.738  12.029  0.00  0.00    +0.000 A 
ATOM      4  C   UNL     1      46.467   8.571  12.838  0.00  0.00    +0.000 A 
ATOM      5  C   UNL     1      47.031   7.302  13.043  0.00  0.00    +0.000 A 
ATOM      6  C   UNL     1      46.405   6.204  12.423  0.00  0.00    +0.000 A 
ENDROOT
BRANCH   5   7
ATOM      7  C   UNL     1      48.164   7.111  13.965  0.00  0.00    +0.000 A 
ATOM      8  C   UNL     1      48.102   6.277  15.080  0.00  0.00    +0.000 A 
ATOM      9  C   UNL     1      49.182   6.228  15.958  0.00  0.00    +0.000 A 
ATOM     10  C   UNL     1      50.299   7.016  15.706  0.00  0.00    +0.000 A 
ATOM     11  C   UNL     1      50.294   7.810  14.572  0.00  0.00    +0.000 A 
ATOM     12  N   UNL     1      49.268   7.859  13.696  0.00  0.00    +0.000 NA
ENDBRANCH   5   7
BRANCH   1  13
ATOM     13  C   UNL     1      44.370   5.095  11.336  0.00  0.00    +0.000 C 
ATOM     14  C   UNL     1      43.684   4.366  12.498  0.00  0.00    +0.000 C 
ATOM     15  C   UNL     1      42.864   5.235  11.604  0.00  0.00    +0.000 C 
BRANCH  13  19
ATOM     16  C   UNL     1      45.722   2.650   7.992  0.00  0.00    +0.000 A 
ATOM     17  C   UNL     1      45.940   4.025   7.983  0.00  0.00    +0.000 A 
ATOM     18  C   UNL     1      45.473   4.815   9.038  0.00  0.00    +0.000 A 
ATOM     19  C   UNL     1      44.785   4.255  10.129  0.00  0.00    +0.000 A 
ATOM     20  C   UNL     1      44.555   2.866  10.096  0.00  0.00    +0.000 A 
ATOM     21  C   UNL     1      45.021   2.070   9.045  0.00  0.00    +0.000 A 
ENDBRANCH  13  19
ENDBRANCH   1  13
TORSDOF 3
ENDMDL
MODEL 5
REMARK VINA RESULT:    -6.181      3.190      3.581
REMARK INTER + INTRA:          -7.917
REMARK INTER:                  -7.648
REMARK INTRA:                  -0.269
REMARK UNBOUND:                -0.652
REMARK  Name = 
REMARK  3 active torsions:
REMARK  status: ('A' for Active; 'I' for Inactive)
REMARK    1  A    between atoms: C_4  and  C_5
REMARK    2  A    between atoms: C_5  and  C_6
REMARK    3  A    between atoms: C_10  and  C_11
REMARK                            x       y       z     vdW  Elec       q    Type
REMARK                         _______ _______ _______ _____ _____    ______ ____
ROOT
ATOM      1  C   UNL     1      44.962   5.594  10.980  0.00  0.00    +0.000 A 
ATOM      2  C   UNL     1      43.861   6.456  11.097  0.00  0.00    +0.000 A 
ATOM      3  C   UNL     1      43.999   7.732  11.643  0.00  0.00    +0.000 A 
ATOM      4  C   UNL     1      45.249   8.170  12.079  0.00  0.00    +0.000 A 
ATOM      5  C   UNL     1      46.394   7.374  11.919  0.00  0.00    +0.000 A 
ATOM      6  C   UNL     1      46.227   6.107  11.328  0.00  0.00    +0.000 A 
ENDROOT
BRANCH   5   7
ATOM      7  C   UNL     1      47.698   7.798  12.456  0.00  0.00    +0.000 A 
ATOM      8  C   UNL     1      47.826   8.661  13.543  0.00  0.00    +0.000 A 
ATOM      9  C   UNL     1      49.093   9.093  13.928  0.00  0.00    +0.000 A 
ATOM     10  C   UNL     1      50.204   8.658  13.217  0.00  0.00    +0.000 A 
ATOM     11  C   UNL     1      50.001   7.791  12.156  0.00  0.00    +0.000 A 
ATOM     12  N   UNL     1      48.785   7.343  11.777  0.00  0.00    +0.000 NA
ENDBRANCH   5   7
BRANCH   1  13
ATOM     13  C   UNL     1      44.774   4.104  10.676  0.00  0.00    +0.000 C 
ATOM     14  C   UNL     1      44.700   3.156  11.879  0.00  0.00    +0.000 C 
ATOM     15  C   UNL     1      43.443   3.507  11.156  0.00  0.00    +0.000 C 
BRANCH  13  19
ATOM     16  C   UNL     1      46.615   2.499   7.067  0.00  0.00    +0.000 A 
ATOM     17  C   UNL     1      46.447   3.873   7.211  0.00  0.00    +0.000 A 
ATOM     18  C   UNL     1      45.822   4.386   8.352  0.00  0.00    +0.000 A 
ATOM     19  C   UNL     1      45.357   3.544   9.378  0.00  0.00    +0.000 A 
ATOM     20  C   UNL     1      45.516   2.158   9.190  0.00  0.00    +0.000 A 
ATOM     21  C   UNL     1      46.141   1.639   8.052  0.00  0.00    +0.000 A 
ENDBRANCH  13  19
ENDBRANCH   1  13
TORSDOF 3
ENDMDL
MODEL 6
REMARK VINA RESULT:    -6.122      2.608      6.813
REMARK INTER + INTRA:          -7.848
REMARK INTER:                  -7.303
REMARK INTRA:                  -0.545
REMARK UNBOUND:                -0.652
REMARK  Name = 
REMARK  3 active torsions:
REMARK  status: ('A' for Active; 'I' for Inactive)
REMARK    1  A    between atoms: C_4  and  C_5
REMARK    2  A    between atoms: C_5  and  C_6
REMARK    3  A    between atoms: C_10  and  C_11
REMARK                            x       y       z     vdW  Elec       q    Type
REMARK                         _______ _______ _______ _____ _____    ______ ____
ROOT
ATOM      1  C   UNL     1      45.327   4.805  11.621  0.00  0.00    +0.000 A 
ATOM      2  C   UNL     1      43.981   5.188  11.511  0.00  0.00    +0.000 A 
ATOM      3  C   UNL     1      43.234   4.877  10.375  0.00  0.00    +0.000 A 
ATOM      4  C   UNL     1      43.822   4.171   9.327  0.00  0.00    +0.000 A 
ATOM      5  C   UNL     1      45.143   3.705   9.417  0.00  0.00    +0.000 A 
ATOM      6  C   UNL     1      45.858   4.000  10.594  0.00  0.00    +0.000 A 
ENDROOT
BRANCH   5   7
ATOM      7  C   UNL     1      45.794   3.034   8.279  0.00  0.00    +0.000 A 
ATOM      8  C   UNL     1      46.181   1.695   8.308  0.00  0.00    +0.000 A 
ATOM      9  C   UNL     1      46.881   1.162   7.227  0.00  0.00    +0.000 A 
ATOM     10  C   UNL     1      47.182   1.978   6.144  0.00  0.00    +0.000 A 
ATOM     11  C   UNL     1      46.753   3.295   6.179  0.00  0.00    +0.000 A 
ATOM     12  N   UNL     1      46.057   3.828   7.206  0.00  0.00    +0.000 NA
ENDBRANCH   5   7
BRANCH   1  13
ATOM     13  C   UNL     1      46.234   5.397  12.705  0.00  0.00    +0.000 C 
ATOM     14  C   UNL     1      45.956   4.967  14.150  0.00  0.00    +0.000 C 
ATOM     15  C   UNL     1      47.125   4.379  13.432  0.00  0.00    +0.000 C 
BRANCH  13  19
ATOM     16  C   UNL     1      47.994   9.358  12.254  0.00  0.00    +0.000 A 
ATOM     17  C   UNL     1      46.769   9.210  12.898  0.00  0.00    +0.000 A 
ATOM     18  C   UNL     1      46.185   7.943  13.009  0.00  0.00    +0.000 A 
ATOM     19  C   UNL     1      46.811   6.796  12.490  0.00  0.00    +0.000 A 
ATOM     20  C   UNL     1      48.036   6.983  11.819  0.00  0.00    +0.000 A 
ATOM     21  C   UNL     1      48.625   8.246  11.706  0.00  0.00    +0.000 A 
ENDBRANCH  13  19
ENDBRANCH   1  13
TORSDOF 3
ENDMDL
MODEL 7
REMARK VINA RESULT:    -6.060      2.804      7.194
REMARK INTER + INTRA:          -7.775
REMARK INTER:                  -7.148
REMARK INTRA:                  -0.627
REMARK UNBOUND:                -0.652
REMARK  Name = 
REMARK  3 active torsions:
REMARK  status: ('A' for Active; 'I' for Inactive)
REMARK    1  A    between atoms: C_4  and  C_5
REMARK    2  A    between atoms: C_5  and  C_6
REMARK    3  A    between atoms: C_10  and  C_11
REMARK                            x       y       z     vdW  Elec       q    Type
REMARK                         _______ _______ _______ _____ _____    ______ ____
ROOT
ATOM      1  C   UNL     1      47.046   7.744  12.349  0.00  0.00    +0.000 A 
ATOM      2  C   UNL     1      46.025   8.705  12.414  0.00  0.00    +0.000 A 
ATOM      3  C   UNL     1      44.784   8.481  11.818  0.00  0.00    +0.000 A 
ATOM      4  C   UNL     1      44.541   7.283  11.147  0.00  0.00    +0.000 A 
ATOM      5  C   UNL     1      45.504   6.262  11.114  0.00  0.00    +0.000 A 
ATOM      6  C   UNL     1      46.731   6.504  11.759  0.00  0.00    +0.000 A 
ENDROOT
BRANCH   5   7
ATOM      7  C   UNL     1      45.283   5.032  10.334  0.00  0.00    +0.000 A 
ATOM      8  C   UNL     1      45.620   4.918   8.986  0.00  0.00    +0.000 A 
ATOM      9  C   UNL     1      45.288   3.755   8.295  0.00  0.00    +0.000 A 
ATOM     10  C   UNL     1      44.623   2.734   8.962  0.00  0.00    +0.000 A 
ATOM     11  C   UNL     1      44.332   2.913  10.304  0.00  0.00    +0.000 A 
ATOM     12  N   UNL     1      44.662   4.022  11.001  0.00  0.00    +0.000 NA
ENDBRANCH   5   7
BRANCH   1  13
ATOM     13  C   UNL     1      48.490   8.095  12.721  0.00  0.00    +0.000 C 
ATOM     14  C   UNL     1      49.580   7.701  11.717  0.00  0.00    +0.000 C 
ATOM     15  C   UNL     1      49.163   9.131  11.808  0.00  0.00    +0.000 C 
BRANCH  13  19
ATOM     16  C   UNL     1      49.465   8.011  16.968  0.00  0.00    +0.000 A 
ATOM     17  C   UNL     1      48.520   8.914  16.488  0.00  0.00    +0.000 A 
ATOM     18  C   UNL     1      48.234   8.967  15.119  0.00  0.00    +0.000 A 
ATOM     19  C   UNL     1      48.877   8.119  14.200  0.00  0.00    +0.000 A 
ATOM     20  C   UNL     1      49.849   7.238  14.713  0.00  0.00    +0.000 A 
ATOM     21  C   UNL     1      50.137   7.179  16.080  0.00  0.00    +0.000 A 
ENDBRANCH  13  19
ENDBRANCH   1  13
TORSDOF 3
ENDMDL
MODEL 8
REMARK VINA RESULT:    -5.914      2.045      8.046
REMARK INTER + INTRA:          -7.603
REMARK INTER:                  -7.200
REMARK INTRA:                  -0.403
REMARK UNBOUND:                -0.652
REMARK  Name = 
REMARK  3 active torsions:
REMARK  status: ('A' for Active; 'I' for Inactive)
REMARK    1  A    between atoms: C_4  and  C_5
REMARK    2  A    between atoms: C_5  and  C_6
REMARK    3  A    between atoms: C_10  and  C_11
REMARK                            x       y       z     vdW  Elec       q    Type
REMARK                         _______ _______ _______ _____ _____    ______ ____
ROOT
ATOM      1  C   UNL     1      48.019   5.147  16.320  0.00  0.00    +0.000 A 
ATOM      2  C   UNL     1      48.879   6.238  16.114  0.00  0.00    +0.000 A 
ATOM      3  C   UNL     1      48.918   6.903  14.890  0.00  0.00    +0.000 A 
ATOM      4  C   UNL     1      48.090   6.491  13.846  0.00  0.00    +0.000 A 
ATOM      5  C   UNL     1      47.163   5.452  14.023  0.00  0.00    +0.000 A 
ATOM      6  C   UNL     1      47.120   4.827  15.284  0.00  0.00    +0.000 A 
ENDROOT
BRANCH   5   7
ATOM      7  C   UNL     1      46.349   4.957  12.900  0.00  0.00    +0.000 A 
ATOM      8  C   UNL     1      46.063   5.728  11.774  0.00  0.00    +0.000 A 
ATOM      9  C   UNL     1      45.204   5.223  10.800  0.00  0.00    +0.000 A 
ATOM     10  C   UNL     1      44.647   3.963  10.973  0.00  0.00    +0.000 A 
ATOM     11  C   UNL     1      44.987   3.250  12.111  0.00  0.00    +0.000 A 
ATOM     12  N   UNL     1      45.833   3.709  13.058  0.00  0.00    +0.000 NA
ENDBRANCH   5   7
BRANCH   1  13
ATOM     13  C   UNL     1      48.184   4.226  17.533  0.00  0.00    +0.000 C 
ATOM     14  C   UNL     1      47.550   2.833  17.435  0.00  0.00    +0.000 C 
ATOM     15  C   UNL     1      49.028   2.968  17.283  0.00  0.00    +0.000 C 
BRANCH  13  19
ATOM     16  C   UNL     1      48.534   6.184  21.411  0.00  0.00    +0.000 A 
ATOM     17  C   UNL     1      49.479   5.240  21.019  0.00  0.00    +0.000 A 
ATOM     18  C   UNL     1      49.346   4.583  19.791  0.00  0.00    +0.000 A 
ATOM     19  C   UNL     1      48.274   4.857  18.922  0.00  0.00    +0.000 A 
ATOM     20  C   UNL     1      47.320   5.796  19.360  0.00  0.00    +0.000 A 
ATOM     21  C   UNL     1      47.448   6.456  20.585  0.00  0.00    +0.000 A 
ENDBRANCH  13  19
ENDBRANCH   1  13
TORSDOF 3
ENDMDL
MODEL 9
REMARK VINA RESULT:    -5.704      2.292      6.953
REMARK INTER + INTRA:          -7.356
REMARK INTER:                  -6.812
REMARK INTRA:                  -0.545
REMARK UNBOUND:                -0.652
REMARK  Name = 
REMARK  3 active torsions:
REMARK  status: ('A' for Active; 'I' for Inactive)
REMARK    1  A    between atoms: C_4  and  C_5
REMARK    2  A    between atoms: C_5  and  C_6
REMARK    3  A    between atoms: C_10  and  C_11
REMARK                            x       y       z     vdW  Elec       q    Type
REMARK                         _______ _______ _______ _____ _____    ______ ____
ROOT
ATOM      1  C   UNL     1      48.446   7.082  14.435  0.00  0.00    +0.000 A 
ATOM      2  C   UNL     1      49.332   7.517  13.437  0.00  0.00    +0.000 A 
ATOM      3  C   UNL     1      49.000   7.420  12.086  0.00  0.00    +0.000 A 
ATOM      4  C   UNL     1      47.768   6.887  11.709  0.00  0.00    +0.000 A 
ATOM      5  C   UNL     1      46.819   6.502  12.669  0.00  0.00    +0.000 A 
ATOM      6  C   UNL     1      47.169   6.650  14.025  0.00  0.00    +0.000 A 
ENDROOT
BRANCH   5   7
ATOM      7  C   UNL     1      45.554   5.860  12.275  0.00  0.00    +0.000 A 
ATOM      8  C   UNL     1      45.280   5.464  10.967  0.00  0.00    +0.000 A 
ATOM      9  C   UNL     1      44.021   4.954  10.657  0.00  0.00    +0.000 A 
ATOM     10  C   UNL     1      43.063   4.854  11.657  0.00  0.00    +0.000 A 
ATOM     11  C   UNL     1      43.411   5.255  12.937  0.00  0.00    +0.000 A 
ATOM     12  N   UNL     1      44.630   5.733  13.266  0.00  0.00    +0.000 NA
ENDBRANCH   5   7
BRANCH   1  13
ATOM     13  C   UNL     1      48.912   6.897  15.883  0.00  0.00    +0.000 C 
ATOM     14  C   UNL     1      50.006   7.847  16.385  0.00  0.00    +0.000 C 
ATOM     15  C   UNL     1      48.596   8.071  16.821  0.00  0.00    +0.000 C 
BRANCH  13  19
ATOM     16  C   UNL     1      48.887   2.830  17.449  0.00  0.00    +0.000 A 
ATOM     17  C   UNL     1      47.769   3.327  16.784  0.00  0.00    +0.000 A 
ATOM     18  C   UNL     1      47.763   4.645  16.315  0.00  0.00    +0.000 A 
ATOM     19  C   UNL     1      48.870   5.494  16.489  0.00  0.00    +0.000 A 
ATOM     20  C   UNL     1      49.974   4.971  17.190  0.00  0.00    +0.000 A 
ATOM     21  C   UNL     1      49.987   3.654  17.660  0.00  0.00    +0.000 A 
ENDBRANCH  13  19
ENDBRANCH   1  13
TORSDOF 3
ENDMDL
