MODEL 1
REMARK VINA RESULT:    -7.704      0.000      0.000
REMARK INTER + INTRA:         -10.925
REMARK INTER:                  -9.956
REMARK INTRA:                  -0.969
REMARK UNBOUND:                -0.969
REMARK  Name = 
REMARK  5 active torsions:
REMARK  status: ('A' for Active; 'I' for Inactive)
REMARK    1  A    between atoms: C_2  and  C_18
REMARK    2  A    between atoms: N_3  and  C_4
REMARK    3  A    between atoms: C_4  and  C_5
REMARK    4  A    between atoms: C_8  and  C_9
REMARK    5  A    between atoms: C_9  and  C_10
REMARK                            x       y       z     vdW  Elec       q    Type
REMARK                         _______ _______ _______ _____ _____    ______ ____
ROOT
ATOM      1  O   UNL     1      48.193   7.973  12.708  0.00  0.00    +0.000 OA
ATOM      2  C   UNL     1      47.580   7.444  13.627  0.00  0.00    +0.000 C 
ATOM      3  N   UNL     1      46.218   7.241  13.608  0.00  0.00    +0.000 N 
ATOM      4  H   UNL     1      45.751   6.965  14.459  0.00  0.00    +0.000 HD
ENDROOT
BRANCH   2   5
ATOM      5  C   UNL     1      48.255   6.920  14.815  0.00  0.00    +0.000 A 
ATOM      6  C   UNL     1      49.171   7.660  15.552  0.00  0.00    +0.000 A 
ATOM      7  S   UNL     1      49.714   6.846  16.957  0.00  0.00    +0.000 S 
ATOM      8  C   UNL     1      48.739   5.493  16.616  0.00  0.00    +0.000 A 
ATOM      9  N   UNL     1      48.709   4.423  17.456  0.00  0.00    +0.000 NA
ATOM     10  C   UNL     1      47.915   3.476  17.077  0.00  0.00    +0.000 A 
ATOM     11  N   UNL     1      47.161   3.496  15.931  0.00  0.00    +0.000 N 
ATOM     12  C   UNL     1      47.221   4.517  15.011  0.00  0.00    +0.000 A 
ATOM     13  O   UNL     1      46.675   4.412  13.921  0.00  0.00    +0.000 OA
ATOM     14  C   UNL     1      48.039   5.641  15.434  0.00  0.00    +0.000 A 
ATOM     15  H   UNL     1      46.607   2.698  15.658  0.00  0.00    +0.000 HD
ENDBRANCH   2   5
BRANCH   3  16
ATOM     16  C   UNL     1      45.402   7.691  12.505  0.00  0.00    +0.000 C 
BRANCH  16  17
ATOM     17  C   UNL     1      45.236   6.620  11.460  0.00  0.00    +0.000 A 
ATOM     18  C   UNL     1      46.195   6.473  10.451  0.00  0.00    +0.000 A 
ATOM     19  C   UNL     1      46.061   5.475   9.484  0.00  0.00    +0.000 A 
ATOM     20  C   UNL     1      44.961   4.609   9.497  0.00  0.00    +0.000 A 
ATOM     21  C   UNL     1      43.989   4.770  10.493  0.00  0.00    +0.000 A 
ATOM     22  C   UNL     1      44.121   5.772  11.461  0.00  0.00    +0.000 A 
BRANCH  20  23
ATOM     23  C   UNL     1      44.808   3.544   8.438  0.00  0.00    +0.000 C 
BRANCH  23  24
ATOM     24  C   UNL     1      46.105   2.794   8.050  0.00  0.00    +0.000 C 
ATOM     25  C   UNL     1      46.528   3.107   6.604  0.00  0.00    +0.000 C 
ATOM     26  C   UNL     1      47.494   2.087   6.018  0.00  0.00    +0.000 C 
ATOM     27  O   UNL     1      46.989   0.766   6.179  0.00  0.00    +0.000 OA
ATOM     28  C   UNL     1      46.915   0.413   7.557  0.00  0.00    +0.000 C 
ATOM     29  C   UNL     1      45.896   1.283   8.278  0.00  0.00    +0.000 C 
ENDBRANCH  23  24
ENDBRANCH  20  23
ENDBRANCH  16  17
ENDBRANCH   3  16
TORSDOF 5
ENDMDL
MODEL 2
REMARK VINA RESULT:    -7.054      3.834      8.133
REMARK INTER + INTRA:         -10.084
REMARK INTER:                  -9.070
REMARK INTRA:                  -1.015
REMARK UNBOUND:                -0.969
REMARK  Name = 
REMARK  5 active torsions:
REMARK  status: ('A' for Active; 'I' for Inactive)
REMARK    1  A    between atoms: C_2  and  C_18
REMARK    2  A    between atoms: N_3  and  C_4
REMARK    3  A    between atoms: C_4  and  C_5
REMARK    4  A    between atoms: C_8  and  C_9
REMARK    5  A    between atoms: C_9  and  C_10
REMARK                            x       y       z     vdW  Elec       q    Type
REMARK                         _______ _______ _______ _____ _____    ______ ____
ROOT
ATOM      1  O   UNL     1      47.866   6.817  11.742  0.00  0.00    +0.000 OA
ATOM      2  C   UNL     1      46.938   6.817  12.542  0.00  0.00    +0.000 C 
ATOM      3  N   UNL     1      47.058   7.268  13.837  0.00  0.00    +0.000 N 
ATOM      4  H   UNL     1      46.315   7.079  14.493  0.00  0.00    +0.000 HD
ENDROOT
BRANCH   2   5
ATOM      5  C   UNL     1      45.588   6.389  12.170  0.00  0.00    +0.000 A 
ATOM      6  C   UNL     1      44.651   7.245  11.608  0.00  0.00    +0.000 A 
ATOM      7  S   UNL     1      43.201   6.453  11.163  0.00  0.00    +0.000 S 
ATOM      8  C   UNL     1      43.791   4.951  11.707  0.00  0.00    +0.000 A 
ATOM      9  N   UNL     1      43.042   3.821  11.590  0.00  0.00    +0.000 NA
ATOM     10  C   UNL     1      43.622   2.755  12.032  0.00  0.00    +0.000 A 
ATOM     11  N   UNL     1      44.874   2.717  12.591  0.00  0.00    +0.000 N 
ATOM     12  C   UNL     1      45.634   3.844  12.807  0.00  0.00    +0.000 A 
ATOM     13  O   UNL     1      46.661   3.791  13.471  0.00  0.00    +0.000 OA
ATOM     14  C   UNL     1      45.056   5.057  12.251  0.00  0.00    +0.000 A 
ATOM     15  H   UNL     1      45.248   1.863  12.976  0.00  0.00    +0.000 HD
ENDBRANCH   2   5
BRANCH   3  16
ATOM     16  C   UNL     1      48.320   7.731  14.362  0.00  0.00    +0.000 C 
BRANCH  16  17
ATOM     17  C   UNL     1      48.887   6.777  15.380  0.00  0.00    +0.000 A 
ATOM     18  C   UNL     1      50.214   6.911  15.801  0.00  0.00    +0.000 A 
ATOM     19  C   UNL     1      50.748   6.043  16.756  0.00  0.00    +0.000 A 
ATOM     20  C   UNL     1      49.970   5.014  17.301  0.00  0.00    +0.000 A 
ATOM     21  C   UNL     1      48.648   4.865  16.863  0.00  0.00    +0.000 A 
ATOM     22  C   UNL     1      48.113   5.733  15.905  0.00  0.00    +0.000 A 
BRANCH  20  23
ATOM     23  C   UNL     1      50.556   4.063  18.318  0.00  0.00    +0.000 C 
BRANCH  23  24
ATOM     24  C   UNL     1      51.782   3.246  17.841  0.00  0.00    +0.000 C 
ATOM     25  C   UNL     1      51.397   1.793  17.510  0.00  0.00    +0.000 C 
ATOM     26  C   UNL     1      52.584   0.840  17.484  0.00  0.00    +0.000 C 
ATOM     27  O   UNL     1      53.350   0.958  18.679  0.00  0.00    +0.000 OA
ATOM     28  C   UNL     1      53.949   2.247  18.775  0.00  0.00    +0.000 C 
ATOM     29  C   UNL     1      52.882   3.322  18.918  0.00  0.00    +0.000 C 
ENDBRANCH  23  24
ENDBRANCH  20  23
ENDBRANCH  16  17
ENDBRANCH   3  16
TORSDOF 5
ENDMDL
MODEL 3
REMARK VINA RESULT:    -6.880      2.797      3.861
REMARK INTER + INTRA:          -9.860
REMARK INTER:                  -9.050
REMARK INTRA:                  -0.810
REMARK UNBOUND:                -0.969
REMARK  Name = 
REMARK  5 active torsions:
REMARK  status: ('A' for Active; 'I' for Inactive)
REMARK    1  A    between atoms: C_2  and  C_18
REMARK    2  A    between atoms: N_3  and  C_4
REMARK    3  A    between atoms: C_4  and  C_5
REMARK    4  A    between atoms: C_8  and  C_9
REMARK    5  A    between atoms: C_9  and  C_10
REMARK                            x       y       z     vdW  Elec       q    Type
REMARK                         _______ _______ _______ _____ _____    ______ ____
ROOT
ATOM      1  O   UNL     1      50.245   6.022  16.071  0.00  0.00    +0.000 OA
ATOM      2  C   UNL     1      49.068   6.232  16.342  0.00  0.00    +0.000 C 
ATOM      3  N   UNL     1      48.096   6.427  15.387  0.00  0.00    +0.000 N 
ATOM      4  H   UNL     1      47.191   6.768  15.670  0.00  0.00    +0.000 HD
ENDROOT
BRANCH   2   5
ATOM      5  C   UNL     1      48.574   6.236  17.720  0.00  0.00    +0.000 A 
ATOM      6  C   UNL     1      48.534   5.097  18.513  0.00  0.00    +0.000 A 
ATOM      7  S   UNL     1      48.026   5.414  20.116  0.00  0.00    +0.000 S 
ATOM      8  C   UNL     1      47.850   7.076  19.790  0.00  0.00    +0.000 A 
ATOM      9  N   UNL     1      47.461   7.942  20.764  0.00  0.00    +0.000 NA
ATOM     10  C   UNL     1      47.384   9.172  20.376  0.00  0.00    +0.000 A 
ATOM     11  N   UNL     1      47.646   9.612  19.103  0.00  0.00    +0.000 N 
ATOM     12  C   UNL     1      47.961   8.764  18.066  0.00  0.00    +0.000 A 
ATOM     13  O   UNL     1      48.007   9.172  16.914  0.00  0.00    +0.000 OA
ATOM     14  C   UNL     1      48.139   7.380  18.474  0.00  0.00    +0.000 A 
ATOM     15  H   UNL     1      47.507  10.577  18.846  0.00  0.00    +0.000 HD
ENDBRANCH   2   5
BRANCH   3  16
ATOM     16  C   UNL     1      48.414   6.445  13.978  0.00  0.00    +0.000 C 
BRANCH  16  17
ATOM     17  C   UNL     1      47.242   6.019  13.135  0.00  0.00    +0.000 A 
ATOM     18  C   UNL     1      46.755   6.867  12.135  0.00  0.00    +0.000 A 
ATOM     19  C   UNL     1      45.679   6.479  11.335  0.00  0.00    +0.000 A 
ATOM     20  C   UNL     1      45.058   5.238  11.526  0.00  0.00    +0.000 A 
ATOM     21  C   UNL     1      45.529   4.398  12.542  0.00  0.00    +0.000 A 
ATOM     22  C   UNL     1      46.607   4.787  13.345  0.00  0.00    +0.000 A 
BRANCH  20  23
ATOM     23  C   UNL     1      43.880   4.829  10.673  0.00  0.00    +0.000 C 
BRANCH  23  24
ATOM     24  C   UNL     1      44.220   3.983   9.422  0.00  0.00    +0.000 C 
ATOM     25  C   UNL     1      44.422   2.500   9.780  0.00  0.00    +0.000 C 
ATOM     26  C   UNL     1      45.188   1.718   8.723  0.00  0.00    +0.000 C 
ATOM     27  O   UNL     1      46.401   2.382   8.386  0.00  0.00    +0.000 OA
ATOM     28  C   UNL     1      46.140   3.634   7.761  0.00  0.00    +0.000 C 
ATOM     29  C   UNL     1      45.461   4.587   8.734  0.00  0.00    +0.000 C 
ENDBRANCH  23  24
ENDBRANCH  20  23
ENDBRANCH  16  17
ENDBRANCH   3  16
TORSDOF 5
ENDMDL
MODEL 4
REMARK VINA RESULT:    -6.847      4.466      9.975
REMARK INTER + INTRA:          -9.817
REMARK INTER:                  -8.766
REMARK INTRA:                  -1.051
REMARK UNBOUND:                -0.969
REMARK  Name = 
REMARK  5 active torsions:
REMARK  status: ('A' for Active; 'I' for Inactive)
REMARK    1  A    between atoms: C_2  and  C_18
REMARK    2  A    between atoms: N_3  and  C_4
REMARK    3  A    between atoms: C_4  and  C_5
REMARK    4  A    between atoms: C_8  and  C_9
REMARK    5  A    between atoms: C_9  and  C_10
REMARK                            x       y       z     vdW  Elec       q    Type
REMARK                         _______ _______ _______ _____ _____    ______ ____
ROOT
ATOM      1  O   UNL     1      48.507   6.027  13.714  0.00  0.00    +0.000 OA
ATOM      2  C   UNL     1      47.367   5.657  13.969  0.00  0.00    +0.000 C 
ATOM      3  N   UNL     1      47.025   5.011  15.137  0.00  0.00    +0.000 N 
ATOM      4  H   UNL     1      46.118   4.578  15.211  0.00  0.00    +0.000 HD
ENDROOT
BRANCH   2   5
ATOM      5  C   UNL     1      46.242   5.923  13.071  0.00  0.00    +0.000 A 
ATOM      6  C   UNL     1      45.825   7.206  12.741  0.00  0.00    +0.000 A 
ATOM      7  S   UNL     1      44.567   7.224  11.581  0.00  0.00    +0.000 S 
ATOM      8  C   UNL     1      44.552   5.524  11.491  0.00  0.00    +0.000 A 
ATOM      9  N   UNL     1      43.707   4.875  10.645  0.00  0.00    +0.000 NA
ATOM     10  C   UNL     1      43.815   3.588  10.673  0.00  0.00    +0.000 A 
ATOM     11  N   UNL     1      44.679   2.891  11.480  0.00  0.00    +0.000 N 
ATOM     12  C   UNL     1      45.492   3.498  12.410  0.00  0.00    +0.000 A 
ATOM     13  O   UNL     1      46.110   2.833  13.231  0.00  0.00    +0.000 OA
ATOM     14  C   UNL     1      45.463   4.950  12.356  0.00  0.00    +0.000 A 
ATOM     15  H   UNL     1      44.672   1.883  11.502  0.00  0.00    +0.000 HD
ENDBRANCH   2   5
BRANCH   3  16
ATOM     16  C   UNL     1      48.016   4.679  16.133  0.00  0.00    +0.000 C 
BRANCH  16  17
ATOM     17  C   UNL     1      47.989   5.642  17.291  0.00  0.00    +0.000 A 
ATOM     18  C   UNL     1      48.663   6.865  17.199  0.00  0.00    +0.000 A 
ATOM     19  C   UNL     1      48.634   7.773  18.258  0.00  0.00    +0.000 A 
ATOM     20  C   UNL     1      47.940   7.475  19.437  0.00  0.00    +0.000 A 
ATOM     21  C   UNL     1      47.285   6.241  19.540  0.00  0.00    +0.000 A 
ATOM     22  C   UNL     1      47.315   5.329  18.479  0.00  0.00    +0.000 A 
BRANCH  20  23
ATOM     23  C   UNL     1      47.928   8.450  20.590  0.00  0.00    +0.000 C 
BRANCH  23  24
ATOM     24  C   UNL     1      46.729   9.430  20.626  0.00  0.00    +0.000 C 
ATOM     25  C   UNL     1      47.023  10.711  19.827  0.00  0.00    +0.000 C 
ATOM     26  C   UNL     1      46.112  11.876  20.188  0.00  0.00    +0.000 C 
ATOM     27  O   UNL     1      46.097  12.085  21.596  0.00  0.00    +0.000 OA
ATOM     28  C   UNL     1      45.515  10.975  22.271  0.00  0.00    +0.000 C 
ATOM     29  C   UNL     1      46.376   9.732  22.096  0.00  0.00    +0.000 C 
ENDBRANCH  23  24
ENDBRANCH  20  23
ENDBRANCH  16  17
ENDBRANCH   3  16
TORSDOF 5
ENDMDL
MODEL 5
REMARK VINA RESULT:    -6.770      2.430      3.327
REMARK INTER + INTRA:          -9.717
REMARK INTER:                  -9.347
REMARK INTRA:                  -0.370
REMARK UNBOUND:                -0.969
REMARK  Name = 
REMARK  5 active torsions:
REMARK  status: ('A' for Active; 'I' for Inactive)
REMARK    1  A    between atoms: C_2  and  C_18
REMARK    2  A    between atoms: N_3  and  C_4
REMARK    3  A    between atoms: C_4  and  C_5
REMARK    4  A    between atoms: C_8  and  C_9
REMARK    5  A    between atoms: C_9  and  C_10
REMARK                            x       y       z     vdW  Elec       q    Type
REMARK                         _______ _______ _______ _____ _____    ______ ____
ROOT
ATOM      1  O   UNL     1      50.364   6.225  15.841  0.00  0.00    +0.000 OA
ATOM      2  C   UNL     1      49.237   6.623  16.108  0.00  0.00    +0.000 C 
ATOM      3  N   UNL     1      48.267   6.843  15.155  0.00  0.00    +0.000 N 
ATOM      4  H   UNL     1      47.426   7.334  15.416  0.00  0.00    +0.000 HD
ENDROOT
BRANCH   2   5
ATOM      5  C   UNL     1      48.795   6.846  17.486  0.00  0.00    +0.000 A 
ATOM      6  C   UNL     1      48.222   8.037  17.913  0.00  0.00    +0.000 A 
ATOM      7  S   UNL     1      47.691   7.979  19.539  0.00  0.00    +0.000 S 
ATOM      8  C   UNL     1      48.210   6.367  19.709  0.00  0.00    +0.000 A 
ATOM      9  N   UNL     1      48.026   5.692  20.876  0.00  0.00    +0.000 NA
ATOM     10  C   UNL     1      48.457   4.474  20.855  0.00  0.00    +0.000 A 
ATOM     11  N   UNL     1      49.067   3.876  19.782  0.00  0.00    +0.000 N 
ATOM     12  C   UNL     1      49.350   4.543  18.612  0.00  0.00    +0.000 A 
ATOM     13  O   UNL     1      50.055   4.030  17.753  0.00  0.00    +0.000 OA
ATOM     14  C   UNL     1      48.811   5.891  18.560  0.00  0.00    +0.000 A 
ATOM     15  H   UNL     1      49.439   2.941  19.849  0.00  0.00    +0.000 HD
ENDBRANCH   2   5
BRANCH   3  16
ATOM     16  C   UNL     1      48.537   6.663  13.749  0.00  0.00    +0.000 C 
BRANCH  16  17
ATOM     17  C   UNL     1      47.324   6.167  13.006  0.00  0.00    +0.000 A 
ATOM     18  C   UNL     1      46.736   6.963  12.017  0.00  0.00    +0.000 A 
ATOM     19  C   UNL     1      45.621   6.509  11.310  0.00  0.00    +0.000 A 
ATOM     20  C   UNL     1      45.061   5.255  11.585  0.00  0.00    +0.000 A 
ATOM     21  C   UNL     1      45.634   4.468  12.591  0.00  0.00    +0.000 A 
ATOM     22  C   UNL     1      46.751   4.922  13.301  0.00  0.00    +0.000 A 
BRANCH  20  23
ATOM     23  C   UNL     1      43.841   4.776  10.834  0.00  0.00    +0.000 C 
BRANCH  23  24
ATOM     24  C   UNL     1      44.124   3.940   9.561  0.00  0.00    +0.000 C 
ATOM     25  C   UNL     1      44.351   2.456   9.899  0.00  0.00    +0.000 C 
ATOM     26  C   UNL     1      45.068   1.685   8.800  0.00  0.00    +0.000 C 
ATOM     27  O   UNL     1      46.260   2.358   8.409  0.00  0.00    +0.000 OA
ATOM     28  C   UNL     1      45.962   3.613   7.805  0.00  0.00    +0.000 C 
ATOM     29  C   UNL     1      45.327   4.555   8.818  0.00  0.00    +0.000 C 
ENDBRANCH  23  24
ENDBRANCH  20  23
ENDBRANCH  16  17
ENDBRANCH   3  16
TORSDOF 5
ENDMDL
MODEL 6
REMARK VINA RESULT:    -6.698      3.009      4.002
REMARK INTER + INTRA:          -9.625
REMARK INTER:                  -8.345
REMARK INTRA:                  -1.280
REMARK UNBOUND:                -0.969
REMARK  Name = 
REMARK  5 active torsions:
REMARK  status: ('A' for Active; 'I' for Inactive)
REMARK    1  A    between atoms: C_2  and  C_18
REMARK    2  A    between atoms: N_3  and  C_4
REMARK    3  A    between atoms: C_4  and  C_5
REMARK    4  A    between atoms: C_8  and  C_9
REMARK    5  A    between atoms: C_9  and  C_10
REMARK                            x       y       z     vdW  Elec       q    Type
REMARK                         _______ _______ _______ _____ _____    ______ ____
ROOT
ATOM      1  O   UNL     1      48.484   8.500  16.224  0.00  0.00    +0.000 OA
ATOM      2  C   UNL     1      49.008   7.454  15.863  0.00  0.00    +0.000 C 
ATOM      3  N   UNL     1      49.353   7.193  14.556  0.00  0.00    +0.000 N 
ATOM      4  H   UNL     1      49.615   6.254  14.295  0.00  0.00    +0.000 HD
ENDROOT
BRANCH   2   5
ATOM      5  C   UNL     1      49.372   6.397  16.810  0.00  0.00    +0.000 A 
ATOM      6  C   UNL     1      50.391   6.536  17.742  0.00  0.00    +0.000 A 
ATOM      7  S   UNL     1      50.520   5.196  18.798  0.00  0.00    +0.000 S 
ATOM      8  C   UNL     1      49.219   4.402  18.038  0.00  0.00    +0.000 A 
ATOM      9  N   UNL     1      48.784   3.191  18.480  0.00  0.00    +0.000 NA
ATOM     10  C   UNL     1      47.782   2.716  17.817  0.00  0.00    +0.000 A 
ATOM     11  N   UNL     1      47.187   3.333  16.746  0.00  0.00    +0.000 N 
ATOM     12  C   UNL     1      47.644   4.516  16.211  0.00  0.00    +0.000 A 
ATOM     13  O   UNL     1      47.202   4.937  15.151  0.00  0.00    +0.000 OA
ATOM     14  C   UNL     1      48.718   5.128  16.975  0.00  0.00    +0.000 A 
ATOM     15  H   UNL     1      46.447   2.882  16.229  0.00  0.00    +0.000 HD
ENDBRANCH   2   5
BRANCH   3  16
ATOM     16  C   UNL     1      49.070   8.133  13.498  0.00  0.00    +0.000 C 
BRANCH  16  17
ATOM     17  C   UNL     1      47.736   7.864  12.853  0.00  0.00    +0.000 A 
ATOM     18  C   UNL     1      47.597   6.806  11.948  0.00  0.00    +0.000 A 
ATOM     19  C   UNL     1      46.362   6.536  11.356  0.00  0.00    +0.000 A 
ATOM     20  C   UNL     1      45.242   7.325  11.645  0.00  0.00    +0.000 A 
ATOM     21  C   UNL     1      45.385   8.399  12.532  0.00  0.00    +0.000 A 
ATOM     22  C   UNL     1      46.623   8.671  13.126  0.00  0.00    +0.000 A 
BRANCH  20  23
ATOM     23  C   UNL     1      43.912   7.044  10.985  0.00  0.00    +0.000 C 
BRANCH  23  24
ATOM     24  C   UNL     1      43.224   5.721  11.404  0.00  0.00    +0.000 C 
ATOM     25  C   UNL     1      43.388   5.451  12.909  0.00  0.00    +0.000 C 
ATOM     26  C   UNL     1      43.152   3.998  13.295  0.00  0.00    +0.000 C 
ATOM     27  O   UNL     1      43.932   3.128  12.482  0.00  0.00    +0.000 OA
ATOM     28  C   UNL     1      43.515   3.191  11.122  0.00  0.00    +0.000 C 
ATOM     29  C   UNL     1      43.787   4.572  10.544  0.00  0.00    +0.000 C 
ENDBRANCH  23  24
ENDBRANCH  20  23
ENDBRANCH  16  17
ENDBRANCH   3  16
TORSDOF 5
ENDMDL
MODEL 7
REMARK VINA RESULT:    -6.669      3.753      9.301
REMARK INTER + INTRA:          -9.587
REMARK INTER:                  -8.738
REMARK INTRA:                  -0.849
REMARK UNBOUND:                -0.969
REMARK  Name = 
REMARK  5 active torsions:
REMARK  status: ('A' for Active; 'I' for Inactive)
REMARK    1  A    between atoms: C_2  and  C_18
REMARK    2  A    between atoms: N_3  and  C_4
REMARK    3  A    between atoms: C_4  and  C_5
REMARK    4  A    between atoms: C_8  and  C_9
REMARK    5  A    between atoms: C_9  and  C_10
REMARK                            x       y       z     vdW  Elec       q    Type
REMARK                         _______ _______ _______ _____ _____    ______ ____
ROOT
ATOM      1  O   UNL     1      47.822   6.864  11.855  0.00  0.00    +0.000 OA
ATOM      2  C   UNL     1      46.950   6.490  12.629  0.00  0.00    +0.000 C 
ATOM      3  N   UNL     1      47.143   6.379  13.988  0.00  0.00    +0.000 N 
ATOM      4  H   UNL     1      46.452   5.900  14.545  0.00  0.00    +0.000 HD
ENDROOT
BRANCH   2   5
ATOM      5  C   UNL     1      45.591   6.178  12.182  0.00  0.00    +0.000 A 
ATOM      6  C   UNL     1      44.735   7.130  11.643  0.00  0.00    +0.000 A 
ATOM      7  S   UNL     1      43.256   6.467  11.096  0.00  0.00    +0.000 S 
ATOM      8  C   UNL     1      43.723   4.898  11.562  0.00  0.00    +0.000 A 
ATOM      9  N   UNL     1      42.906   3.831  11.346  0.00  0.00    +0.000 NA
ATOM     10  C   UNL     1      43.397   2.703  11.738  0.00  0.00    +0.000 A 
ATOM     11  N   UNL     1      44.620   2.545  12.339  0.00  0.00    +0.000 N 
ATOM     12  C   UNL     1      45.443   3.602  12.654  0.00  0.00    +0.000 A 
ATOM     13  O   UNL     1      46.436   3.437  13.350  0.00  0.00    +0.000 OA
ATOM     14  C   UNL     1      44.969   4.883  12.158  0.00  0.00    +0.000 A 
ATOM     15  H   UNL     1      44.921   1.645  12.681  0.00  0.00    +0.000 HD
ENDBRANCH   2   5
BRANCH   3  16
ATOM     16  C   UNL     1      48.424   6.655  14.594  0.00  0.00    +0.000 C 
BRANCH  16  17
ATOM     17  C   UNL     1      48.548   6.022  15.954  0.00  0.00    +0.000 A 
ATOM     18  C   UNL     1      49.433   6.556  16.897  0.00  0.00    +0.000 A 
ATOM     19  C   UNL     1      49.546   5.989  18.167  0.00  0.00    +0.000 A 
ATOM     20  C   UNL     1      48.785   4.867  18.520  0.00  0.00    +0.000 A 
ATOM     21  C   UNL     1      47.916   4.317  17.570  0.00  0.00    +0.000 A 
ATOM     22  C   UNL     1      47.803   4.884  16.295  0.00  0.00    +0.000 A 
BRANCH  20  23
ATOM     23  C   UNL     1      48.925   4.242  19.888  0.00  0.00    +0.000 C 
BRANCH  23  24
ATOM     24  C   UNL     1      48.652   5.184  21.086  0.00  0.00    +0.000 C 
ATOM     25  C   UNL     1      47.479   6.137  20.799  0.00  0.00    +0.000 C 
ATOM     26  C   UNL     1      47.451   7.359  21.706  0.00  0.00    +0.000 C 
ATOM     27  O   UNL     1      48.716   8.013  21.707  0.00  0.00    +0.000 OA
ATOM     28  C   UNL     1      49.719   7.183  22.284  0.00  0.00    +0.000 C 
ATOM     29  C   UNL     1      49.948   5.948  21.425  0.00  0.00    +0.000 C 
ENDBRANCH  23  24
ENDBRANCH  20  23
ENDBRANCH  16  17
ENDBRANCH   3  16
TORSDOF 5
ENDMDL
MODEL 8
REMARK VINA RESULT:    -6.343      3.988      9.961
REMARK INTER + INTRA:          -9.166
REMARK INTER:                  -8.546
REMARK INTRA:                  -0.619
REMARK UNBOUND:                -0.969
REMARK  Name = 
REMARK  5 active torsions:
REMARK  status: ('A' for Active; 'I' for Inactive)
REMARK    1  A    between atoms: C_2  and  C_18
REMARK    2  A    between atoms: N_3  and  C_4
REMARK    3  A    between atoms: C_4  and  C_5
REMARK    4  A    between atoms: C_8  and  C_9
REMARK    5  A    between atoms: C_9  and  C_10
REMARK                            x       y       z     vdW  Elec       q    Type
REMARK                         _______ _______ _______ _____ _____    ______ ____
ROOT
ATOM      1  O   UNL     1      47.247   3.175  14.020  0.00  0.00    +0.000 OA
ATOM      2  C   UNL     1      46.937   4.278  14.453  0.00  0.00    +0.000 C 
ATOM      3  N   UNL     1      47.069   4.634  15.776  0.00  0.00    +0.000 N 
ATOM      4  H   UNL     1      46.636   5.485  16.101  0.00  0.00    +0.000 HD
ENDROOT
BRANCH   2   5
ATOM      5  C   UNL     1      46.448   5.348  13.582  0.00  0.00    +0.000 A 
ATOM      6  C   UNL     1      47.195   6.479  13.281  0.00  0.00    +0.000 A 
ATOM      7  S   UNL     1      46.428   7.506  12.147  0.00  0.00    +0.000 S 
ATOM      8  C   UNL     1      45.086   6.465  12.029  0.00  0.00    +0.000 A 
ATOM      9  N   UNL     1      44.053   6.747  11.189  0.00  0.00    +0.000 NA
ATOM     10  C   UNL     1      43.112   5.863  11.195  0.00  0.00    +0.000 A 
ATOM     11  N   UNL     1      43.101   4.732  11.972  0.00  0.00    +0.000 N 
ATOM     12  C   UNL     1      44.081   4.447  12.896  0.00  0.00    +0.000 A 
ATOM     13  O   UNL     1      43.943   3.530  13.693  0.00  0.00    +0.000 OA
ATOM     14  C   UNL     1      45.202   5.373  12.867  0.00  0.00    +0.000 A 
ATOM     15  H   UNL     1      42.307   4.111  11.978  0.00  0.00    +0.000 HD
ENDBRANCH   2   5
BRANCH   3  16
ATOM     16  C   UNL     1      47.545   3.697  16.767  0.00  0.00    +0.000 C 
BRANCH  16  17
ATOM     17  C   UNL     1      47.720   4.348  18.113  0.00  0.00    +0.000 A 
ATOM     18  C   UNL     1      46.910   5.430  18.478  0.00  0.00    +0.000 A 
ATOM     19  C   UNL     1      47.051   6.032  19.729  0.00  0.00    +0.000 A 
ATOM     20  C   UNL     1      48.012   5.576  20.639  0.00  0.00    +0.000 A 
ATOM     21  C   UNL     1      48.839   4.509  20.267  0.00  0.00    +0.000 A 
ATOM     22  C   UNL     1      48.700   3.904  19.012  0.00  0.00    +0.000 A 
BRANCH  20  23
ATOM     23  C   UNL     1      48.176   6.243  21.984  0.00  0.00    +0.000 C 
BRANCH  23  24
ATOM     24  C   UNL     1      48.564   7.742  21.945  0.00  0.00    +0.000 C 
ATOM     25  C   UNL     1      47.320   8.646  21.902  0.00  0.00    +0.000 C 
ATOM     26  C   UNL     1      47.609  10.057  21.409  0.00  0.00    +0.000 C 
ATOM     27  O   UNL     1      48.319  10.023  20.176  0.00  0.00    +0.000 OA
ATOM     28  C   UNL     1      49.611   9.450  20.346  0.00  0.00    +0.000 C 
ATOM     29  C   UNL     1      49.497   7.985  20.742  0.00  0.00    +0.000 C 
ENDBRANCH  23  24
ENDBRANCH  20  23
ENDBRANCH  16  17
ENDBRANCH   3  16
TORSDOF 5
ENDMDL
MODEL 9
REMARK VINA RESULT:    -6.277      4.103      8.876
REMARK INTER + INTRA:          -9.081
REMARK INTER:                  -8.347
REMARK INTRA:                  -0.734
REMARK UNBOUND:                -0.969
REMARK  Name = 
REMARK  5 active torsions:
REMARK  status: ('A' for Active; 'I' for Inactive)
REMARK    1  A    between atoms: C_2  and  C_18
REMARK    2  A    between atoms: N_3  and  C_4
REMARK    3  A    between atoms: C_4  and  C_5
REMARK    4  A    between atoms: C_8  and  C_9
REMARK    5  A    between atoms: C_9  and  C_10
REMARK                            x       y       z     vdW  Elec       q    Type
REMARK                         _______ _______ _______ _____ _____    ______ ____
ROOT
ATOM      1  O   UNL     1      46.951   3.147  13.679  0.00  0.00    +0.000 OA
ATOM      2  C   UNL     1      46.654   4.209  14.212  0.00  0.00    +0.000 C 
ATOM      3  N   UNL     1      46.863   4.468  15.549  0.00  0.00    +0.000 N 
ATOM      4  H   UNL     1      46.439   5.284  15.962  0.00  0.00    +0.000 HD
ENDROOT
BRANCH   2   5
ATOM      5  C   UNL     1      46.096   5.332  13.456  0.00  0.00    +0.000 A 
ATOM      6  C   UNL     1      46.808   6.495  13.194  0.00  0.00    +0.000 A 
ATOM      7  S   UNL     1      45.957   7.589  12.190  0.00  0.00    +0.000 S 
ATOM      8  C   UNL     1      44.624   6.536  12.080  0.00  0.00    +0.000 A 
ATOM      9  N   UNL     1      43.536   6.861  11.329  0.00  0.00    +0.000 NA
ATOM     10  C   UNL     1      42.608   5.962  11.328  0.00  0.00    +0.000 A 
ATOM     11  N   UNL     1      42.662   4.777  12.018  0.00  0.00    +0.000 N 
ATOM     12  C   UNL     1      43.702   4.442  12.854  0.00  0.00    +0.000 A 
ATOM     13  O   UNL     1      43.627   3.466  13.588  0.00  0.00    +0.000 OA
ATOM     14  C   UNL     1      44.807   5.387  12.824  0.00  0.00    +0.000 A 
ATOM     15  H   UNL     1      41.877   4.143  12.027  0.00  0.00    +0.000 HD
ENDBRANCH   2   5
BRANCH   3  16
ATOM     16  C   UNL     1      47.412   3.469  16.435  0.00  0.00    +0.000 C 
BRANCH  16  17
ATOM     17  C   UNL     1      48.664   3.955  17.116  0.00  0.00    +0.000 A 
ATOM     18  C   UNL     1      48.783   5.299  17.487  0.00  0.00    +0.000 A 
ATOM     19  C   UNL     1      49.932   5.758  18.133  0.00  0.00    +0.000 A 
ATOM     20  C   UNL     1      50.992   4.888  18.413  0.00  0.00    +0.000 A 
ATOM     21  C   UNL     1      50.885   3.548  18.021  0.00  0.00    +0.000 A 
ATOM     22  C   UNL     1      49.734   3.086  17.372  0.00  0.00    +0.000 A 
BRANCH  20  23
ATOM     23  C   UNL     1      52.243   5.393  19.093  0.00  0.00    +0.000 C 
BRANCH  23  24
ATOM     24  C   UNL     1      53.166   6.282  18.224  0.00  0.00    +0.000 C 
ATOM     25  C   UNL     1      52.870   7.777  18.434  0.00  0.00    +0.000 C 
ATOM     26  C   UNL     1      53.394   8.664  17.313  0.00  0.00    +0.000 C 
ATOM     27  O   UNL     1      52.961   8.181  16.045  0.00  0.00    +0.000 OA
ATOM     28  C   UNL     1      53.530   6.906  15.765  0.00  0.00    +0.000 C 
ATOM     29  C   UNL     1      53.015   5.864  16.747  0.00  0.00    +0.000 C 
ENDBRANCH  23  24
ENDBRANCH  20  23
ENDBRANCH  16  17
ENDBRANCH   3  16
TORSDOF 5
ENDMDL
