MODEL 1
REMARK VINA RESULT:    -7.754      0.000      0.000
REMARK INTER + INTRA:         -12.243
REMARK INTER:                 -11.607
REMARK INTRA:                  -0.636
REMARK UNBOUND:                -0.636
REMARK  Name = 
REMARK  9 active torsions:
REMARK  status: ('A' for Active; 'I' for Inactive)
REMARK    1  A    between atoms: C_2  and  C_23
REMARK    2  A    between atoms: N_3  and  C_4
REMARK    3  A    between atoms: C_4  and  C_5
REMARK    4  A    between atoms: C_8  and  C_9
REMARK    5  A    between atoms: C_9  and  C_10
REMARK    6  A    between atoms: C_10  and  N_11
REMARK    7  A    between atoms: N_11  and  C_12
REMARK    8  A    between atoms: C_12  and  C_13
REMARK    9  A    between atoms: C_13  and  O_14
REMARK                            x       y       z     vdW  Elec       q    Type
REMARK                         _______ _______ _______ _____ _____    ______ ____
ROOT
ATOM      1  C   UNL     1      47.897   5.410  15.649  0.00  0.00    +0.000 A 
ATOM      2  C   UNL     1      48.341   6.538  14.947  0.00  0.00    +0.000 A 
ATOM      3  C   UNL     1      47.992   6.731  13.608  0.00  0.00    +0.000 A 
ATOM      4  C   UNL     1      47.166   5.809  12.952  0.00  0.00    +0.000 A 
ATOM      5  C   UNL     1      46.696   4.700  13.679  0.00  0.00    +0.000 A 
ATOM      6  C   UNL     1      47.051   4.501  15.010  0.00  0.00    +0.000 A 
ENDROOT
BRANCH   1   7
ATOM      7  C   UNL     1      48.299   5.197  17.080  0.00  0.00    +0.000 C 
BRANCH   7  10
ATOM      8  O   UNL     1      49.565   4.505  19.446  0.00  0.00    +0.000 OA
ATOM      9  C   UNL     1      50.199   4.449  18.402  0.00  0.00    +0.000 C 
ATOM     10  N   UNL     1      49.675   4.803  17.180  0.00  0.00    +0.000 N 
ATOM     11  H   UNL     1      50.156   4.514  16.340  0.00  0.00    +0.000 HD
BRANCH   9  12
ATOM     12  C   UNL     1      51.596   4.038  18.355  0.00  0.00    +0.000 A 
ATOM     13  C   UNL     1      52.646   4.835  18.791  0.00  0.00    +0.000 A 
ATOM     14  S   UNL     1      54.157   4.042  18.715  0.00  0.00    +0.000 S 
ATOM     15  C   UNL     1      53.445   2.624  18.102  0.00  0.00    +0.000 A 
ATOM     16  N   UNL     1      54.196   1.525  17.818  0.00  0.00    +0.000 NA
ATOM     17  C   UNL     1      53.513   0.526  17.358  0.00  0.00    +0.000 A 
ATOM     18  N   UNL     1      52.162   0.532  17.150  0.00  0.00    +0.000 N 
ATOM     19  C   UNL     1      51.374   1.638  17.350  0.00  0.00    +0.000 A 
ATOM     20  O   UNL     1      50.189   1.636  16.986  0.00  0.00    +0.000 OA
ATOM     21  C   UNL     1      52.079   2.757  17.925  0.00  0.00    +0.000 A 
ATOM     22  H   UNL     1      51.694  -0.264  16.738  0.00  0.00    +0.000 HD
ENDBRANCH   9  12
ENDBRANCH   7  10
ENDBRANCH   1   7
BRANCH   4  23
ATOM     23  C   UNL     1      46.653   5.984  11.536  0.00  0.00    +0.000 C 
BRANCH  23  24
ATOM     24  C   UNL     1      45.141   5.932  11.340  0.00  0.00    +0.000 C 
BRANCH  24  25
ATOM     25  N   UNL     1      44.621   4.561  11.113  0.00  0.00    +0.000 N 
ATOM     26  C   UNL     1      45.039   3.999   9.894  0.00  0.00    +0.000 A 
ATOM     27  C   UNL     1      45.477   4.770   8.793  0.00  0.00    +0.000 A 
ATOM     28  N   UNL     1      45.986   4.259   7.650  0.00  0.00    +0.000 NA
ATOM     29  C   UNL     1      46.045   2.924   7.613  0.00  0.00    +0.000 A 
ATOM     30  C   UNL     1      45.595   2.135   8.665  0.00  0.00    +0.000 A 
ATOM     31  N   UNL     1      45.074   2.654   9.804  0.00  0.00    +0.000 NA
BRANCH  25  32
ATOM     32  C   UNL     1      43.209   4.203  11.429  0.00  0.00    +0.000 C 
BRANCH  32  33
ATOM     33  C   UNL     1      42.409   5.348  12.090  0.00  0.00    +0.000 C 
BRANCH  33  34
ATOM     34  O   UNL     1      42.661   5.464  13.489  0.00  0.00    +0.000 OA
ATOM     35  H   UNL     1      43.531   5.049  13.625  0.00  0.00    +0.000 HD
ENDBRANCH  33  34
ENDBRANCH  32  33
ENDBRANCH  25  32
ENDBRANCH  24  25
ENDBRANCH  23  24
ENDBRANCH   4  23
TORSDOF 9
ENDMDL
MODEL 2
REMARK VINA RESULT:    -7.664      2.989      3.653
REMARK INTER + INTRA:         -12.108
REMARK INTER:                 -10.800
REMARK INTRA:                  -1.309
REMARK UNBOUND:                -0.636
REMARK  Name = 
REMARK  9 active torsions:
REMARK  status: ('A' for Active; 'I' for Inactive)
REMARK    1  A    between atoms: C_2  and  C_23
REMARK    2  A    between atoms: N_3  and  C_4
REMARK    3  A    between atoms: C_4  and  C_5
REMARK    4  A    between atoms: C_8  and  C_9
REMARK    5  A    between atoms: C_9  and  C_10
REMARK    6  A    between atoms: C_10  and  N_11
REMARK    7  A    between atoms: N_11  and  C_12
REMARK    8  A    between atoms: C_12  and  C_13
REMARK    9  A    between atoms: C_13  and  O_14
REMARK                            x       y       z     vdW  Elec       q    Type
REMARK                         _______ _______ _______ _____ _____    ______ ____
ROOT
ATOM      1  C   UNL     1      47.228   7.955  13.417  0.00  0.00    +0.000 A 
ATOM      2  C   UNL     1      45.941   8.441  13.155  0.00  0.00    +0.000 A 
ATOM      3  C   UNL     1      45.155   7.878  12.146  0.00  0.00    +0.000 A 
ATOM      4  C   UNL     1      45.635   6.796  11.396  0.00  0.00    +0.000 A 
ATOM      5  C   UNL     1      46.915   6.293  11.694  0.00  0.00    +0.000 A 
ATOM      6  C   UNL     1      47.703   6.859  12.692  0.00  0.00    +0.000 A 
ENDROOT
BRANCH   1   7
ATOM      7  C   UNL     1      48.076   8.584  14.485  0.00  0.00    +0.000 C 
BRANCH   7  10
ATOM      8  O   UNL     1      50.369   7.066  14.827  0.00  0.00    +0.000 OA
ATOM      9  C   UNL     1      49.485   6.993  15.669  0.00  0.00    +0.000 C 
ATOM     10  N   UNL     1      48.296   7.678  15.575  0.00  0.00    +0.000 N 
ATOM     11  H   UNL     1      47.717   7.767  16.399  0.00  0.00    +0.000 HD
BRANCH   9  12
ATOM     12  C   UNL     1      49.589   6.136  16.842  0.00  0.00    +0.000 A 
ATOM     13  C   UNL     1      50.463   6.376  17.893  0.00  0.00    +0.000 A 
ATOM     14  S   UNL     1      50.281   5.263  19.176  0.00  0.00    +0.000 S 
ATOM     15  C   UNL     1      49.037   4.439  18.358  0.00  0.00    +0.000 A 
ATOM     16  N   UNL     1      48.420   3.362  18.916  0.00  0.00    +0.000 NA
ATOM     17  C   UNL     1      47.496   2.843  18.174  0.00  0.00    +0.000 A 
ATOM     18  N   UNL     1      47.145   3.293  16.932  0.00  0.00    +0.000 N 
ATOM     19  C   UNL     1      47.787   4.327  16.297  0.00  0.00    +0.000 A 
ATOM     20  O   UNL     1      47.538   4.582  15.109  0.00  0.00    +0.000 OA
ATOM     21  C   UNL     1      48.781   4.981  17.111  0.00  0.00    +0.000 A 
ATOM     22  H   UNL     1      46.449   2.811  16.379  0.00  0.00    +0.000 HD
ENDBRANCH   9  12
ENDBRANCH   7  10
ENDBRANCH   1   7
BRANCH   4  23
ATOM     23  C   UNL     1      44.820   6.056  10.354  0.00  0.00    +0.000 C 
BRANCH  23  24
ATOM     24  C   UNL     1      45.590   5.181   9.370  0.00  0.00    +0.000 C 
BRANCH  24  25
ATOM     25  N   UNL     1      45.290   3.735   9.503  0.00  0.00    +0.000 N 
ATOM     26  C   UNL     1      45.822   2.955   8.461  0.00  0.00    +0.000 A 
ATOM     27  C   UNL     1      46.168   3.482   7.195  0.00  0.00    +0.000 A 
ATOM     28  N   UNL     1      46.779   2.784   6.213  0.00  0.00    +0.000 NA
ATOM     29  C   UNL     1      47.042   1.509   6.514  0.00  0.00    +0.000 A 
ATOM     30  C   UNL     1      46.688   0.950   7.736  0.00  0.00    +0.000 A 
ATOM     31  N   UNL     1      46.063   1.652   8.713  0.00  0.00    +0.000 NA
BRANCH  25  32
ATOM     32  C   UNL     1      43.941   3.255   9.916  0.00  0.00    +0.000 C 
BRANCH  32  33
ATOM     33  C   UNL     1      43.858   2.834  11.400  0.00  0.00    +0.000 C 
BRANCH  33  34
ATOM     34  O   UNL     1      45.132   2.795  12.038  0.00  0.00    +0.000 OA
ATOM     35  H   UNL     1      44.945   2.554  12.963  0.00  0.00    +0.000 HD
ENDBRANCH  33  34
ENDBRANCH  32  33
ENDBRANCH  25  32
ENDBRANCH  24  25
ENDBRANCH  23  24
ENDBRANCH   4  23
TORSDOF 9
ENDMDL
MODEL 3
REMARK VINA RESULT:    -7.356      3.465      9.166
REMARK INTER + INTRA:         -11.647
REMARK INTER:                 -10.238
REMARK INTRA:                  -1.409
REMARK UNBOUND:                -0.636
REMARK  Name = 
REMARK  9 active torsions:
REMARK  status: ('A' for Active; 'I' for Inactive)
REMARK    1  A    between atoms: C_2  and  C_23
REMARK    2  A    between atoms: N_3  and  C_4
REMARK    3  A    between atoms: C_4  and  C_5
REMARK    4  A    between atoms: C_8  and  C_9
REMARK    5  A    between atoms: C_9  and  C_10
REMARK    6  A    between atoms: C_10  and  N_11
REMARK    7  A    between atoms: N_11  and  C_12
REMARK    8  A    between atoms: C_12  and  C_13
REMARK    9  A    between atoms: C_13  and  O_14
REMARK                            x       y       z     vdW  Elec       q    Type
REMARK                         _______ _______ _______ _____ _____    ______ ____
ROOT
ATOM      1  C   UNL     1      47.968   7.803  13.474  0.00  0.00    +0.000 A 
ATOM      2  C   UNL     1      48.744   6.790  14.052  0.00  0.00    +0.000 A 
ATOM      3  C   UNL     1      49.225   6.913  15.357  0.00  0.00    +0.000 A 
ATOM      4  C   UNL     1      48.914   8.046  16.122  0.00  0.00    +0.000 A 
ATOM      5  C   UNL     1      48.103   9.039  15.543  0.00  0.00    +0.000 A 
ATOM      6  C   UNL     1      47.632   8.922  14.239  0.00  0.00    +0.000 A 
ENDROOT
BRANCH   1   7
ATOM      7  C   UNL     1      47.478   7.674  12.060  0.00  0.00    +0.000 C 
BRANCH   7  10
ATOM      8  O   UNL     1      44.727   7.342  12.074  0.00  0.00    +0.000 OA
ATOM      9  C   UNL     1      45.436   6.371  11.849  0.00  0.00    +0.000 C 
ATOM     10  N   UNL     1      46.810   6.422  11.853  0.00  0.00    +0.000 N 
ATOM     11  H   UNL     1      47.328   5.663  11.432  0.00  0.00    +0.000 HD
BRANCH   9  12
ATOM     12  C   UNL     1      44.888   5.045  11.593  0.00  0.00    +0.000 A 
ATOM     13  C   UNL     1      44.188   4.309  12.539  0.00  0.00    +0.000 A 
ATOM     14  S   UNL     1      43.574   2.841  11.916  0.00  0.00    +0.000 S 
ATOM     15  C   UNL     1      44.228   3.157  10.377  0.00  0.00    +0.000 A 
ATOM     16  N   UNL     1      44.058   2.284   9.347  0.00  0.00    +0.000 NA
ATOM     17  C   UNL     1      44.613   2.661   8.240  0.00  0.00    +0.000 A 
ATOM     18  N   UNL     1      45.324   3.817   8.077  0.00  0.00    +0.000 N 
ATOM     19  C   UNL     1      45.586   4.692   9.102  0.00  0.00    +0.000 A 
ATOM     20  O   UNL     1      46.374   5.633   8.935  0.00  0.00    +0.000 OA
ATOM     21  C   UNL     1      44.932   4.347  10.340  0.00  0.00    +0.000 A 
ATOM     22  H   UNL     1      45.779   4.031   7.199  0.00  0.00    +0.000 HD
ENDBRANCH   9  12
ENDBRANCH   7  10
ENDBRANCH   1   7
BRANCH   4  23
ATOM     23  C   UNL     1      49.304   8.222  17.576  0.00  0.00    +0.000 C 
BRANCH  23  24
ATOM     24  C   UNL     1      48.563   7.365  18.597  0.00  0.00    +0.000 C 
BRANCH  24  25
ATOM     25  N   UNL     1      49.276   6.112  18.947  0.00  0.00    +0.000 N 
ATOM     26  C   UNL     1      48.730   4.969  18.339  0.00  0.00    +0.000 A 
ATOM     27  C   UNL     1      47.402   4.903  17.858  0.00  0.00    +0.000 A 
ATOM     28  N   UNL     1      46.882   3.861  17.174  0.00  0.00    +0.000 NA
ATOM     29  C   UNL     1      47.728   2.845  16.977  0.00  0.00    +0.000 A 
ATOM     30  C   UNL     1      49.030   2.863  17.461  0.00  0.00    +0.000 A 
ATOM     31  N   UNL     1      49.542   3.907  18.159  0.00  0.00    +0.000 NA
BRANCH  25  32
ATOM     32  C   UNL     1      49.720   5.835  20.343  0.00  0.00    +0.000 C 
BRANCH  32  33
ATOM     33  C   UNL     1      48.596   5.306  21.261  0.00  0.00    +0.000 C 
BRANCH  33  34
ATOM     34  O   UNL     1      48.423   3.894  21.170  0.00  0.00    +0.000 OA
ATOM     35  H   UNL     1      48.272   3.718  20.225  0.00  0.00    +0.000 HD
ENDBRANCH  33  34
ENDBRANCH  32  33
ENDBRANCH  25  32
ENDBRANCH  24  25
ENDBRANCH  23  24
ENDBRANCH   4  23
TORSDOF 9
ENDMDL
MODEL 4
REMARK VINA RESULT:    -7.075      3.504      3.922
REMARK INTER + INTRA:         -11.226
REMARK INTER:                  -9.929
REMARK INTRA:                  -1.297
REMARK UNBOUND:                -0.636
REMARK  Name = 
REMARK  9 active torsions:
REMARK  status: ('A' for Active; 'I' for Inactive)
REMARK    1  A    between atoms: C_2  and  C_23
REMARK    2  A    between atoms: N_3  and  C_4
REMARK    3  A    between atoms: C_4  and  C_5
REMARK    4  A    between atoms: C_8  and  C_9
REMARK    5  A    between atoms: C_9  and  C_10
REMARK    6  A    between atoms: C_10  and  N_11
REMARK    7  A    between atoms: N_11  and  C_12
REMARK    8  A    between atoms: C_12  and  C_13
REMARK    9  A    between atoms: C_13  and  O_14
REMARK                            x       y       z     vdW  Elec       q    Type
REMARK                         _______ _______ _______ _____ _____    ______ ____
ROOT
ATOM      1  C   UNL     1      48.914   7.754  14.040  0.00  0.00    +0.000 A 
ATOM      2  C   UNL     1      47.834   8.641  14.134  0.00  0.00    +0.000 A 
ATOM      3  C   UNL     1      46.636   8.382  13.466  0.00  0.00    +0.000 A 
ATOM      4  C   UNL     1      46.485   7.212  12.709  0.00  0.00    +0.000 A 
ATOM      5  C   UNL     1      47.564   6.312  12.652  0.00  0.00    +0.000 A 
ATOM      6  C   UNL     1      48.763   6.572  13.310  0.00  0.00    +0.000 A 
ENDROOT
BRANCH   1   7
ATOM      7  C   UNL     1      50.209   8.053  14.740  0.00  0.00    +0.000 C 
BRANCH   7  10
ATOM      8  O   UNL     1      50.801   5.872  16.343  0.00  0.00    +0.000 OA
ATOM      9  C   UNL     1      50.401   6.899  16.873  0.00  0.00    +0.000 C 
ATOM     10  N   UNL     1      50.048   8.025  16.165  0.00  0.00    +0.000 N 
ATOM     11  H   UNL     1      49.958   8.903  16.657  0.00  0.00    +0.000 HD
BRANCH   9  12
ATOM     12  C   UNL     1      50.220   7.019  18.313  0.00  0.00    +0.000 A 
ATOM     13  C   UNL     1      51.122   7.661  19.150  0.00  0.00    +0.000 A 
ATOM     14  S   UNL     1      50.587   7.737  20.770  0.00  0.00    +0.000 S 
ATOM     15  C   UNL     1      49.145   6.917  20.391  0.00  0.00    +0.000 A 
ATOM     16  N   UNL     1      48.212   6.655  21.346  0.00  0.00    +0.000 NA
ATOM     17  C   UNL     1      47.171   6.025  20.905  0.00  0.00    +0.000 A 
ATOM     18  N   UNL     1      46.988   5.628  19.610  0.00  0.00    +0.000 N 
ATOM     19  C   UNL     1      47.931   5.803  18.628  0.00  0.00    +0.000 A 
ATOM     20  O   UNL     1      47.781   5.275  17.517  0.00  0.00    +0.000 OA
ATOM     21  C   UNL     1      49.081   6.560  19.056  0.00  0.00    +0.000 A 
ATOM     22  H   UNL     1      46.174   5.092  19.338  0.00  0.00    +0.000 HD
ENDBRANCH   9  12
ENDBRANCH   7  10
ENDBRANCH   1   7
BRANCH   4  23
ATOM     23  C   UNL     1      45.193   6.797  12.034  0.00  0.00    +0.000 C 
BRANCH  23  24
ATOM     24  C   UNL     1      45.316   6.077  10.695  0.00  0.00    +0.000 C 
BRANCH  24  25
ATOM     25  N   UNL     1      44.790   4.690  10.717  0.00  0.00    +0.000 N 
ATOM     26  C   UNL     1      45.177   3.927   9.602  0.00  0.00    +0.000 A 
ATOM     27  C   UNL     1      45.586   4.497   8.375  0.00  0.00    +0.000 A 
ATOM     28  N   UNL     1      46.065   3.797   7.323  0.00  0.00    +0.000 NA
ATOM     29  C   UNL     1      46.125   2.475   7.513  0.00  0.00    +0.000 A 
ATOM     30  C   UNL     1      45.702   1.878   8.695  0.00  0.00    +0.000 A 
ATOM     31  N   UNL     1      45.210   2.586   9.742  0.00  0.00    +0.000 NA
BRANCH  25  32
ATOM     32  C   UNL     1      43.387   4.397  11.126  0.00  0.00    +0.000 C 
BRANCH  32  33
ATOM     33  C   UNL     1      43.274   3.671  12.486  0.00  0.00    +0.000 C 
BRANCH  33  34
ATOM     34  O   UNL     1      43.874   2.379  12.476  0.00  0.00    +0.000 OA
ATOM     35  H   UNL     1      43.715   2.032  11.580  0.00  0.00    +0.000 HD
ENDBRANCH  33  34
ENDBRANCH  32  33
ENDBRANCH  25  32
ENDBRANCH  24  25
ENDBRANCH  23  24
ENDBRANCH   4  23
TORSDOF 9
ENDMDL
MODEL 5
REMARK VINA RESULT:    -7.064      3.652      8.859
REMARK INTER + INTRA:         -11.210
REMARK INTER:                  -9.856
REMARK INTRA:                  -1.354
REMARK UNBOUND:                -0.636
REMARK  Name = 
REMARK  9 active torsions:
REMARK  status: ('A' for Active; 'I' for Inactive)
REMARK    1  A    between atoms: C_2  and  C_23
REMARK    2  A    between atoms: N_3  and  C_4
REMARK    3  A    between atoms: C_4  and  C_5
REMARK    4  A    between atoms: C_8  and  C_9
REMARK    5  A    between atoms: C_9  and  C_10
REMARK    6  A    between atoms: C_10  and  N_11
REMARK    7  A    between atoms: N_11  and  C_12
REMARK    8  A    between atoms: C_12  and  C_13
REMARK    9  A    between atoms: C_13  and  O_14
REMARK                            x       y       z     vdW  Elec       q    Type
REMARK                         _______ _______ _______ _____ _____    ______ ____
ROOT
ATOM      1  C   UNL     1      48.381   8.100  13.400  0.00  0.00    +0.000 A 
ATOM      2  C   UNL     1      48.019   9.192  14.199  0.00  0.00    +0.000 A 
ATOM      3  C   UNL     1      48.140   9.131  15.589  0.00  0.00    +0.000 A 
ATOM      4  C   UNL     1      48.652   7.982  16.206  0.00  0.00    +0.000 A 
ATOM      5  C   UNL     1      49.046   6.907  15.389  0.00  0.00    +0.000 A 
ATOM      6  C   UNL     1      48.917   6.961  14.004  0.00  0.00    +0.000 A 
ENDROOT
BRANCH   1   7
ATOM      7  C   UNL     1      48.222   8.164  11.907  0.00  0.00    +0.000 C 
BRANCH   7  10
ATOM      8  O   UNL     1      45.486   8.033  11.483  0.00  0.00    +0.000 OA
ATOM      9  C   UNL     1      46.172   7.059  11.204  0.00  0.00    +0.000 C 
ATOM     10  N   UNL     1      47.532   7.010  11.408  0.00  0.00    +0.000 N 
ATOM     11  H   UNL     1      48.069   6.289  10.946  0.00  0.00    +0.000 HD
BRANCH   9  12
ATOM     12  C   UNL     1      45.605   5.832  10.662  0.00  0.00    +0.000 A 
ATOM     13  C   UNL     1      45.820   5.396   9.361  0.00  0.00    +0.000 A 
ATOM     14  S   UNL     1      45.119   3.870   9.048  0.00  0.00    +0.000 S 
ATOM     15  C   UNL     1      44.515   3.759  10.635  0.00  0.00    +0.000 A 
ATOM     16  N   UNL     1      43.808   2.671  11.046  0.00  0.00    +0.000 NA
ATOM     17  C   UNL     1      43.416   2.733  12.278  0.00  0.00    +0.000 A 
ATOM     18  N   UNL     1      43.657   3.780  13.123  0.00  0.00    +0.000 N 
ATOM     19  C   UNL     1      44.300   4.929  12.736  0.00  0.00    +0.000 A 
ATOM     20  O   UNL     1      44.341   5.909  13.494  0.00  0.00    +0.000 OA
ATOM     21  C   UNL     1      44.814   4.881  11.389  0.00  0.00    +0.000 A 
ATOM     22  H   UNL     1      43.278   3.791  14.061  0.00  0.00    +0.000 HD
ENDBRANCH   9  12
ENDBRANCH   7  10
ENDBRANCH   1   7
BRANCH   4  23
ATOM     23  C   UNL     1      48.915   7.861  17.694  0.00  0.00    +0.000 C 
BRANCH  23  24
ATOM     24  C   UNL     1      48.108   6.813  18.453  0.00  0.00    +0.000 C 
BRANCH  24  25
ATOM     25  N   UNL     1      48.915   5.650  18.896  0.00  0.00    +0.000 N 
ATOM     26  C   UNL     1      48.698   4.492  18.128  0.00  0.00    +0.000 A 
ATOM     27  C   UNL     1      47.530   4.279  17.360  0.00  0.00    +0.000 A 
ATOM     28  N   UNL     1      47.337   3.231  16.528  0.00  0.00    +0.000 NA
ATOM     29  C   UNL     1      48.354   2.364  16.478  0.00  0.00    +0.000 A 
ATOM     30  C   UNL     1      49.502   2.527  17.242  0.00  0.00    +0.000 A 
ATOM     31  N   UNL     1      49.684   3.574  18.084  0.00  0.00    +0.000 NA
BRANCH  25  32
ATOM     32  C   UNL     1      49.089   5.327  20.341  0.00  0.00    +0.000 C 
BRANCH  32  33
ATOM     33  C   UNL     1      47.892   5.753  21.221  0.00  0.00    +0.000 C 
BRANCH  33  34
ATOM     34  O   UNL     1      47.321   4.666  21.945  0.00  0.00    +0.000 OA
ATOM     35  H   UNL     1      46.660   4.281  21.343  0.00  0.00    +0.000 HD
ENDBRANCH  33  34
ENDBRANCH  32  33
ENDBRANCH  25  32
ENDBRANCH  24  25
ENDBRANCH  23  24
ENDBRANCH   4  23
TORSDOF 9
ENDMDL
MODEL 6
REMARK VINA RESULT:    -6.970      2.468      3.275
REMARK INTER + INTRA:         -11.069
REMARK INTER:                  -9.787
REMARK INTRA:                  -1.282
REMARK UNBOUND:                -0.636
REMARK  Name = 
REMARK  9 active torsions:
REMARK  status: ('A' for Active; 'I' for Inactive)
REMARK    1  A    between atoms: C_2  and  C_23
REMARK    2  A    between atoms: N_3  and  C_4
REMARK    3  A    between atoms: C_4  and  C_5
REMARK    4  A    between atoms: C_8  and  C_9
REMARK    5  A    between atoms: C_9  and  C_10
REMARK    6  A    between atoms: C_10  and  N_11
REMARK    7  A    between atoms: N_11  and  C_12
REMARK    8  A    between atoms: C_12  and  C_13
REMARK    9  A    between atoms: C_13  and  O_14
REMARK                            x       y       z     vdW  Elec       q    Type
REMARK                         _______ _______ _______ _____ _____    ______ ____
ROOT
ATOM      1  C   UNL     1      49.177   8.080  13.065  0.00  0.00    +0.000 A 
ATOM      2  C   UNL     1      48.926   6.725  13.313  0.00  0.00    +0.000 A 
ATOM      3  C   UNL     1      47.671   6.170  13.050  0.00  0.00    +0.000 A 
ATOM      4  C   UNL     1      46.648   6.959  12.506  0.00  0.00    +0.000 A 
ATOM      5  C   UNL     1      46.926   8.310  12.226  0.00  0.00    +0.000 A 
ATOM      6  C   UNL     1      48.172   8.866  12.497  0.00  0.00    +0.000 A 
ENDROOT
BRANCH   1   7
ATOM      7  C   UNL     1      50.521   8.674  13.377  0.00  0.00    +0.000 C 
BRANCH   7  10
ATOM      8  O   UNL     1      51.732   9.240  15.804  0.00  0.00    +0.000 OA
ATOM      9  C   UNL     1      51.870   8.123  15.324  0.00  0.00    +0.000 C 
ATOM     10  N   UNL     1      51.339   7.753  14.110  0.00  0.00    +0.000 N 
ATOM     11  H   UNL     1      51.282   6.770  13.883  0.00  0.00    +0.000 HD
BRANCH   9  12
ATOM     12  C   UNL     1      52.651   7.082  15.978  0.00  0.00    +0.000 A 
ATOM     13  C   UNL     1      54.039   7.065  16.004  0.00  0.00    +0.000 A 
ATOM     14  S   UNL     1      54.669   5.781  16.938  0.00  0.00    +0.000 S 
ATOM     15  C   UNL     1      53.110   5.223  17.326  0.00  0.00    +0.000 A 
ATOM     16  N   UNL     1      52.929   4.134  18.122  0.00  0.00    +0.000 NA
ATOM     17  C   UNL     1      51.687   3.832  18.326  0.00  0.00    +0.000 A 
ATOM     18  N   UNL     1      50.622   4.508  17.802  0.00  0.00    +0.000 N 
ATOM     19  C   UNL     1      50.753   5.566  16.935  0.00  0.00    +0.000 A 
ATOM     20  O   UNL     1      49.757   6.031  16.362  0.00  0.00    +0.000 OA
ATOM     21  C   UNL     1      52.118   5.981  16.729  0.00  0.00    +0.000 A 
ATOM     22  H   UNL     1      49.674   4.191  17.956  0.00  0.00    +0.000 HD
ENDBRANCH   9  12
ENDBRANCH   7  10
ENDBRANCH   1   7
BRANCH   4  23
ATOM     23  C   UNL     1      45.291   6.425  12.093  0.00  0.00    +0.000 C 
BRANCH  23  24
ATOM     24  C   UNL     1      45.167   5.882  10.673  0.00  0.00    +0.000 C 
BRANCH  24  25
ATOM     25  N   UNL     1      44.751   4.459  10.618  0.00  0.00    +0.000 N 
ATOM     26  C   UNL     1      45.210   3.785   9.472  0.00  0.00    +0.000 A 
ATOM     27  C   UNL     1      45.589   4.447   8.282  0.00  0.00    +0.000 A 
ATOM     28  N   UNL     1      46.135   3.841   7.205  0.00  0.00    +0.000 NA
ATOM     29  C   UNL     1      46.294   2.520   7.329  0.00  0.00    +0.000 A 
ATOM     30  C   UNL     1      45.905   1.833   8.473  0.00  0.00    +0.000 A 
ATOM     31  N   UNL     1      45.346   2.446   9.545  0.00  0.00    +0.000 NA
BRANCH  25  32
ATOM     32  C   UNL     1      43.370   4.037  10.988  0.00  0.00    +0.000 C 
BRANCH  32  33
ATOM     33  C   UNL     1      43.313   3.100  12.215  0.00  0.00    +0.000 C 
BRANCH  33  34
ATOM     34  O   UNL     1      43.239   1.722  11.857  0.00  0.00    +0.000 OA
ATOM     35  H   UNL     1      42.733   1.703  11.025  0.00  0.00    +0.000 HD
ENDBRANCH  33  34
ENDBRANCH  32  33
ENDBRANCH  25  32
ENDBRANCH  24  25
ENDBRANCH  23  24
ENDBRANCH   4  23
TORSDOF 9
ENDMDL
MODEL 7
REMARK VINA RESULT:    -6.909      1.811      2.471
REMARK INTER + INTRA:         -10.978
REMARK INTER:                  -9.783
REMARK INTRA:                  -1.194
REMARK UNBOUND:                -0.636
REMARK  Name = 
REMARK  9 active torsions:
REMARK  status: ('A' for Active; 'I' for Inactive)
REMARK    1  A    between atoms: C_2  and  C_23
REMARK    2  A    between atoms: N_3  and  C_4
REMARK    3  A    between atoms: C_4  and  C_5
REMARK    4  A    between atoms: C_8  and  C_9
REMARK    5  A    between atoms: C_9  and  C_10
REMARK    6  A    between atoms: C_10  and  N_11
REMARK    7  A    between atoms: N_11  and  C_12
REMARK    8  A    between atoms: C_12  and  C_13
REMARK    9  A    between atoms: C_13  and  O_14
REMARK                            x       y       z     vdW  Elec       q    Type
REMARK                         _______ _______ _______ _____ _____    ______ ____
ROOT
ATOM      1  C   UNL     1      48.219   7.163  14.760  0.00  0.00    +0.000 A 
ATOM      2  C   UNL     1      47.682   5.884  14.565  0.00  0.00    +0.000 A 
ATOM      3  C   UNL     1      46.656   5.672  13.642  0.00  0.00    +0.000 A 
ATOM      4  C   UNL     1      46.164   6.736  12.874  0.00  0.00    +0.000 A 
ATOM      5  C   UNL     1      46.738   8.008  13.053  0.00  0.00    +0.000 A 
ATOM      6  C   UNL     1      47.754   8.223  13.979  0.00  0.00    +0.000 A 
ENDROOT
BRANCH   1   7
ATOM      7  C   UNL     1      49.304   7.386  15.775  0.00  0.00    +0.000 C 
BRANCH   7  10
ATOM      8  O   UNL     1      49.062   6.023  18.175  0.00  0.00    +0.000 OA
ATOM      9  C   UNL     1      49.771   5.549  17.299  0.00  0.00    +0.000 C 
ATOM     10  N   UNL     1      49.984   6.163  16.086  0.00  0.00    +0.000 N 
ATOM     11  H   UNL     1      50.375   5.621  15.328  0.00  0.00    +0.000 HD
BRANCH   9  12
ATOM     12  C   UNL     1      50.496   4.297  17.471  0.00  0.00    +0.000 A 
ATOM     13  C   UNL     1      49.895   3.047  17.414  0.00  0.00    +0.000 A 
ATOM     14  S   UNL     1      51.016   1.765  17.541  0.00  0.00    +0.000 S 
ATOM     15  C   UNL     1      52.323   2.846  17.673  0.00  0.00    +0.000 A 
ATOM     16  N   UNL     1      53.600   2.395  17.802  0.00  0.00    +0.000 NA
ATOM     17  C   UNL     1      54.484   3.336  17.892  0.00  0.00    +0.000 A 
ATOM     18  N   UNL     1      54.205   4.674  17.875  0.00  0.00    +0.000 N 
ATOM     19  C   UNL     1      52.929   5.178  17.821  0.00  0.00    +0.000 A 
ATOM     20  O   UNL     1      52.729   6.390  17.978  0.00  0.00    +0.000 OA
ATOM     21  C   UNL     1      51.914   4.168  17.653  0.00  0.00    +0.000 A 
ATOM     22  H   UNL     1      54.937   5.361  18.002  0.00  0.00    +0.000 HD
ENDBRANCH   9  12
ENDBRANCH   7  10
ENDBRANCH   1   7
BRANCH   4  23
ATOM     23  C   UNL     1      45.126   6.586  11.779  0.00  0.00    +0.000 C 
BRANCH  23  24
ATOM     24  C   UNL     1      45.557   5.843  10.518  0.00  0.00    +0.000 C 
BRANCH  24  25
ATOM     25  N   UNL     1      44.966   4.488  10.398  0.00  0.00    +0.000 N 
ATOM     26  C   UNL     1      45.417   3.779   9.271  0.00  0.00    +0.000 A 
ATOM     27  C   UNL     1      45.965   4.404   8.128  0.00  0.00    +0.000 A 
ATOM     28  N   UNL     1      46.506   3.749   7.077  0.00  0.00    +0.000 NA
ATOM     29  C   UNL     1      46.484   2.416   7.179  0.00  0.00    +0.000 A 
ATOM     30  C   UNL     1      45.926   1.768   8.274  0.00  0.00    +0.000 A 
ATOM     31  N   UNL     1      45.373   2.432   9.320  0.00  0.00    +0.000 NA
BRANCH  25  32
ATOM     32  C   UNL     1      43.519   4.245  10.659  0.00  0.00    +0.000 C 
BRANCH  32  33
ATOM     33  C   UNL     1      43.250   3.357  11.894  0.00  0.00    +0.000 C 
BRANCH  33  34
ATOM     34  O   UNL     1      43.161   1.971  11.573  0.00  0.00    +0.000 OA
ATOM     35  H   UNL     1      43.345   1.921  10.618  0.00  0.00    +0.000 HD
ENDBRANCH  33  34
ENDBRANCH  32  33
ENDBRANCH  25  32
ENDBRANCH  24  25
ENDBRANCH  23  24
ENDBRANCH   4  23
TORSDOF 9
ENDMDL
MODEL 8
REMARK VINA RESULT:    -6.846      5.928      9.450
REMARK INTER + INTRA:         -10.883
REMARK INTER:                  -9.816
REMARK INTRA:                  -1.067
REMARK UNBOUND:                -0.636
REMARK  Name = 
REMARK  9 active torsions:
REMARK  status: ('A' for Active; 'I' for Inactive)
REMARK    1  A    between atoms: C_2  and  C_23
REMARK    2  A    between atoms: N_3  and  C_4
REMARK    3  A    between atoms: C_4  and  C_5
REMARK    4  A    between atoms: C_8  and  C_9
REMARK    5  A    between atoms: C_9  and  C_10
REMARK    6  A    between atoms: C_10  and  N_11
REMARK    7  A    between atoms: N_11  and  C_12
REMARK    8  A    between atoms: C_12  and  C_13
REMARK    9  A    between atoms: C_13  and  O_14
REMARK                            x       y       z     vdW  Elec       q    Type
REMARK                         _______ _______ _______ _____ _____    ______ ____
ROOT
ATOM      1  C   UNL     1      47.795   8.387  12.370  0.00  0.00    +0.000 A 
ATOM      2  C   UNL     1      48.272   9.654  12.007  0.00  0.00    +0.000 A 
ATOM      3  C   UNL     1      49.574   9.818  11.532  0.00  0.00    +0.000 A 
ATOM      4  C   UNL     1      50.420   8.711  11.385  0.00  0.00    +0.000 A 
ATOM      5  C   UNL     1      49.917   7.439  11.718  0.00  0.00    +0.000 A 
ATOM      6  C   UNL     1      48.622   7.275  12.201  0.00  0.00    +0.000 A 
ENDROOT
BRANCH   1   7
ATOM      7  C   UNL     1      46.401   8.223  12.906  0.00  0.00    +0.000 C 
BRANCH   7  10
ATOM      8  O   UNL     1      44.288   7.562  11.240  0.00  0.00    +0.000 OA
ATOM      9  C   UNL     1      44.880   6.665  11.823  0.00  0.00    +0.000 C 
ATOM     10  N   UNL     1      45.918   6.889  12.698  0.00  0.00    +0.000 N 
ATOM     11  H   UNL     1      46.513   6.115  12.958  0.00  0.00    +0.000 HD
BRANCH   9  12
ATOM     12  C   UNL     1      44.512   5.263  11.679  0.00  0.00    +0.000 A 
ATOM     13  C   UNL     1      43.834   4.543  12.654  0.00  0.00    +0.000 A 
ATOM     14  S   UNL     1      43.445   2.956  12.157  0.00  0.00    +0.000 S 
ATOM     15  C   UNL     1      44.171   3.194  10.636  0.00  0.00    +0.000 A 
ATOM     16  N   UNL     1      44.183   2.208   9.698  0.00  0.00    +0.000 NA
ATOM     17  C   UNL     1      44.771   2.539   8.594  0.00  0.00    +0.000 A 
ATOM     18  N   UNL     1      45.352   3.752   8.351  0.00  0.00    +0.000 N 
ATOM     19  C   UNL     1      45.431   4.751   9.290  0.00  0.00    +0.000 A 
ATOM     20  O   UNL     1      46.114   5.762   9.070  0.00  0.00    +0.000 OA
ATOM     21  C   UNL     1      44.732   4.454  10.515  0.00  0.00    +0.000 A 
ATOM     22  H   UNL     1      45.843   3.932   7.485  0.00  0.00    +0.000 HD
ENDBRANCH   9  12
ENDBRANCH   7  10
ENDBRANCH   1   7
BRANCH   4  23
ATOM     23  C   UNL     1      51.810   8.776  10.784  0.00  0.00    +0.000 C 
BRANCH  23  24
ATOM     24  C   UNL     1      52.344   7.499  10.144  0.00  0.00    +0.000 C 
BRANCH  24  25
ATOM     25  N   UNL     1      53.759   7.601   9.709  0.00  0.00    +0.000 N 
ATOM     26  C   UNL     1      53.915   7.623   8.313  0.00  0.00    +0.000 A 
ATOM     27  C   UNL     1      52.945   7.123   7.414  0.00  0.00    +0.000 A 
ATOM     28  N   UNL     1      53.015   7.227   6.069  0.00  0.00    +0.000 NA
ATOM     29  C   UNL     1      54.108   7.849   5.614  0.00  0.00    +0.000 A 
ATOM     30  C   UNL     1      55.096   8.326   6.467  0.00  0.00    +0.000 A 
ATOM     31  N   UNL     1      55.025   8.206   7.816  0.00  0.00    +0.000 NA
BRANCH  25  32
ATOM     32  C   UNL     1      54.835   6.810  10.371  0.00  0.00    +0.000 C 
BRANCH  32  33
ATOM     33  C   UNL     1      54.792   5.301  10.040  0.00  0.00    +0.000 C 
BRANCH  33  34
ATOM     34  O   UNL     1      54.152   4.529  11.053  0.00  0.00    +0.000 OA
ATOM     35  H   UNL     1      53.536   5.144  11.489  0.00  0.00    +0.000 HD
ENDBRANCH  33  34
ENDBRANCH  32  33
ENDBRANCH  25  32
ENDBRANCH  24  25
ENDBRANCH  23  24
ENDBRANCH   4  23
TORSDOF 9
ENDMDL
