MODEL 1
REMARK VINA RESULT:    -8.274      0.000      0.000
REMARK INTER + INTRA:         -13.318
REMARK INTER:                 -12.385
REMARK INTRA:                  -0.933
REMARK UNBOUND:                -0.933
REMARK  Name = 
REMARK  10 active torsions:
REMARK  status: ('A' for Active; 'I' for Inactive)
REMARK    1  A    between atoms: C_1  and  N_2
REMARK    2  A    between atoms: C_4  and  C_5
REMARK    3  A    between atoms: N_7  and  C_8
REMARK    4  A    between atoms: C_8  and  C_9
REMARK    5  A    between atoms: C_12  and  C_13
REMARK    6  A    between atoms: C_13  and  N_14
REMARK    7  A    between atoms: N_14  and  CA_15
REMARK    8  A    between atoms: CA_15  and  C_16
REMARK    9  A    between atoms: CA_15  and  C_18
REMARK   10  A    between atoms: C_16  and  O_17
REMARK                            x       y       z     vdW  Elec       q    Type
REMARK                         _______ _______ _______ _____ _____    ______ ____
ROOT
ATOM      1  C   UNL     1      46.385   7.961  12.982  0.00  0.00    +0.000 A 
ATOM      2  C   UNL     1      45.592   8.615  12.029  0.00  0.00    +0.000 A 
ATOM      3  C   UNL     1      44.529   7.949  11.412  0.00  0.00    +0.000 A 
ATOM      4  C   UNL     1      44.232   6.619  11.741  0.00  0.00    +0.000 A 
ATOM      5  C   UNL     1      45.028   5.968  12.693  0.00  0.00    +0.000 A 
ATOM      6  C   UNL     1      46.088   6.634  13.312  0.00  0.00    +0.000 A 
ENDROOT
BRANCH   1   7
ATOM      7  C   UNL     1      47.525   8.677  13.653  0.00  0.00    +0.000 C 
BRANCH   7  10
ATOM      8  C   UNL     1      48.960   7.168  14.924  0.00  0.00    +0.000 C 
ATOM      9  O   UNL     1      49.557   6.840  13.909  0.00  0.00    +0.000 OA
ATOM     10  N   UNL     1      47.898   8.047  14.898  0.00  0.00    +0.000 N 
ATOM     11  H   UNL     1      47.487   8.375  15.759  0.00  0.00    +0.000 HD
BRANCH   8  15
ATOM     12  C   UNL     1      50.969   6.891  19.482  0.00  0.00    +0.000 C 
ATOM     13  N   UNL     1      50.211   6.559  18.296  0.00  0.00    +0.000 N 
ATOM     14  C   UNL     1      50.170   7.290  17.141  0.00  0.00    +0.000 A 
ATOM     15  C   UNL     1      49.309   6.658  16.247  0.00  0.00    +0.000 A 
ATOM     16  C   UNL     1      48.824   5.473  16.914  0.00  0.00    +0.000 A 
ATOM     17  C   UNL     1      47.989   4.385  16.666  0.00  0.00    +0.000 A 
ATOM     18 CL   UNL     1      47.245   4.157  15.166  0.00  0.00    +0.000 Cl
ATOM     19  N   UNL     1      47.783   3.418  17.580  0.00  0.00    +0.000 NA
ATOM     20  C   UNL     1      48.413   3.546  18.753  0.00  0.00    +0.000 A 
ATOM     21  N   UNL     1      49.242   4.525  19.135  0.00  0.00    +0.000 NA
ATOM     22  C   UNL     1      49.412   5.456  18.175  0.00  0.00    +0.000 A 
ENDBRANCH   8  15
ENDBRANCH   7  10
ENDBRANCH   1   7
BRANCH   4  23
ATOM     23  C   UNL     1      43.039   5.909  11.136  0.00  0.00    +0.000 C 
BRANCH  23  24
ATOM     24  N   UNL     1      43.439   5.028  10.039  0.00  0.00    +0.000 NA
ATOM     25  H   UNL     1      43.971   5.590   9.371  0.00  0.00    +0.000 HD
BRANCH  24  26
ATOM     26  CA  UNL     1      44.325   3.919  10.474  0.00  0.00    +0.000 C 
BRANCH  26  27
ATOM     27  C   UNL     1      45.152   3.418   9.291  0.00  0.00    +0.000 A 
ATOM     28  C   UNL     1      45.710   4.324   8.376  0.00  0.00    +0.000 A 
ATOM     29  C   UNL     1      46.465   3.869   7.290  0.00  0.00    +0.000 A 
ATOM     30  C   UNL     1      46.678   2.505   7.104  0.00  0.00    +0.000 A 
ATOM     31  C   UNL     1      46.145   1.591   8.009  0.00  0.00    +0.000 A 
ATOM     32  C   UNL     1      45.402   2.044   9.099  0.00  0.00    +0.000 A 
ENDBRANCH  26  27
BRANCH  26  33
ATOM     33  C   UNL     1      43.544   2.747  11.131  0.00  0.00    +0.000 C 
BRANCH  33  34
ATOM     34  O   UNL     1      43.914   2.549  12.496  0.00  0.00    +0.000 OA
ATOM     35  H   UNL     1      43.304   3.107  13.017  0.00  0.00    +0.000 HD
ENDBRANCH  33  34
ENDBRANCH  26  33
ENDBRANCH  24  26
ENDBRANCH  23  24
ENDBRANCH   4  23
TORSDOF 9
ENDMDL
MODEL 2
REMARK VINA RESULT:    -8.139      2.052      2.703
REMARK INTER + INTRA:         -13.115
REMARK INTER:                 -12.074
REMARK INTRA:                  -1.041
REMARK UNBOUND:                -0.933
REMARK  Name = 
REMARK  10 active torsions:
REMARK  status: ('A' for Active; 'I' for Inactive)
REMARK    1  A    between atoms: C_1  and  N_2
REMARK    2  A    between atoms: C_4  and  C_5
REMARK    3  A    between atoms: N_7  and  C_8
REMARK    4  A    between atoms: C_8  and  C_9
REMARK    5  A    between atoms: C_12  and  C_13
REMARK    6  A    between atoms: C_13  and  N_14
REMARK    7  A    between atoms: N_14  and  CA_15
REMARK    8  A    between atoms: CA_15  and  C_16
REMARK    9  A    between atoms: CA_15  and  C_18
REMARK   10  A    between atoms: C_16  and  O_17
REMARK                            x       y       z     vdW  Elec       q    Type
REMARK                         _______ _______ _______ _____ _____    ______ ____
ROOT
ATOM      1  C   UNL     1      47.086   6.278  13.055  0.00  0.00    +0.000 A 
ATOM      2  C   UNL     1      46.055   5.503  13.603  0.00  0.00    +0.000 A 
ATOM      3  C   UNL     1      44.922   5.191  12.847  0.00  0.00    +0.000 A 
ATOM      4  C   UNL     1      44.800   5.638  11.525  0.00  0.00    +0.000 A 
ATOM      5  C   UNL     1      45.832   6.415  10.979  0.00  0.00    +0.000 A 
ATOM      6  C   UNL     1      46.966   6.725  11.734  0.00  0.00    +0.000 A 
ENDROOT
BRANCH   1   7
ATOM      7  C   UNL     1      48.310   6.610  13.863  0.00  0.00    +0.000 C 
BRANCH   7  10
ATOM      8  C   UNL     1      49.165   6.414  16.140  0.00  0.00    +0.000 C 
ATOM      9  O   UNL     1      50.318   6.479  15.741  0.00  0.00    +0.000 OA
ATOM     10  N   UNL     1      48.089   6.425  15.278  0.00  0.00    +0.000 N 
ATOM     11  H   UNL     1      47.147   6.468  15.638  0.00  0.00    +0.000 HD
BRANCH   8  15
ATOM     12  C   UNL     1      48.664   4.541  20.737  0.00  0.00    +0.000 C 
ATOM     13  N   UNL     1      48.618   5.454  19.617  0.00  0.00    +0.000 N 
ATOM     14  C   UNL     1      48.984   5.165  18.331  0.00  0.00    +0.000 A 
ATOM     15  C   UNL     1      48.822   6.311  17.556  0.00  0.00    +0.000 A 
ATOM     16  C   UNL     1      48.315   7.334  18.438  0.00  0.00    +0.000 A 
ATOM     17  C   UNL     1      47.909   8.667  18.391  0.00  0.00    +0.000 A 
ATOM     18 CL   UNL     1      47.874   9.537  16.943  0.00  0.00    +0.000 Cl
ATOM     19  N   UNL     1      47.456   9.316  19.481  0.00  0.00    +0.000 NA
ATOM     20  C   UNL     1      47.417   8.626  20.626  0.00  0.00    +0.000 A 
ATOM     21  N   UNL     1      47.767   7.350  20.827  0.00  0.00    +0.000 NA
ATOM     22  C   UNL     1      48.204   6.755  19.699  0.00  0.00    +0.000 A 
ENDBRANCH   8  15
ENDBRANCH   7  10
ENDBRANCH   1   7
BRANCH   4  23
ATOM     23  C   UNL     1      43.613   5.247  10.670  0.00  0.00    +0.000 C 
BRANCH  23  24
ATOM     24  N   UNL     1      44.031   4.517   9.473  0.00  0.00    +0.000 NA
ATOM     25  H   UNL     1      44.647   5.133   8.937  0.00  0.00    +0.000 HD
BRANCH  24  26
ATOM     26  CA  UNL     1      44.805   3.288   9.778  0.00  0.00    +0.000 C 
BRANCH  26  27
ATOM     27  C   UNL     1      45.632   2.876   8.560  0.00  0.00    +0.000 A 
ATOM     28  C   UNL     1      45.971   3.819   7.578  0.00  0.00    +0.000 A 
ATOM     29  C   UNL     1      46.725   3.445   6.460  0.00  0.00    +0.000 A 
ATOM     30  C   UNL     1      47.154   2.128   6.310  0.00  0.00    +0.000 A 
ATOM     31  C   UNL     1      46.840   1.182   7.281  0.00  0.00    +0.000 A 
ATOM     32  C   UNL     1      46.099   1.556   8.402  0.00  0.00    +0.000 A 
ENDBRANCH  26  27
BRANCH  26  33
ATOM     33  C   UNL     1      43.906   2.112  10.253  0.00  0.00    +0.000 C 
BRANCH  33  34
ATOM     34  O   UNL     1      43.657   2.155  11.658  0.00  0.00    +0.000 OA
ATOM     35  H   UNL     1      43.181   2.993  11.814  0.00  0.00    +0.000 HD
ENDBRANCH  33  34
ENDBRANCH  26  33
ENDBRANCH  24  26
ENDBRANCH  23  24
ENDBRANCH   4  23
TORSDOF 9
ENDMDL
MODEL 3
REMARK VINA RESULT:    -8.120      1.764      2.113
REMARK INTER + INTRA:         -13.087
REMARK INTER:                 -12.147
REMARK INTRA:                  -0.940
REMARK UNBOUND:                -0.933
REMARK  Name = 
REMARK  10 active torsions:
REMARK  status: ('A' for Active; 'I' for Inactive)
REMARK    1  A    between atoms: C_1  and  N_2
REMARK    2  A    between atoms: C_4  and  C_5
REMARK    3  A    between atoms: N_7  and  C_8
REMARK    4  A    between atoms: C_8  and  C_9
REMARK    5  A    between atoms: C_12  and  C_13
REMARK    6  A    between atoms: C_13  and  N_14
REMARK    7  A    between atoms: N_14  and  CA_15
REMARK    8  A    between atoms: CA_15  and  C_16
REMARK    9  A    between atoms: CA_15  and  C_18
REMARK   10  A    between atoms: C_16  and  O_17
REMARK                            x       y       z     vdW  Elec       q    Type
REMARK                         _______ _______ _______ _____ _____    ______ ____
ROOT
ATOM      1  C   UNL     1      47.070   6.204  12.841  0.00  0.00    +0.000 A 
ATOM      2  C   UNL     1      46.097   5.375  13.415  0.00  0.00    +0.000 A 
ATOM      3  C   UNL     1      44.945   5.032  12.700  0.00  0.00    +0.000 A 
ATOM      4  C   UNL     1      44.748   5.502  11.395  0.00  0.00    +0.000 A 
ATOM      5  C   UNL     1      45.723   6.332  10.824  0.00  0.00    +0.000 A 
ATOM      6  C   UNL     1      46.875   6.673  11.537  0.00  0.00    +0.000 A 
ENDROOT
BRANCH   1   7
ATOM      7  C   UNL     1      48.314   6.569  13.604  0.00  0.00    +0.000 C 
BRANCH   7  10
ATOM      8  C   UNL     1      49.097   6.801  15.903  0.00  0.00    +0.000 C 
ATOM      9  O   UNL     1      50.252   6.603  15.557  0.00  0.00    +0.000 OA
ATOM     10  N   UNL     1      48.047   6.760  15.010  0.00  0.00    +0.000 N 
ATOM     11  H   UNL     1      47.117   7.023  15.303  0.00  0.00    +0.000 HD
BRANCH   8  15
ATOM     12  C   UNL     1      47.469   9.269  19.921  0.00  0.00    +0.000 C 
ATOM     13  N   UNL     1      47.976   8.212  19.075  0.00  0.00    +0.000 N 
ATOM     14  C   UNL     1      48.297   8.331  17.751  0.00  0.00    +0.000 A 
ATOM     15  C   UNL     1      48.723   7.089  17.285  0.00  0.00    +0.000 A 
ATOM     16  C   UNL     1      48.661   6.187  18.410  0.00  0.00    +0.000 A 
ATOM     17  C   UNL     1      48.934   4.854  18.714  0.00  0.00    +0.000 A 
ATOM     18 CL   UNL     1      49.593   3.796  17.573  0.00  0.00    +0.000 Cl
ATOM     19  N   UNL     1      48.754   4.352  19.951  0.00  0.00    +0.000 NA
ATOM     20  C   UNL     1      48.291   5.189  20.886  0.00  0.00    +0.000 A 
ATOM     21  N   UNL     1      47.989   6.486  20.747  0.00  0.00    +0.000 NA
ATOM     22  C   UNL     1      48.196   6.929  19.491  0.00  0.00    +0.000 A 
ENDBRANCH   8  15
ENDBRANCH   7  10
ENDBRANCH   1   7
BRANCH   4  23
ATOM     23  C   UNL     1      43.542   5.080  10.582  0.00  0.00    +0.000 C 
BRANCH  23  24
ATOM     24  N   UNL     1      43.934   4.336   9.386  0.00  0.00    +0.000 NA
ATOM     25  H   UNL     1      44.497   4.962   8.805  0.00  0.00    +0.000 HD
BRANCH  24  26
ATOM     26  CA  UNL     1      44.774   3.149   9.685  0.00  0.00    +0.000 C 
BRANCH  26  27
ATOM     27  C   UNL     1      45.653   2.815   8.479  0.00  0.00    +0.000 A 
ATOM     28  C   UNL     1      45.977   3.804   7.538  0.00  0.00    +0.000 A 
ATOM     29  C   UNL     1      46.779   3.502   6.432  0.00  0.00    +0.000 A 
ATOM     30  C   UNL     1      47.271   2.210   6.253  0.00  0.00    +0.000 A 
ATOM     31  C   UNL     1      46.973   1.220   7.184  0.00  0.00    +0.000 A 
ATOM     32  C   UNL     1      46.184   1.523   8.293  0.00  0.00    +0.000 A 
ENDBRANCH  26  27
BRANCH  26  33
ATOM     33  C   UNL     1      43.937   1.911  10.111  0.00  0.00    +0.000 C 
BRANCH  33  34
ATOM     34  O   UNL     1      43.324   2.087  11.389  0.00  0.00    +0.000 OA
ATOM     35  H   UNL     1      43.140   1.186  11.718  0.00  0.00    +0.000 HD
ENDBRANCH  33  34
ENDBRANCH  26  33
ENDBRANCH  24  26
ENDBRANCH  23  24
ENDBRANCH   4  23
TORSDOF 9
ENDMDL
MODEL 4
REMARK VINA RESULT:    -7.693      2.247      2.590
REMARK INTER + INTRA:         -12.449
REMARK INTER:                 -11.650
REMARK INTRA:                  -0.799
REMARK UNBOUND:                -0.933
REMARK  Name = 
REMARK  10 active torsions:
REMARK  status: ('A' for Active; 'I' for Inactive)
REMARK    1  A    between atoms: C_1  and  N_2
REMARK    2  A    between atoms: C_4  and  C_5
REMARK    3  A    between atoms: N_7  and  C_8
REMARK    4  A    between atoms: C_8  and  C_9
REMARK    5  A    between atoms: C_12  and  C_13
REMARK    6  A    between atoms: C_13  and  N_14
REMARK    7  A    between atoms: N_14  and  CA_15
REMARK    8  A    between atoms: CA_15  and  C_16
REMARK    9  A    between atoms: CA_15  and  C_18
REMARK   10  A    between atoms: C_16  and  O_17
REMARK                            x       y       z     vdW  Elec       q    Type
REMARK                         _______ _______ _______ _____ _____    ______ ____
ROOT
ATOM      1  C   UNL     1      46.517   7.840  12.982  0.00  0.00    +0.000 A 
ATOM      2  C   UNL     1      45.687   8.527  12.087  0.00  0.00    +0.000 A 
ATOM      3  C   UNL     1      44.605   7.880  11.482  0.00  0.00    +0.000 A 
ATOM      4  C   UNL     1      44.326   6.536  11.767  0.00  0.00    +0.000 A 
ATOM      5  C   UNL     1      45.160   5.851  12.662  0.00  0.00    +0.000 A 
ATOM      6  C   UNL     1      46.240   6.498  13.268  0.00  0.00    +0.000 A 
ENDROOT
BRANCH   1   7
ATOM      7  C   UNL     1      47.678   8.535  13.640  0.00  0.00    +0.000 C 
BRANCH   7  10
ATOM      8  C   UNL     1      48.515   9.162  15.844  0.00  0.00    +0.000 C 
ATOM      9  O   UNL     1      49.605   9.454  15.376  0.00  0.00    +0.000 OA
ATOM     10  N   UNL     1      47.497   8.650  15.068  0.00  0.00    +0.000 N 
ATOM     11  H   UNL     1      46.578   8.510  15.461  0.00  0.00    +0.000 HD
BRANCH   8  15
ATOM     12  C   UNL     1      47.193  11.280  20.163  0.00  0.00    +0.000 C 
ATOM     13  N   UNL     1      47.587  10.288  19.187  0.00  0.00    +0.000 N 
ATOM     14  C   UNL     1      47.893  10.531  17.877  0.00  0.00    +0.000 A 
ATOM     15  C   UNL     1      48.195   9.319  17.260  0.00  0.00    +0.000 A 
ATOM     16  C   UNL     1      48.071   8.302  18.276  0.00  0.00    +0.000 A 
ATOM     17  C   UNL     1      48.227   6.923  18.419  0.00  0.00    +0.000 A 
ATOM     18 CL   UNL     1      48.766   5.952  17.146  0.00  0.00    +0.000 Cl
ATOM     19  N   UNL     1      48.026   6.299  19.594  0.00  0.00    +0.000 NA
ATOM     20  C   UNL     1      47.658   7.059  20.632  0.00  0.00    +0.000 A 
ATOM     21  N   UNL     1      47.473   8.385  20.651  0.00  0.00    +0.000 NA
ATOM     22  C   UNL     1      47.697   8.951  19.448  0.00  0.00    +0.000 A 
ENDBRANCH   8  15
ENDBRANCH   7  10
ENDBRANCH   1   7
BRANCH   4  23
ATOM     23  C   UNL     1      43.116   5.844  11.177  0.00  0.00    +0.000 C 
BRANCH  23  24
ATOM     24  N   UNL     1      43.488   4.957  10.075  0.00  0.00    +0.000 NA
ATOM     25  H   UNL     1      44.012   5.514   9.396  0.00  0.00    +0.000 HD
BRANCH  24  26
ATOM     26  CA  UNL     1      44.373   3.842  10.496  0.00  0.00    +0.000 C 
BRANCH  26  27
ATOM     27  C   UNL     1      45.214   3.368   9.311  0.00  0.00    +0.000 A 
ATOM     28  C   UNL     1      45.464   2.001   9.117  0.00  0.00    +0.000 A 
ATOM     29  C   UNL     1      46.236   1.563   8.035  0.00  0.00    +0.000 A 
ATOM     30  C   UNL     1      46.765   2.482   7.131  0.00  0.00    +0.000 A 
ATOM     31  C   UNL     1      46.515   3.841   7.299  0.00  0.00    +0.000 A 
ATOM     32  C   UNL     1      45.735   4.278   8.370  0.00  0.00    +0.000 A 
ENDBRANCH  26  27
BRANCH  26  33
ATOM     33  C   UNL     1      43.589   2.655  11.121  0.00  0.00    +0.000 C 
BRANCH  33  34
ATOM     34  O   UNL     1      43.964   2.413  12.478  0.00  0.00    +0.000 OA
ATOM     35  H   UNL     1      43.963   1.442  12.581  0.00  0.00    +0.000 HD
ENDBRANCH  33  34
ENDBRANCH  26  33
ENDBRANCH  24  26
ENDBRANCH  23  24
ENDBRANCH   4  23
TORSDOF 9
ENDMDL
MODEL 5
REMARK VINA RESULT:    -7.553      1.832      2.477
REMARK INTER + INTRA:         -12.238
REMARK INTER:                 -11.353
REMARK INTRA:                  -0.885
REMARK UNBOUND:                -0.933
REMARK  Name = 
REMARK  10 active torsions:
REMARK  status: ('A' for Active; 'I' for Inactive)
REMARK    1  A    between atoms: C_1  and  N_2
REMARK    2  A    between atoms: C_4  and  C_5
REMARK    3  A    between atoms: N_7  and  C_8
REMARK    4  A    between atoms: C_8  and  C_9
REMARK    5  A    between atoms: C_12  and  C_13
REMARK    6  A    between atoms: C_13  and  N_14
REMARK    7  A    between atoms: N_14  and  CA_15
REMARK    8  A    between atoms: CA_15  and  C_16
REMARK    9  A    between atoms: CA_15  and  C_18
REMARK   10  A    between atoms: C_16  and  O_17
REMARK                            x       y       z     vdW  Elec       q    Type
REMARK                         _______ _______ _______ _____ _____    ______ ____
ROOT
ATOM      1  C   UNL     1      46.812   7.616  12.987  0.00  0.00    +0.000 A 
ATOM      2  C   UNL     1      46.053   8.361  12.075  0.00  0.00    +0.000 A 
ATOM      3  C   UNL     1      44.897   7.820  11.504  0.00  0.00    +0.000 A 
ATOM      4  C   UNL     1      44.471   6.529  11.842  0.00  0.00    +0.000 A 
ATOM      5  C   UNL     1      45.233   5.786  12.754  0.00  0.00    +0.000 A 
ATOM      6  C   UNL     1      46.387   6.326  13.326  0.00  0.00    +0.000 A 
ENDROOT
BRANCH   1   7
ATOM      7  C   UNL     1      48.053   8.197  13.609  0.00  0.00    +0.000 C 
BRANCH   7  10
ATOM      8  C   UNL     1      48.913   7.410  15.751  0.00  0.00    +0.000 C 
ATOM      9  O   UNL     1      48.517   8.420  16.312  0.00  0.00    +0.000 OA
ATOM     10  N   UNL     1      48.770   7.220  14.393  0.00  0.00    +0.000 N 
ATOM     11  H   UNL     1      49.017   6.336  13.973  0.00  0.00    +0.000 HD
BRANCH   8  15
ATOM     12  C   UNL     1      49.593   3.128  18.221  0.00  0.00    +0.000 C 
ATOM     13  N   UNL     1      49.861   4.386  17.559  0.00  0.00    +0.000 N 
ATOM     14  C   UNL     1      48.922   5.232  17.038  0.00  0.00    +0.000 A 
ATOM     15  C   UNL     1      49.576   6.319  16.462  0.00  0.00    +0.000 A 
ATOM     16  C   UNL     1      50.987   6.104  16.670  0.00  0.00    +0.000 A 
ATOM     17  C   UNL     1      52.204   6.734  16.411  0.00  0.00    +0.000 A 
ATOM     18 CL   UNL     1      52.282   8.252  15.673  0.00  0.00    +0.000 Cl
ATOM     19  N   UNL     1      53.380   6.203  16.794  0.00  0.00    +0.000 NA
ATOM     20  C   UNL     1      53.338   5.030  17.436  0.00  0.00    +0.000 A 
ATOM     21  N   UNL     1      52.255   4.311  17.758  0.00  0.00    +0.000 NA
ATOM     22  C   UNL     1      51.111   4.899  17.354  0.00  0.00    +0.000 A 
ENDBRANCH   8  15
ENDBRANCH   7  10
ENDBRANCH   1   7
BRANCH   4  23
ATOM     23  C   UNL     1      43.182   5.958  11.289  0.00  0.00    +0.000 C 
BRANCH  23  24
ATOM     24  N   UNL     1      43.434   5.030  10.187  0.00  0.00    +0.000 NA
ATOM     25  H   UNL     1      43.945   5.542   9.464  0.00  0.00    +0.000 HD
BRANCH  24  26
ATOM     26  CA  UNL     1      44.279   3.874  10.579  0.00  0.00    +0.000 C 
BRANCH  26  27
ATOM     27  C   UNL     1      45.102   3.400   9.381  0.00  0.00    +0.000 A 
ATOM     28  C   UNL     1      45.630   4.325   8.468  0.00  0.00    +0.000 A 
ATOM     29  C   UNL     1      46.380   3.895   7.369  0.00  0.00    +0.000 A 
ATOM     30  C   UNL     1      46.617   2.536   7.168  0.00  0.00    +0.000 A 
ATOM     31  C   UNL     1      46.114   1.604   8.070  0.00  0.00    +0.000 A 
ATOM     32  C   UNL     1      45.376   2.033   9.174  0.00  0.00    +0.000 A 
ENDBRANCH  26  27
BRANCH  26  33
ATOM     33  C   UNL     1      43.454   2.700  11.176  0.00  0.00    +0.000 C 
BRANCH  33  34
ATOM     34  O   UNL     1      43.814   2.419  12.529  0.00  0.00    +0.000 OA
ATOM     35  H   UNL     1      44.544   3.033  12.739  0.00  0.00    +0.000 HD
ENDBRANCH  33  34
ENDBRANCH  26  33
ENDBRANCH  24  26
ENDBRANCH  23  24
ENDBRANCH   4  23
TORSDOF 9
ENDMDL
MODEL 6
REMARK VINA RESULT:    -7.198      1.673      2.008
REMARK INTER + INTRA:         -11.707
REMARK INTER:                 -10.432
REMARK INTRA:                  -1.276
REMARK UNBOUND:                -0.933
REMARK  Name = 
REMARK  10 active torsions:
REMARK  status: ('A' for Active; 'I' for Inactive)
REMARK    1  A    between atoms: C_1  and  N_2
REMARK    2  A    between atoms: C_4  and  C_5
REMARK    3  A    between atoms: N_7  and  C_8
REMARK    4  A    between atoms: C_8  and  C_9
REMARK    5  A    between atoms: C_12  and  C_13
REMARK    6  A    between atoms: C_13  and  N_14
REMARK    7  A    between atoms: N_14  and  CA_15
REMARK    8  A    between atoms: CA_15  and  C_16
REMARK    9  A    between atoms: CA_15  and  C_18
REMARK   10  A    between atoms: C_16  and  O_17
REMARK                            x       y       z     vdW  Elec       q    Type
REMARK                         _______ _______ _______ _____ _____    ______ ____
ROOT
ATOM      1  C   UNL     1      47.870   8.062  12.464  0.00  0.00    +0.000 A 
ATOM      2  C   UNL     1      46.717   8.431  13.168  0.00  0.00    +0.000 A 
ATOM      3  C   UNL     1      45.487   7.834  12.878  0.00  0.00    +0.000 A 
ATOM      4  C   UNL     1      45.387   6.849  11.886  0.00  0.00    +0.000 A 
ATOM      5  C   UNL     1      46.543   6.483  11.183  0.00  0.00    +0.000 A 
ATOM      6  C   UNL     1      47.772   7.078  11.473  0.00  0.00    +0.000 A 
ENDROOT
BRANCH   1   7
ATOM      7  C   UNL     1      49.198   8.698  12.777  0.00  0.00    +0.000 C 
BRANCH   7  10
ATOM      8  C   UNL     1      50.270   8.307  14.933  0.00  0.00    +0.000 C 
ATOM      9  O   UNL     1      49.924   9.408  15.335  0.00  0.00    +0.000 OA
ATOM     10  N   UNL     1      49.996   7.873  13.654  0.00  0.00    +0.000 N 
ATOM     11  H   UNL     1      50.207   6.925  13.380  0.00  0.00    +0.000 HD
BRANCH   8  15
ATOM     12  C   UNL     1      53.959   6.257  17.594  0.00  0.00    +0.000 C 
ATOM     13  N   UNL     1      52.673   6.461  16.965  0.00  0.00    +0.000 N 
ATOM     14  C   UNL     1      52.340   7.502  16.144  0.00  0.00    +0.000 A 
ATOM     15  C   UNL     1      51.007   7.358  15.763  0.00  0.00    +0.000 A 
ATOM     16  C   UNL     1      50.532   6.147  16.389  0.00  0.00    +0.000 A 
ATOM     17  C   UNL     1      49.373   5.376  16.458  0.00  0.00    +0.000 A 
ATOM     18 CL   UNL     1      47.987   5.770  15.577  0.00  0.00    +0.000 Cl
ATOM     19  N   UNL     1      49.314   4.237  17.174  0.00  0.00    +0.000 NA
ATOM     20  C   UNL     1      50.421   3.872  17.830  0.00  0.00    +0.000 A 
ATOM     21  N   UNL     1      51.602   4.503  17.857  0.00  0.00    +0.000 NA
ATOM     22  C   UNL     1      51.598   5.629  17.118  0.00  0.00    +0.000 A 
ENDBRANCH   8  15
ENDBRANCH   7  10
ENDBRANCH   1   7
BRANCH   4  23
ATOM     23  C   UNL     1      44.077   6.141  11.613  0.00  0.00    +0.000 C 
BRANCH  23  24
ATOM     24  N   UNL     1      44.148   5.329  10.399  0.00  0.00    +0.000 NA
ATOM     25  H   UNL     1      44.808   5.783   9.763  0.00  0.00    +0.000 HD
BRANCH  24  26
ATOM     26  CA  UNL     1      44.657   3.956  10.643  0.00  0.00    +0.000 C 
BRANCH  26  27
ATOM     27  C   UNL     1      45.328   3.415   9.380  0.00  0.00    +0.000 A 
ATOM     28  C   UNL     1      45.456   2.033   9.178  0.00  0.00    +0.000 A 
ATOM     29  C   UNL     1      46.072   1.534   8.025  0.00  0.00    +0.000 A 
ATOM     30  C   UNL     1      46.565   2.408   7.057  0.00  0.00    +0.000 A 
ATOM     31  C   UNL     1      46.433   3.782   7.234  0.00  0.00    +0.000 A 
ATOM     32  C   UNL     1      45.808   4.280   8.377  0.00  0.00    +0.000 A 
ENDBRANCH  26  27
BRANCH  26  33
ATOM     33  C   UNL     1      43.550   2.982  11.135  0.00  0.00    +0.000 C 
BRANCH  33  34
ATOM     34  O   UNL     1      43.823   2.467  12.439  0.00  0.00    +0.000 OA
ATOM     35  H   UNL     1      42.951   2.359  12.865  0.00  0.00    +0.000 HD
ENDBRANCH  33  34
ENDBRANCH  26  33
ENDBRANCH  24  26
ENDBRANCH  23  24
ENDBRANCH   4  23
TORSDOF 9
ENDMDL
MODEL 7
REMARK VINA RESULT:    -7.070      2.474      8.140
REMARK INTER + INTRA:         -11.516
REMARK INTER:                  -9.741
REMARK INTRA:                  -1.775
REMARK UNBOUND:                -0.933
REMARK  Name = 
REMARK  10 active torsions:
REMARK  status: ('A' for Active; 'I' for Inactive)
REMARK    1  A    between atoms: C_1  and  N_2
REMARK    2  A    between atoms: C_4  and  C_5
REMARK    3  A    between atoms: N_7  and  C_8
REMARK    4  A    between atoms: C_8  and  C_9
REMARK    5  A    between atoms: C_12  and  C_13
REMARK    6  A    between atoms: C_13  and  N_14
REMARK    7  A    between atoms: N_14  and  CA_15
REMARK    8  A    between atoms: CA_15  and  C_16
REMARK    9  A    between atoms: CA_15  and  C_18
REMARK   10  A    between atoms: C_16  and  O_17
REMARK                            x       y       z     vdW  Elec       q    Type
REMARK                         _______ _______ _______ _____ _____    ______ ____
ROOT
ATOM      1  C   UNL     1      48.161   8.055  13.561  0.00  0.00    +0.000 A 
ATOM      2  C   UNL     1      48.124   9.154  14.429  0.00  0.00    +0.000 A 
ATOM      3  C   UNL     1      48.460   9.005  15.778  0.00  0.00    +0.000 A 
ATOM      4  C   UNL     1      48.849   7.757  16.284  0.00  0.00    +0.000 A 
ATOM      5  C   UNL     1      48.884   6.659  15.413  0.00  0.00    +0.000 A 
ATOM      6  C   UNL     1      48.550   6.808  14.065  0.00  0.00    +0.000 A 
ENDROOT
BRANCH   1   7
ATOM      7  C   UNL     1      47.807   8.213  12.108  0.00  0.00    +0.000 C 
BRANCH   7  10
ATOM      8  C   UNL     1      45.913   6.941  11.243  0.00  0.00    +0.000 C 
ATOM      9  O   UNL     1      45.148   7.860  11.492  0.00  0.00    +0.000 OA
ATOM     10  N   UNL     1      47.255   6.999  11.553  0.00  0.00    +0.000 N 
ATOM     11  H   UNL     1      47.881   6.268  11.248  0.00  0.00    +0.000 HD
BRANCH   8  15
ATOM     12  C   UNL     1      45.348   3.358   7.817  0.00  0.00    +0.000 C 
ATOM     13  N   UNL     1      45.248   4.098   9.055  0.00  0.00    +0.000 N 
ATOM     14  C   UNL     1      45.757   5.346   9.286  0.00  0.00    +0.000 A 
ATOM     15  C   UNL     1      45.479   5.701  10.604  0.00  0.00    +0.000 A 
ATOM     16  C   UNL     1      44.748   4.598  11.180  0.00  0.00    +0.000 A 
ATOM     17  C   UNL     1      44.142   4.242  12.384  0.00  0.00    +0.000 A 
ATOM     18 CL   UNL     1      44.086   5.301  13.700  0.00  0.00    +0.000 Cl
ATOM     19  N   UNL     1      43.507   3.066  12.545  0.00  0.00    +0.000 NA
ATOM     20  C   UNL     1      43.485   2.237  11.495  0.00  0.00    +0.000 A 
ATOM     21  N   UNL     1      44.015   2.438  10.282  0.00  0.00    +0.000 NA
ATOM     22  C   UNL     1      44.629   3.634  10.183  0.00  0.00    +0.000 A 
ENDBRANCH   8  15
ENDBRANCH   7  10
ENDBRANCH   1   7
BRANCH   4  23
ATOM     23  C   UNL     1      49.287   7.596  17.724  0.00  0.00    +0.000 C 
BRANCH  23  24
ATOM     24  N   UNL     1      48.221   7.030  18.550  0.00  0.00    +0.000 NA
ATOM     25  H   UNL     1      47.472   6.729  17.921  0.00  0.00    +0.000 HD
BRANCH  24  26
ATOM     26  CA  UNL     1      48.649   5.835  19.319  0.00  0.00    +0.000 C 
BRANCH  26  27
ATOM     27  C   UNL     1      48.676   4.609  18.406  0.00  0.00    +0.000 A 
ATOM     28  C   UNL     1      47.514   4.192  17.739  0.00  0.00    +0.000 A 
ATOM     29  C   UNL     1      47.534   3.069  16.905  0.00  0.00    +0.000 A 
ATOM     30  C   UNL     1      48.713   2.349  16.723  0.00  0.00    +0.000 A 
ATOM     31  C   UNL     1      49.879   2.756  17.365  0.00  0.00    +0.000 A 
ATOM     32  C   UNL     1      49.863   3.883  18.187  0.00  0.00    +0.000 A 
ENDBRANCH  26  27
BRANCH  26  33
ATOM     33  C   UNL     1      47.758   5.570  20.565  0.00  0.00    +0.000 C 
BRANCH  33  34
ATOM     34  O   UNL     1      48.062   4.324  21.192  0.00  0.00    +0.000 OA
ATOM     35  H   UNL     1      47.396   3.693  20.856  0.00  0.00    +0.000 HD
ENDBRANCH  33  34
ENDBRANCH  26  33
ENDBRANCH  24  26
ENDBRANCH  23  24
ENDBRANCH   4  23
TORSDOF 9
ENDMDL
MODEL 8
REMARK VINA RESULT:    -7.046      2.508      2.999
REMARK INTER + INTRA:         -11.480
REMARK INTER:                 -11.144
REMARK INTRA:                  -0.336
REMARK UNBOUND:                -0.933
REMARK  Name = 
REMARK  10 active torsions:
REMARK  status: ('A' for Active; 'I' for Inactive)
REMARK    1  A    between atoms: C_1  and  N_2
REMARK    2  A    between atoms: C_4  and  C_5
REMARK    3  A    between atoms: N_7  and  C_8
REMARK    4  A    between atoms: C_8  and  C_9
REMARK    5  A    between atoms: C_12  and  C_13
REMARK    6  A    between atoms: C_13  and  N_14
REMARK    7  A    between atoms: N_14  and  CA_15
REMARK    8  A    between atoms: CA_15  and  C_16
REMARK    9  A    between atoms: CA_15  and  C_18
REMARK   10  A    between atoms: C_16  and  O_17
REMARK                            x       y       z     vdW  Elec       q    Type
REMARK                         _______ _______ _______ _____ _____    ______ ____
ROOT
ATOM      1  C   UNL     1      48.199   7.357  14.760  0.00  0.00    +0.000 A 
ATOM      2  C   UNL     1      47.789   8.398  13.917  0.00  0.00    +0.000 A 
ATOM      3  C   UNL     1      47.216   8.120  12.673  0.00  0.00    +0.000 A 
ATOM      4  C   UNL     1      47.032   6.797  12.250  0.00  0.00    +0.000 A 
ATOM      5  C   UNL     1      47.445   5.757  13.096  0.00  0.00    +0.000 A 
ATOM      6  C   UNL     1      48.016   6.035  14.340  0.00  0.00    +0.000 A 
ENDROOT
BRANCH   1   7
ATOM      7  C   UNL     1      48.810   7.652  16.103  0.00  0.00    +0.000 C 
BRANCH   7  10
ATOM      8  C   UNL     1      49.894   5.983  17.514  0.00  0.00    +0.000 C 
ATOM      9  O   UNL     1      48.983   6.039  18.325  0.00  0.00    +0.000 OA
ATOM     10  N   UNL     1      49.926   6.782  16.390  0.00  0.00    +0.000 N 
ATOM     11  H   UNL     1      50.638   6.647  15.688  0.00  0.00    +0.000 HD
BRANCH   8  15
ATOM     12  C   UNL     1      54.508   4.334  18.454  0.00  0.00    +0.000 C 
ATOM     13  N   UNL     1      53.107   4.356  18.100  0.00  0.00    +0.000 N 
ATOM     14  C   UNL     1      52.325   5.473  17.991  0.00  0.00    +0.000 A 
ATOM     15  C   UNL     1      51.030   5.077  17.661  0.00  0.00    +0.000 A 
ATOM     16  C   UNL     1      51.057   3.638  17.555  0.00  0.00    +0.000 A 
ATOM     17  C   UNL     1      50.197   2.583  17.254  0.00  0.00    +0.000 A 
ATOM     18 CL   UNL     1      48.592   2.844  16.796  0.00  0.00    +0.000 Cl
ATOM     19  N   UNL     1      50.614   1.302  17.242  0.00  0.00    +0.000 NA
ATOM     20  C   UNL     1      51.898   1.078  17.540  0.00  0.00    +0.000 A 
ATOM     21  N   UNL     1      52.838   1.981  17.845  0.00  0.00    +0.000 NA
ATOM     22  C   UNL     1      52.361   3.241  17.833  0.00  0.00    +0.000 A 
ENDBRANCH   8  15
ENDBRANCH   7  10
ENDBRANCH   1   7
BRANCH   4  23
ATOM     23  C   UNL     1      46.346   6.480  10.939  0.00  0.00    +0.000 C 
BRANCH  23  24
ATOM     24  N   UNL     1      44.890   6.518  11.071  0.00  0.00    +0.000 NA
ATOM     25  H   UNL     1      44.510   6.869  10.188  0.00  0.00    +0.000 HD
BRANCH  24  26
ATOM     26  CA  UNL     1      44.289   5.181  11.300  0.00  0.00    +0.000 C 
BRANCH  26  27
ATOM     27  C   UNL     1      44.682   4.230  10.170  0.00  0.00    +0.000 A 
ATOM     28  C   UNL     1      45.380   4.706   9.049  0.00  0.00    +0.000 A 
ATOM     29  C   UNL     1      45.739   3.841   8.011  0.00  0.00    +0.000 A 
ATOM     30  C   UNL     1      45.411   2.488   8.079  0.00  0.00    +0.000 A 
ATOM     31  C   UNL     1      44.732   1.994   9.189  0.00  0.00    +0.000 A 
ATOM     32  C   UNL     1      44.384   2.855  10.231  0.00  0.00    +0.000 A 
ENDBRANCH  26  27
BRANCH  26  33
ATOM     33  C   UNL     1      42.743   5.235  11.457  0.00  0.00    +0.000 C 
BRANCH  33  34
ATOM     34  O   UNL     1      42.255   6.574  11.545  0.00  0.00    +0.000 OA
ATOM     35  H   UNL     1      41.525   6.544  12.193  0.00  0.00    +0.000 HD
ENDBRANCH  33  34
ENDBRANCH  26  33
ENDBRANCH  24  26
ENDBRANCH  23  24
ENDBRANCH   4  23
TORSDOF 9
ENDMDL
MODEL 9
REMARK VINA RESULT:    -6.863      5.716      7.599
REMARK INTER + INTRA:         -11.206
REMARK INTER:                 -10.031
REMARK INTRA:                  -1.175
REMARK UNBOUND:                -0.933
REMARK  Name = 
REMARK  10 active torsions:
REMARK  status: ('A' for Active; 'I' for Inactive)
REMARK    1  A    between atoms: C_1  and  N_2
REMARK    2  A    between atoms: C_4  and  C_5
REMARK    3  A    between atoms: N_7  and  C_8
REMARK    4  A    between atoms: C_8  and  C_9
REMARK    5  A    between atoms: C_12  and  C_13
REMARK    6  A    between atoms: C_13  and  N_14
REMARK    7  A    between atoms: N_14  and  CA_15
REMARK    8  A    between atoms: CA_15  and  C_16
REMARK    9  A    between atoms: CA_15  and  C_18
REMARK   10  A    between atoms: C_16  and  O_17
REMARK                            x       y       z     vdW  Elec       q    Type
REMARK                         _______ _______ _______ _____ _____    ______ ____
ROOT
ATOM      1  C   UNL     1      49.537   8.601  11.825  0.00  0.00    +0.000 A 
ATOM      2  C   UNL     1      48.584   9.622  11.936  0.00  0.00    +0.000 A 
ATOM      3  C   UNL     1      47.237   9.316  12.150  0.00  0.00    +0.000 A 
ATOM      4  C   UNL     1      46.817   7.984  12.268  0.00  0.00    +0.000 A 
ATOM      5  C   UNL     1      47.773   6.965  12.156  0.00  0.00    +0.000 A 
ATOM      6  C   UNL     1      49.119   7.270  11.944  0.00  0.00    +0.000 A 
ENDROOT
BRANCH   1   7
ATOM      7  C   UNL     1      50.989   8.926  11.602  0.00  0.00    +0.000 C 
BRANCH   7  10
ATOM      8  C   UNL     1      52.728   7.775  10.336  0.00  0.00    +0.000 C 
ATOM      9  O   UNL     1      53.470   7.773  11.306  0.00  0.00    +0.000 OA
ATOM     10  N   UNL     1      51.483   8.366  10.366  0.00  0.00    +0.000 N 
ATOM     11  H   UNL     1      50.852   8.267   9.584  0.00  0.00    +0.000 HD
BRANCH   8  15
ATOM     12  C   UNL     1      53.838   4.300   6.932  0.00  0.00    +0.000 C 
ATOM     13  N   UNL     1      53.575   5.583   7.545  0.00  0.00    +0.000 N 
ATOM     14  C   UNL     1      53.320   5.800   8.871  0.00  0.00    +0.000 A 
ATOM     15  C   UNL     1      53.091   7.161   9.062  0.00  0.00    +0.000 A 
ATOM     16  C   UNL     1      53.235   7.784   7.768  0.00  0.00    +0.000 A 
ATOM     17  C   UNL     1      53.178   9.053   7.192  0.00  0.00    +0.000 A 
ATOM     18 CL   UNL     1      52.918  10.441   8.119  0.00  0.00    +0.000 Cl
ATOM     19  N   UNL     1      53.395   9.252   5.878  0.00  0.00    +0.000 NA
ATOM     20  C   UNL     1      53.665   8.172   5.136  0.00  0.00    +0.000 A 
ATOM     21  N   UNL     1      53.757   6.900   5.543  0.00  0.00    +0.000 NA
ATOM     22  C   UNL     1      53.536   6.769   6.866  0.00  0.00    +0.000 A 
ENDBRANCH   8  15
ENDBRANCH   7  10
ENDBRANCH   1   7
BRANCH   4  23
ATOM     23  C   UNL     1      45.375   7.640  12.574  0.00  0.00    +0.000 C 
BRANCH  23  24
ATOM     24  N   UNL     1      44.747   6.921  11.466  0.00  0.00    +0.000 NA
ATOM     25  H   UNL     1      45.414   6.909  10.690  0.00  0.00    +0.000 HD
BRANCH  24  26
ATOM     26  CA  UNL     1      44.434   5.507  11.790  0.00  0.00    +0.000 C 
BRANCH  26  27
ATOM     27  C   UNL     1      44.709   4.620  10.575  0.00  0.00    +0.000 A 
ATOM     28  C   UNL     1      45.483   5.096   9.506  0.00  0.00    +0.000 A 
ATOM     29  C   UNL     1      45.735   4.288   8.392  0.00  0.00    +0.000 A 
ATOM     30  C   UNL     1      45.220   2.994   8.331  0.00  0.00    +0.000 A 
ATOM     31  C   UNL     1      44.462   2.500   9.388  0.00  0.00    +0.000 A 
ATOM     32  C   UNL     1      44.221   3.300  10.505  0.00  0.00    +0.000 A 
ENDBRANCH  26  27
BRANCH  26  33
ATOM     33  C   UNL     1      42.975   5.313  12.290  0.00  0.00    +0.000 C 
BRANCH  33  34
ATOM     34  O   UNL     1      42.067   6.228  11.676  0.00  0.00    +0.000 OA
ATOM     35  H   UNL     1      42.435   7.117  11.845  0.00  0.00    +0.000 HD
ENDBRANCH  33  34
ENDBRANCH  26  33
ENDBRANCH  24  26
ENDBRANCH  23  24
ENDBRANCH   4  23
TORSDOF 9
ENDMDL
