MODEL 1
REMARK VINA RESULT:    -8.680      0.000      0.000
REMARK INTER + INTRA:         -13.081
REMARK INTER:                 -11.978
REMARK INTRA:                  -1.103
REMARK UNBOUND:                -1.103
REMARK  Name = 
REMARK  7 active torsions:
REMARK  status: ('A' for Active; 'I' for Inactive)
REMARK    1  A    between atoms: N_1  and  C_2
REMARK    2  A    between atoms: C_2  and  C_3
REMARK    3  A    between atoms: C_2  and  C_10
REMARK    4  A    between atoms: C_3  and  C_4
REMARK    5  A    between atoms: C_13  and  C_14
REMARK    6  A    between atoms: C_14  and  N_15
REMARK    7  A    between atoms: C_16  and  C_18
REMARK                            x       y       z     vdW  Elec       q    Type
REMARK                         _______ _______ _______ _____ _____    ______ ____
ROOT
ATOM      1  C   UNL     1      45.095   4.401  11.147  0.00  0.00    +0.000 A 
ATOM      2  C   UNL     1      45.730   5.433  10.426  0.00  0.00    +0.000 A 
ATOM      3  C   UNL     1      46.265   6.557  11.060  0.00  0.00    +0.000 A 
ATOM      4  C   UNL     1      46.157   6.705  12.444  0.00  0.00    +0.000 A 
ATOM      5  C   UNL     1      45.431   5.745  13.160  0.00  0.00    +0.000 A 
ATOM      6  C   UNL     1      44.910   4.608  12.522  0.00  0.00    +0.000 A 
ENDROOT
BRANCH   1   7
ATOM      7  C   UNL     1      44.600   3.157  10.400  0.00  0.00    +0.000 C 
BRANCH   7   8
ATOM      8  N   UNL     1      43.266   2.770  10.905  0.00  0.00    +0.000 NA
ATOM      9  H   UNL     1      42.949   3.447  11.594  0.00  0.00    +0.000 HD
ATOM     10  H   UNL     1      43.354   1.880  11.395  0.00  0.00    +0.000 HD
ENDBRANCH   7   8
BRANCH   7  11
ATOM     11  C   UNL     1      44.541   3.286   8.848  0.00  0.00    +0.000 C 
BRANCH  11  12
ATOM     12  C   UNL     1      45.691   2.630   8.104  0.00  0.00    +0.000 A 
ATOM     13  C   UNL     1      46.550   3.378   7.291  0.00  0.00    +0.000 A 
ATOM     14  C   UNL     1      47.611   2.737   6.668  0.00  0.00    +0.000 A 
ATOM     15  N   UNL     1      47.868   1.418   6.787  0.00  0.00    +0.000 NA
ATOM     16  C   UNL     1      47.027   0.708   7.568  0.00  0.00    +0.000 A 
ATOM     17  C   UNL     1      45.946   1.261   8.239  0.00  0.00    +0.000 A 
ENDBRANCH  11  12
ENDBRANCH   7  11
ENDBRANCH   1   7
BRANCH   4  18
ATOM     18  C   UNL     1      46.785   7.886  13.138  0.00  0.00    +0.000 C 
BRANCH  18  19
ATOM     19  N   UNL     1      47.350   7.514  14.404  0.00  0.00    +0.000 N 
ATOM     20  C   UNL     1      48.534   6.824  14.486  0.00  0.00    +0.000 C 
ATOM     21  O   UNL     1      49.178   6.511  13.485  0.00  0.00    +0.000 OA
ATOM     22  H   UNL     1      46.740   7.563  15.214  0.00  0.00    +0.000 HD
BRANCH  20  23
ATOM     23  C   UNL     1      49.027   6.536  15.837  0.00  0.00    +0.000 A 
ATOM     24  C   UNL     1      49.964   7.375  16.424  0.00  0.00    +0.000 A 
ATOM     25  S   UNL     1      50.394   6.918  18.009  0.00  0.00    +0.000 S 
ATOM     26  C   UNL     1      49.383   5.551  17.947  0.00  0.00    +0.000 A 
ATOM     27  N   UNL     1      49.307   4.690  18.997  0.00  0.00    +0.000 NA
ATOM     28  C   UNL     1      48.522   3.682  18.805  0.00  0.00    +0.000 A 
ATOM     29  N   UNL     1      47.800   3.463  17.660  0.00  0.00    +0.000 N 
ATOM     30  C   UNL     1      47.819   4.322  16.589  0.00  0.00    +0.000 A 
ATOM     31  O   UNL     1      47.115   4.123  15.600  0.00  0.00    +0.000 OA
ATOM     32  C   UNL     1      48.706   5.462  16.746  0.00  0.00    +0.000 A 
ATOM     33  H   UNL     1      47.189   2.665  17.581  0.00  0.00    +0.000 HD
ENDBRANCH  20  23
ENDBRANCH  18  19
ENDBRANCH   4  18
TORSDOF 7
ENDMDL
MODEL 2
REMARK VINA RESULT:    -8.456      1.262      1.367
REMARK INTER + INTRA:         -12.772
REMARK INTER:                 -11.639
REMARK INTRA:                  -1.133
REMARK UNBOUND:                -1.103
REMARK  Name = 
REMARK  7 active torsions:
REMARK  status: ('A' for Active; 'I' for Inactive)
REMARK    1  A    between atoms: N_1  and  C_2
REMARK    2  A    between atoms: C_2  and  C_3
REMARK    3  A    between atoms: C_2  and  C_10
REMARK    4  A    between atoms: C_3  and  C_4
REMARK    5  A    between atoms: C_13  and  C_14
REMARK    6  A    between atoms: C_14  and  N_15
REMARK    7  A    between atoms: C_16  and  C_18
REMARK                            x       y       z     vdW  Elec       q    Type
REMARK                         _______ _______ _______ _____ _____    ______ ____
ROOT
ATOM      1  C   UNL     1      45.241   4.492  11.481  0.00  0.00    +0.000 A 
ATOM      2  C   UNL     1      45.689   5.680  10.869  0.00  0.00    +0.000 A 
ATOM      3  C   UNL     1      46.568   6.557  11.510  0.00  0.00    +0.000 A 
ATOM      4  C   UNL     1      47.011   6.288  12.806  0.00  0.00    +0.000 A 
ATOM      5  C   UNL     1      46.488   5.171  13.470  0.00  0.00    +0.000 A 
ATOM      6  C   UNL     1      45.618   4.283  12.816  0.00  0.00    +0.000 A 
ENDROOT
BRANCH   1   7
ATOM      7  C   UNL     1      44.339   3.534  10.693  0.00  0.00    +0.000 C 
BRANCH   7   8
ATOM      8  N   UNL     1      42.957   3.611  11.211  0.00  0.00    +0.000 NA
ATOM      9  H   UNL     1      42.296   3.537  10.441  0.00  0.00    +0.000 HD
ATOM     10  H   UNL     1      42.818   4.533  11.622  0.00  0.00    +0.000 HD
ENDBRANCH   7   8
BRANCH   7  11
ATOM     11  C   UNL     1      44.319   3.749   9.150  0.00  0.00    +0.000 C 
BRANCH  11  12
ATOM     12  C   UNL     1      45.401   3.008   8.383  0.00  0.00    +0.000 A 
ATOM     13  C   UNL     1      46.252   3.680   7.498  0.00  0.00    +0.000 A 
ATOM     14  C   UNL     1      47.252   2.964   6.855  0.00  0.00    +0.000 A 
ATOM     15  N   UNL     1      47.455   1.640   7.022  0.00  0.00    +0.000 NA
ATOM     16  C   UNL     1      46.623   1.005   7.874  0.00  0.00    +0.000 A 
ATOM     17  C   UNL     1      45.601   1.636   8.568  0.00  0.00    +0.000 A 
ENDBRANCH  11  12
ENDBRANCH   7  11
ENDBRANCH   1   7
BRANCH   4  18
ATOM     18  C   UNL     1      48.006   7.199  13.478  0.00  0.00    +0.000 C 
BRANCH  18  19
ATOM     19  N   UNL     1      47.906   7.127  14.908  0.00  0.00    +0.000 N 
ATOM     20  C   UNL     1      48.998   6.843  15.690  0.00  0.00    +0.000 C 
ATOM     21  O   UNL     1      50.116   6.660  15.209  0.00  0.00    +0.000 OA
ATOM     22  H   UNL     1      46.973   7.054  15.303  0.00  0.00    +0.000 HD
BRANCH  20  23
ATOM     23  C   UNL     1      48.776   6.835  17.140  0.00  0.00    +0.000 A 
ATOM     24  C   UNL     1      48.477   8.019  17.800  0.00  0.00    +0.000 A 
ATOM     25  S   UNL     1      48.207   7.821  19.472  0.00  0.00    +0.000 S 
ATOM     26  C   UNL     1      48.533   6.154  19.382  0.00  0.00    +0.000 A 
ATOM     27  N   UNL     1      48.503   5.374  20.497  0.00  0.00    +0.000 NA
ATOM     28  C   UNL     1      48.796   4.134  20.289  0.00  0.00    +0.000 A 
ATOM     29  N   UNL     1      49.106   3.601  19.064  0.00  0.00    +0.000 N 
ATOM     30  C   UNL     1      49.114   4.339  17.907  0.00  0.00    +0.000 A 
ATOM     31  O   UNL     1      49.342   3.817  16.818  0.00  0.00    +0.000 OA
ATOM     32  C   UNL     1      48.814   5.750  18.091  0.00  0.00    +0.000 A 
ATOM     33  H   UNL     1      49.306   2.617  18.966  0.00  0.00    +0.000 HD
ENDBRANCH  20  23
ENDBRANCH  18  19
ENDBRANCH   4  18
TORSDOF 7
ENDMDL
MODEL 3
REMARK VINA RESULT:    -8.041      2.070      2.585
REMARK INTER + INTRA:         -12.199
REMARK INTER:                 -10.921
REMARK INTRA:                  -1.278
REMARK UNBOUND:                -1.103
REMARK  Name = 
REMARK  7 active torsions:
REMARK  status: ('A' for Active; 'I' for Inactive)
REMARK    1  A    between atoms: N_1  and  C_2
REMARK    2  A    between atoms: C_2  and  C_3
REMARK    3  A    between atoms: C_2  and  C_10
REMARK    4  A    between atoms: C_3  and  C_4
REMARK    5  A    between atoms: C_13  and  C_14
REMARK    6  A    between atoms: C_14  and  N_15
REMARK    7  A    between atoms: C_16  and  C_18
REMARK                            x       y       z     vdW  Elec       q    Type
REMARK                         _______ _______ _______ _____ _____    ______ ____
ROOT
ATOM      1  C   UNL     1      45.292   4.738  11.579  0.00  0.00    +0.000 A 
ATOM      2  C   UNL     1      45.812   4.279  12.806  0.00  0.00    +0.000 A 
ATOM      3  C   UNL     1      46.695   5.048  13.569  0.00  0.00    +0.000 A 
ATOM      4  C   UNL     1      47.114   6.299  13.114  0.00  0.00    +0.000 A 
ATOM      5  C   UNL     1      46.695   6.720  11.845  0.00  0.00    +0.000 A 
ATOM      6  C   UNL     1      45.794   5.952  11.090  0.00  0.00    +0.000 A 
ENDROOT
BRANCH   1   7
ATOM      7  C   UNL     1      44.266   3.878  10.830  0.00  0.00    +0.000 C 
BRANCH   7   8
ATOM      8  N   UNL     1      42.913   4.136  11.365  0.00  0.00    +0.000 NA
ATOM      9  H   UNL     1      42.314   3.333  11.189  0.00  0.00    +0.000 HD
ATOM     10  H   UNL     1      42.507   4.916  10.850  0.00  0.00    +0.000 HD
ENDBRANCH   7   8
BRANCH   7  11
ATOM     11  C   UNL     1      44.246   4.056   9.282  0.00  0.00    +0.000 C 
BRANCH  11  12
ATOM     12  C   UNL     1      45.283   3.242   8.527  0.00  0.00    +0.000 A 
ATOM     13  C   UNL     1      46.151   3.846   7.609  0.00  0.00    +0.000 A 
ATOM     14  C   UNL     1      47.109   3.064   6.979  0.00  0.00    +0.000 A 
ATOM     15  N   UNL     1      47.255   1.739   7.188  0.00  0.00    +0.000 NA
ATOM     16  C   UNL     1      46.407   1.171   8.070  0.00  0.00    +0.000 A 
ATOM     17  C   UNL     1      45.425   1.869   8.756  0.00  0.00    +0.000 A 
ENDBRANCH  11  12
ENDBRANCH   7  11
ENDBRANCH   1   7
BRANCH   4  18
ATOM     18  C   UNL     1      48.018   7.158  13.961  0.00  0.00    +0.000 C 
BRANCH  18  19
ATOM     19  N   UNL     1      47.948   6.790  15.347  0.00  0.00    +0.000 N 
ATOM     20  C   UNL     1      49.072   6.444  16.055  0.00  0.00    +0.000 C 
ATOM     21  O   UNL     1      50.193   6.454  15.547  0.00  0.00    +0.000 OA
ATOM     22  H   UNL     1      47.031   6.562  15.718  0.00  0.00    +0.000 HD
BRANCH  20  23
ATOM     23  C   UNL     1      48.876   6.125  17.473  0.00  0.00    +0.000 A 
ATOM     24  C   UNL     1      49.204   4.863  17.948  0.00  0.00    +0.000 A 
ATOM     25  S   UNL     1      48.954   4.676  19.624  0.00  0.00    +0.000 S 
ATOM     26  C   UNL     1      48.348   6.260  19.765  0.00  0.00    +0.000 A 
ATOM     27  N   UNL     1      47.914   6.739  20.962  0.00  0.00    +0.000 NA
ATOM     28  C   UNL     1      47.455   7.945  20.919  0.00  0.00    +0.000 A 
ATOM     29  N   UNL     1      47.401   8.719  19.789  0.00  0.00    +0.000 N 
ATOM     30  C   UNL     1      47.859   8.292  18.567  0.00  0.00    +0.000 A 
ATOM     31  O   UNL     1      47.846   9.033  17.586  0.00  0.00    +0.000 OA
ATOM     32  C   UNL     1      48.364   6.929  18.556  0.00  0.00    +0.000 A 
ATOM     33  H   UNL     1      47.048   9.664  19.827  0.00  0.00    +0.000 HD
ENDBRANCH  20  23
ENDBRANCH  18  19
ENDBRANCH   4  18
TORSDOF 7
ENDMDL
MODEL 4
REMARK VINA RESULT:    -7.797      3.691      4.634
REMARK INTER + INTRA:         -11.863
REMARK INTER:                 -10.518
REMARK INTRA:                  -1.346
REMARK UNBOUND:                -1.103
REMARK  Name = 
REMARK  7 active torsions:
REMARK  status: ('A' for Active; 'I' for Inactive)
REMARK    1  A    between atoms: N_1  and  C_2
REMARK    2  A    between atoms: C_2  and  C_3
REMARK    3  A    between atoms: C_2  and  C_10
REMARK    4  A    between atoms: C_3  and  C_4
REMARK    5  A    between atoms: C_13  and  C_14
REMARK    6  A    between atoms: C_14  and  N_15
REMARK    7  A    between atoms: C_16  and  C_18
REMARK                            x       y       z     vdW  Elec       q    Type
REMARK                         _______ _______ _______ _____ _____    ______ ____
ROOT
ATOM      1  C   UNL     1      45.024   4.405  11.132  0.00  0.00    +0.000 A 
ATOM      2  C   UNL     1      45.075   4.524  12.536  0.00  0.00    +0.000 A 
ATOM      3  C   UNL     1      45.309   5.749  13.167  0.00  0.00    +0.000 A 
ATOM      4  C   UNL     1      45.532   6.900  12.410  0.00  0.00    +0.000 A 
ATOM      5  C   UNL     1      45.596   6.778  11.016  0.00  0.00    +0.000 A 
ATOM      6  C   UNL     1      45.343   5.549  10.385  0.00  0.00    +0.000 A 
ENDROOT
BRANCH   1   7
ATOM      7  C   UNL     1      44.684   3.048  10.505  0.00  0.00    +0.000 C 
BRANCH   7   8
ATOM      8  N   UNL     1      43.461   2.501  11.130  0.00  0.00    +0.000 NA
ATOM      9  H   UNL     1      43.308   1.548  10.810  0.00  0.00    +0.000 HD
ATOM     10  H   UNL     1      42.664   3.046  10.806  0.00  0.00    +0.000 HD
ENDBRANCH   7   8
BRANCH   7  11
ATOM     11  C   UNL     1      44.508   3.050   8.956  0.00  0.00    +0.000 C 
BRANCH  11  12
ATOM     12  C   UNL     1      45.691   2.507   8.173  0.00  0.00    +0.000 A 
ATOM     13  C   UNL     1      46.504   3.352   7.409  0.00  0.00    +0.000 A 
ATOM     14  C   UNL     1      47.599   2.811   6.748  0.00  0.00    +0.000 A 
ATOM     15  N   UNL     1      47.929   1.504   6.785  0.00  0.00    +0.000 NA
ATOM     16  C   UNL     1      47.132   0.701   7.521  0.00  0.00    +0.000 A 
ATOM     17  C   UNL     1      46.023   1.149   8.224  0.00  0.00    +0.000 A 
ENDBRANCH  11  12
ENDBRANCH   7  11
ENDBRANCH   1   7
BRANCH   4  18
ATOM     18  C   UNL     1      45.726   8.233  13.086  0.00  0.00    +0.000 C 
BRANCH  18  19
ATOM     19  N   UNL     1      47.068   8.717  12.924  0.00  0.00    +0.000 N 
ATOM     20  C   UNL     1      47.347   9.811  12.144  0.00  0.00    +0.000 C 
ATOM     21  O   UNL     1      46.464  10.442  11.564  0.00  0.00    +0.000 OA
ATOM     22  H   UNL     1      47.819   8.094  13.203  0.00  0.00    +0.000 HD
BRANCH  20  23
ATOM     23  C   UNL     1      48.751  10.230  12.088  0.00  0.00    +0.000 A 
ATOM     24  C   UNL     1      49.080  11.567  12.266  0.00  0.00    +0.000 A 
ATOM     25  S   UNL     1      50.757  11.871  12.214  0.00  0.00    +0.000 S 
ATOM     26  C   UNL     1      51.099  10.234  11.900  0.00  0.00    +0.000 A 
ATOM     27  N   UNL     1      52.379   9.811  11.713  0.00  0.00    +0.000 NA
ATOM     28  C   UNL     1      52.492   8.550  11.457  0.00  0.00    +0.000 A 
ATOM     29  N   UNL     1      51.440   7.673  11.379  0.00  0.00    +0.000 N 
ATOM     30  C   UNL     1      50.137   8.047  11.594  0.00  0.00    +0.000 A 
ATOM     31  O   UNL     1      49.225   7.223  11.572  0.00  0.00    +0.000 OA
ATOM     32  C   UNL     1      49.953   9.463  11.864  0.00  0.00    +0.000 A 
ATOM     33  H   UNL     1      51.598   6.694  11.194  0.00  0.00    +0.000 HD
ENDBRANCH  20  23
ENDBRANCH  18  19
ENDBRANCH   4  18
TORSDOF 7
ENDMDL
MODEL 5
REMARK VINA RESULT:    -7.314      3.149      4.240
REMARK INTER + INTRA:         -11.197
REMARK INTER:                  -9.976
REMARK INTRA:                  -1.221
REMARK UNBOUND:                -1.103
REMARK  Name = 
REMARK  7 active torsions:
REMARK  status: ('A' for Active; 'I' for Inactive)
REMARK    1  A    between atoms: N_1  and  C_2
REMARK    2  A    between atoms: C_2  and  C_3
REMARK    3  A    between atoms: C_2  and  C_10
REMARK    4  A    between atoms: C_3  and  C_4
REMARK    5  A    between atoms: C_13  and  C_14
REMARK    6  A    between atoms: C_14  and  N_15
REMARK    7  A    between atoms: C_16  and  C_18
REMARK                            x       y       z     vdW  Elec       q    Type
REMARK                         _______ _______ _______ _____ _____    ______ ____
ROOT
ATOM      1  C   UNL     1      45.229   4.252  11.290  0.00  0.00    +0.000 A 
ATOM      2  C   UNL     1      45.700   4.050  12.604  0.00  0.00    +0.000 A 
ATOM      3  C   UNL     1      46.337   5.064  13.324  0.00  0.00    +0.000 A 
ATOM      4  C   UNL     1      46.555   6.313  12.741  0.00  0.00    +0.000 A 
ATOM      5  C   UNL     1      46.194   6.494  11.400  0.00  0.00    +0.000 A 
ATOM      6  C   UNL     1      45.538   5.479  10.685  0.00  0.00    +0.000 A 
ENDROOT
BRANCH   1   7
ATOM      7  C   UNL     1      44.467   3.123  10.584  0.00  0.00    +0.000 C 
BRANCH   7   8
ATOM      8  N   UNL     1      43.088   3.046  11.111  0.00  0.00    +0.000 NA
ATOM      9  H   UNL     1      42.483   2.600  10.426  0.00  0.00    +0.000 HD
ATOM     10  H   UNL     1      42.737   3.995  11.230  0.00  0.00    +0.000 HD
ENDBRANCH   7   8
BRANCH   7  11
ATOM     11  C   UNL     1      44.416   3.220   9.030  0.00  0.00    +0.000 C 
BRANCH  11  12
ATOM     12  C   UNL     1      45.603   2.607   8.307  0.00  0.00    +0.000 A 
ATOM     13  C   UNL     1      45.848   1.230   8.351  0.00  0.00    +0.000 A 
ATOM     14  C   UNL     1      46.922   0.716   7.637  0.00  0.00    +0.000 A 
ATOM     15  N   UNL     1      47.764   1.470   6.900  0.00  0.00    +0.000 NA
ATOM     16  C   UNL     1      47.519   2.796   6.872  0.00  0.00    +0.000 A 
ATOM     17  C   UNL     1      46.467   3.401   7.544  0.00  0.00    +0.000 A 
ENDBRANCH  11  12
ENDBRANCH   7  11
ENDBRANCH   1   7
BRANCH   4  18
ATOM     18  C   UNL     1      47.188   7.427  13.535  0.00  0.00    +0.000 C 
BRANCH  18  19
ATOM     19  N   UNL     1      48.553   7.641  13.148  0.00  0.00    +0.000 N 
ATOM     20  C   UNL     1      49.007   8.881  12.772  0.00  0.00    +0.000 C 
ATOM     21  O   UNL     1      48.275   9.871  12.770  0.00  0.00    +0.000 OA
ATOM     22  H   UNL     1      49.106   6.818  12.931  0.00  0.00    +0.000 HD
BRANCH  20  23
ATOM     23  C   UNL     1      50.430   8.980  12.435  0.00  0.00    +0.000 A 
ATOM     24  C   UNL     1      50.817   9.558  11.234  0.00  0.00    +0.000 A 
ATOM     25  S   UNL     1      52.507   9.630  11.022  0.00  0.00    +0.000 S 
ATOM     26  C   UNL     1      52.781   8.843  12.505  0.00  0.00    +0.000 A 
ATOM     27  N   UNL     1      54.044   8.559  12.923  0.00  0.00    +0.000 NA
ATOM     28  C   UNL     1      54.105   7.936  14.053  0.00  0.00    +0.000 A 
ATOM     29  N   UNL     1      53.016   7.580  14.806  0.00  0.00    +0.000 N 
ATOM     30  C   UNL     1      51.726   7.875  14.442  0.00  0.00    +0.000 A 
ATOM     31  O   UNL     1      50.777   7.589  15.169  0.00  0.00    +0.000 OA
ATOM     32  C   UNL     1      51.601   8.556  13.164  0.00  0.00    +0.000 A 
ATOM     33  H   UNL     1      53.133   7.111  15.691  0.00  0.00    +0.000 HD
ENDBRANCH  20  23
ENDBRANCH  18  19
ENDBRANCH   4  18
TORSDOF 7
ENDMDL
MODEL 6
REMARK VINA RESULT:    -7.234      2.243      2.477
REMARK INTER + INTRA:         -11.086
REMARK INTER:                  -9.926
REMARK INTRA:                  -1.160
REMARK UNBOUND:                -1.103
REMARK  Name = 
REMARK  7 active torsions:
REMARK  status: ('A' for Active; 'I' for Inactive)
REMARK    1  A    between atoms: N_1  and  C_2
REMARK    2  A    between atoms: C_2  and  C_3
REMARK    3  A    between atoms: C_2  and  C_10
REMARK    4  A    between atoms: C_3  and  C_4
REMARK    5  A    between atoms: C_13  and  C_14
REMARK    6  A    between atoms: C_14  and  N_15
REMARK    7  A    between atoms: C_16  and  C_18
REMARK                            x       y       z     vdW  Elec       q    Type
REMARK                         _______ _______ _______ _____ _____    ______ ____
ROOT
ATOM      1  C   UNL     1      45.172   4.683  11.183  0.00  0.00    +0.000 A 
ATOM      2  C   UNL     1      45.892   4.566  12.389  0.00  0.00    +0.000 A 
ATOM      3  C   UNL     1      46.326   5.686  13.103  0.00  0.00    +0.000 A 
ATOM      4  C   UNL     1      46.080   6.971  12.616  0.00  0.00    +0.000 A 
ATOM      5  C   UNL     1      45.466   7.102  11.364  0.00  0.00    +0.000 A 
ATOM      6  C   UNL     1      45.015   5.975  10.659  0.00  0.00    +0.000 A 
ENDROOT
BRANCH   1   7
ATOM      7  C   UNL     1      44.656   3.416  10.490  0.00  0.00    +0.000 C 
BRANCH   7   8
ATOM      8  N   UNL     1      43.326   3.060  11.028  0.00  0.00    +0.000 NA
ATOM      9  H   UNL     1      43.037   3.750  11.716  0.00  0.00    +0.000 HD
ATOM     10  H   UNL     1      43.407   2.174  11.526  0.00  0.00    +0.000 HD
ENDBRANCH   7   8
BRANCH   7  11
ATOM     11  C   UNL     1      44.576   3.486   8.936  0.00  0.00    +0.000 C 
BRANCH  11  12
ATOM     12  C   UNL     1      45.682   2.750   8.200  0.00  0.00    +0.000 A 
ATOM     13  C   UNL     1      46.588   3.432   7.381  0.00  0.00    +0.000 A 
ATOM     14  C   UNL     1      47.607   2.717   6.766  0.00  0.00    +0.000 A 
ATOM     15  N   UNL     1      47.778   1.385   6.900  0.00  0.00    +0.000 NA
ATOM     16  C   UNL     1      46.893   0.740   7.689  0.00  0.00    +0.000 A 
ATOM     17  C   UNL     1      45.849   1.369   8.352  0.00  0.00    +0.000 A 
ENDBRANCH  11  12
ENDBRANCH   7  11
ENDBRANCH   1   7
BRANCH   4  18
ATOM     18  C   UNL     1      46.494   8.182  13.412  0.00  0.00    +0.000 C 
BRANCH  18  19
ATOM     19  N   UNL     1      47.452   7.845  14.427  0.00  0.00    +0.000 N 
ATOM     20  C   UNL     1      48.734   8.333  14.393  0.00  0.00    +0.000 C 
ATOM     21  O   UNL     1      49.119   9.099  13.509  0.00  0.00    +0.000 OA
ATOM     22  H   UNL     1      47.231   7.056  15.027  0.00  0.00    +0.000 HD
BRANCH  20  23
ATOM     23  C   UNL     1      49.608   7.947  15.506  0.00  0.00    +0.000 A 
ATOM     24  C   UNL     1      50.731   7.168  15.264  0.00  0.00    +0.000 A 
ATOM     25  S   UNL     1      51.655   6.848  16.660  0.00  0.00    +0.000 S 
ATOM     26  C   UNL     1      50.559   7.696  17.646  0.00  0.00    +0.000 A 
ATOM     27  N   UNL     1      50.750   7.783  18.991  0.00  0.00    +0.000 NA
ATOM     28  C   UNL     1      49.829   8.432  19.620  0.00  0.00    +0.000 A 
ATOM     29  N   UNL     1      48.737   9.011  19.025  0.00  0.00    +0.000 N 
ATOM     30  C   UNL     1      48.521   8.980  17.669  0.00  0.00    +0.000 A 
ATOM     31  O   UNL     1      47.561   9.558  17.164  0.00  0.00    +0.000 OA
ATOM     32  C   UNL     1      49.519   8.239  16.916  0.00  0.00    +0.000 A 
ATOM     33  H   UNL     1      48.062   9.523  19.572  0.00  0.00    +0.000 HD
ENDBRANCH  20  23
ENDBRANCH  18  19
ENDBRANCH   4  18
TORSDOF 7
ENDMDL
MODEL 7
REMARK VINA RESULT:    -6.847      2.831      8.342
REMARK INTER + INTRA:         -10.552
REMARK INTER:                  -8.965
REMARK INTRA:                  -1.588
REMARK UNBOUND:                -1.103
REMARK  Name = 
REMARK  7 active torsions:
REMARK  status: ('A' for Active; 'I' for Inactive)
REMARK    1  A    between atoms: N_1  and  C_2
REMARK    2  A    between atoms: C_2  and  C_3
REMARK    3  A    between atoms: C_2  and  C_10
REMARK    4  A    between atoms: C_3  and  C_4
REMARK    5  A    between atoms: C_13  and  C_14
REMARK    6  A    between atoms: C_14  and  N_15
REMARK    7  A    between atoms: C_16  and  C_18
REMARK                            x       y       z     vdW  Elec       q    Type
REMARK                         _______ _______ _______ _____ _____    ______ ____
ROOT
ATOM      1  C   UNL     1      49.488   7.898  15.866  0.00  0.00    +0.000 A 
ATOM      2  C   UNL     1      48.298   8.591  15.566  0.00  0.00    +0.000 A 
ATOM      3  C   UNL     1      47.732   8.572  14.289  0.00  0.00    +0.000 A 
ATOM      4  C   UNL     1      48.357   7.879  13.251  0.00  0.00    +0.000 A 
ATOM      5  C   UNL     1      49.598   7.279  13.505  0.00  0.00    +0.000 A 
ATOM      6  C   UNL     1      50.154   7.285  14.794  0.00  0.00    +0.000 A 
ENDROOT
BRANCH   1   7
ATOM      7  C   UNL     1      50.013   7.894  17.307  0.00  0.00    +0.000 C 
BRANCH   7   8
ATOM      8  N   UNL     1      49.939   9.260  17.868  0.00  0.00    +0.000 NA
ATOM      9  H   UNL     1      49.214   9.300  18.580  0.00  0.00    +0.000 HD
ATOM     10  H   UNL     1      49.650   9.897  17.127  0.00  0.00    +0.000 HD
ENDBRANCH   7   8
BRANCH   7  11
ATOM     11  C   UNL     1      49.303   6.903  18.277  0.00  0.00    +0.000 C 
BRANCH  11  12
ATOM     12  C   UNL     1      49.208   5.472  17.779  0.00  0.00    +0.000 A 
ATOM     13  C   UNL     1      48.053   5.000  17.144  0.00  0.00    +0.000 A 
ATOM     14  C   UNL     1      48.035   3.695  16.669  0.00  0.00    +0.000 A 
ATOM     15  N   UNL     1      49.068   2.836  16.790  0.00  0.00    +0.000 NA
ATOM     16  C   UNL     1      50.172   3.304  17.410  0.00  0.00    +0.000 A 
ATOM     17  C   UNL     1      50.288   4.593  17.909  0.00  0.00    +0.000 A 
ENDBRANCH  11  12
ENDBRANCH   7  11
ENDBRANCH   1   7
BRANCH   4  18
ATOM     18  C   UNL     1      47.720   7.806  11.887  0.00  0.00    +0.000 C 
BRANCH  18  19
ATOM     19  N   UNL     1      46.996   6.579  11.709  0.00  0.00    +0.000 N 
ATOM     20  C   UNL     1      45.631   6.526  11.840  0.00  0.00    +0.000 C 
ATOM     21  O   UNL     1      44.960   7.526  12.095  0.00  0.00    +0.000 OA
ATOM     22  H   UNL     1      47.535   5.719  11.720  0.00  0.00    +0.000 HD
BRANCH  20  23
ATOM     23  C   UNL     1      45.003   5.223  11.597  0.00  0.00    +0.000 A 
ATOM     24  C   UNL     1      44.297   4.595  12.614  0.00  0.00    +0.000 A 
ATOM     25  S   UNL     1      43.598   3.112  12.147  0.00  0.00    +0.000 S 
ATOM     26  C   UNL     1      44.258   3.231  10.583  0.00  0.00    +0.000 A 
ATOM     27  N   UNL     1      44.061   2.248   9.664  0.00  0.00    +0.000 NA
ATOM     28  C   UNL     1      44.640   2.454   8.529  0.00  0.00    +0.000 A 
ATOM     29  N   UNL     1      45.391   3.561   8.227  0.00  0.00    +0.000 N 
ATOM     30  C   UNL     1      45.589   4.594   9.109  0.00  0.00    +0.000 A 
ATOM     31  O   UNL     1      46.223   5.596   8.785  0.00  0.00    +0.000 OA
ATOM     32  C   UNL     1      44.977   4.399  10.412  0.00  0.00    +0.000 A 
ATOM     33  H   UNL     1      45.802   3.671   7.312  0.00  0.00    +0.000 HD
ENDBRANCH  20  23
ENDBRANCH  18  19
ENDBRANCH   4  18
TORSDOF 7
ENDMDL
MODEL 8
REMARK VINA RESULT:    -6.789      3.527      7.916
REMARK INTER + INTRA:         -10.472
REMARK INTER:                  -8.776
REMARK INTRA:                  -1.696
REMARK UNBOUND:                -1.103
REMARK  Name = 
REMARK  7 active torsions:
REMARK  status: ('A' for Active; 'I' for Inactive)
REMARK    1  A    between atoms: N_1  and  C_2
REMARK    2  A    between atoms: C_2  and  C_3
REMARK    3  A    between atoms: C_2  and  C_10
REMARK    4  A    between atoms: C_3  and  C_4
REMARK    5  A    between atoms: C_13  and  C_14
REMARK    6  A    between atoms: C_14  and  N_15
REMARK    7  A    between atoms: C_16  and  C_18
REMARK                            x       y       z     vdW  Elec       q    Type
REMARK                         _______ _______ _______ _____ _____    ______ ____
ROOT
ATOM      1  C   UNL     1      50.417   6.819  17.570  0.00  0.00    +0.000 A 
ATOM      2  C   UNL     1      49.395   7.710  17.955  0.00  0.00    +0.000 A 
ATOM      3  C   UNL     1      48.639   8.419  17.017  0.00  0.00    +0.000 A 
ATOM      4  C   UNL     1      48.900   8.281  15.653  0.00  0.00    +0.000 A 
ATOM      5  C   UNL     1      49.984   7.487  15.259  0.00  0.00    +0.000 A 
ATOM      6  C   UNL     1      50.730   6.763  16.203  0.00  0.00    +0.000 A 
ENDROOT
BRANCH   1   7
ATOM      7  C   UNL     1      51.156   6.014  18.645  0.00  0.00    +0.000 C 
BRANCH   7   8
ATOM      8  N   UNL     1      51.507   6.897  19.777  0.00  0.00    +0.000 NA
ATOM      9  H   UNL     1      50.705   7.000  20.394  0.00  0.00    +0.000 HD
ATOM     10  H   UNL     1      51.709   7.825  19.410  0.00  0.00    +0.000 HD
ENDBRANCH   7   8
BRANCH   7  11
ATOM     11  C   UNL     1      50.399   4.764  19.186  0.00  0.00    +0.000 C 
BRANCH  11  12
ATOM     12  C   UNL     1      50.030   3.730  18.137  0.00  0.00    +0.000 A 
ATOM     13  C   UNL     1      50.952   2.766  17.713  0.00  0.00    +0.000 A 
ATOM     14  C   UNL     1      50.550   1.816  16.784  0.00  0.00    +0.000 A 
ATOM     15  N   UNL     1      49.313   1.767  16.246  0.00  0.00    +0.000 NA
ATOM     16  C   UNL     1      48.437   2.706  16.660  0.00  0.00    +0.000 A 
ATOM     17  C   UNL     1      48.743   3.689  17.591  0.00  0.00    +0.000 A 
ENDBRANCH  11  12
ENDBRANCH   7  11
ENDBRANCH   1   7
BRANCH   4  18
ATOM     18  C   UNL     1      48.047   8.996  14.636  0.00  0.00    +0.000 C 
BRANCH  18  19
ATOM     19  N   UNL     1      47.037   8.132  14.093  0.00  0.00    +0.000 N 
ATOM     20  C   UNL     1      46.782   8.086  12.745  0.00  0.00    +0.000 C 
ATOM     21  O   UNL     1      47.417   8.762  11.936  0.00  0.00    +0.000 OA
ATOM     22  H   UNL     1      46.364   7.742  14.745  0.00  0.00    +0.000 HD
BRANCH  20  23
ATOM     23  C   UNL     1      45.753   7.136  12.309  0.00  0.00    +0.000 A 
ATOM     24  C   UNL     1      44.638   7.594  11.621  0.00  0.00    +0.000 A 
ATOM     25  S   UNL     1      43.566   6.353  11.154  0.00  0.00    +0.000 S 
ATOM     26  C   UNL     1      44.529   5.166  11.900  0.00  0.00    +0.000 A 
ATOM     27  N   UNL     1      44.155   3.858  11.896  0.00  0.00    +0.000 NA
ATOM     28  C   UNL     1      44.963   3.069  12.521  0.00  0.00    +0.000 A 
ATOM     29  N   UNL     1      46.118   3.470  13.143  0.00  0.00    +0.000 N 
ATOM     30  C   UNL     1      46.554   4.771  13.144  0.00  0.00    +0.000 A 
ATOM     31  O   UNL     1      47.622   5.086  13.664  0.00  0.00    +0.000 OA
ATOM     32  C   UNL     1      45.665   5.705  12.472  0.00  0.00    +0.000 A 
ATOM     33  H   UNL     1      46.718   2.799  13.598  0.00  0.00    +0.000 HD
ENDBRANCH  20  23
ENDBRANCH  18  19
ENDBRANCH   4  18
TORSDOF 7
ENDMDL
MODEL 9
REMARK VINA RESULT:    -6.587      4.046      5.774
REMARK INTER + INTRA:         -10.193
REMARK INTER:                  -9.224
REMARK INTRA:                  -0.969
REMARK UNBOUND:                -1.103
REMARK  Name = 
REMARK  7 active torsions:
REMARK  status: ('A' for Active; 'I' for Inactive)
REMARK    1  A    between atoms: N_1  and  C_2
REMARK    2  A    between atoms: C_2  and  C_3
REMARK    3  A    between atoms: C_2  and  C_10
REMARK    4  A    between atoms: C_3  and  C_4
REMARK    5  A    between atoms: C_13  and  C_14
REMARK    6  A    between atoms: C_14  and  N_15
REMARK    7  A    between atoms: C_16  and  C_18
REMARK                            x       y       z     vdW  Elec       q    Type
REMARK                         _______ _______ _______ _____ _____    ______ ____
ROOT
ATOM      1  C   UNL     1      45.232   7.236  12.116  0.00  0.00    +0.000 A 
ATOM      2  C   UNL     1      44.424   6.129  12.444  0.00  0.00    +0.000 A 
ATOM      3  C   UNL     1      44.904   5.064  13.211  0.00  0.00    +0.000 A 
ATOM      4  C   UNL     1      46.227   5.054  13.654  0.00  0.00    +0.000 A 
ATOM      5  C   UNL     1      47.074   6.091  13.242  0.00  0.00    +0.000 A 
ATOM      6  C   UNL     1      46.583   7.169  12.487  0.00  0.00    +0.000 A 
ENDROOT
BRANCH   1   7
ATOM      7  C   UNL     1      44.621   8.409  11.339  0.00  0.00    +0.000 C 
BRANCH   7   8
ATOM      8  N   UNL     1      43.208   8.115  11.022  0.00  0.00    +0.000 NA
ATOM      9  H   UNL     1      43.145   7.678  10.107  0.00  0.00    +0.000 HD
ATOM     10  H   UNL     1      42.704   8.998  10.955  0.00  0.00    +0.000 HD
ENDBRANCH   7   8
BRANCH   7  11
ATOM     11  C   UNL     1      44.710   9.797  12.042  0.00  0.00    +0.000 C 
BRANCH  11  12
ATOM     12  C   UNL     1      45.690  10.774  11.416  0.00  0.00    +0.000 A 
ATOM     13  C   UNL     1      47.064  10.686  11.670  0.00  0.00    +0.000 A 
ATOM     14  C   UNL     1      47.921  11.577  11.038  0.00  0.00    +0.000 A 
ATOM     15  N   UNL     1      47.510  12.543  10.190  0.00  0.00    +0.000 NA
ATOM     16  C   UNL     1      46.182  12.619   9.960  0.00  0.00    +0.000 A 
ATOM     17  C   UNL     1      45.250  11.769  10.537  0.00  0.00    +0.000 A 
ENDBRANCH  11  12
ENDBRANCH   7  11
ENDBRANCH   1   7
BRANCH   4  18
ATOM     18  C   UNL     1      46.732   3.937  14.531  0.00  0.00    +0.000 C 
BRANCH  18  19
ATOM     19  N   UNL     1      47.550   4.434  15.600  0.00  0.00    +0.000 N 
ATOM     20  C   UNL     1      47.392   3.992  16.890  0.00  0.00    +0.000 C 
ATOM     21  O   UNL     1      46.560   3.136  17.189  0.00  0.00    +0.000 OA
ATOM     22  H   UNL     1      48.077   5.284  15.422  0.00  0.00    +0.000 HD
BRANCH  20  23
ATOM     23  C   UNL     1      48.313   4.548  17.887  0.00  0.00    +0.000 A 
ATOM     24  C   UNL     1      47.901   5.594  18.700  0.00  0.00    +0.000 A 
ATOM     25  S   UNL     1      49.080   6.088  19.829  0.00  0.00    +0.000 S 
ATOM     26  C   UNL     1      50.201   4.955  19.235  0.00  0.00    +0.000 A 
ATOM     27  N   UNL     1      51.455   4.871  19.758  0.00  0.00    +0.000 NA
ATOM     28  C   UNL     1      52.210   3.987  19.196  0.00  0.00    +0.000 A 
ATOM     29  N   UNL     1      51.820   3.172  18.164  0.00  0.00    +0.000 N 
ATOM     30  C   UNL     1      50.557   3.196  17.628  0.00  0.00    +0.000 A 
ATOM     31  O   UNL     1      50.225   2.412  16.741  0.00  0.00    +0.000 OA
ATOM     32  C   UNL     1      49.673   4.192  18.211  0.00  0.00    +0.000 A 
ATOM     33  H   UNL     1      52.454   2.486  17.782  0.00  0.00    +0.000 HD
ENDBRANCH  20  23
ENDBRANCH  18  19
ENDBRANCH   4  18
TORSDOF 7
ENDMDL
