MODEL 1
REMARK VINA RESULT:    -8.316      0.000      0.000
REMARK INTER + INTRA:         -12.347
REMARK INTER:                 -11.233
REMARK INTRA:                  -1.114
REMARK UNBOUND:                -1.114
REMARK  Name = 
REMARK  6 active torsions:
REMARK  status: ('A' for Active; 'I' for Inactive)
REMARK    1  A    between atoms: C_2  and  C_25
REMARK    2  A    between atoms: N_3  and  C_4
REMARK    3  A    between atoms: C_4  and  C_5
REMARK    4  A    between atoms: C_8  and  C_9
REMARK    5  A    between atoms: C_9  and  N_10
REMARK    6  A    between atoms: C_11  and  C_13
REMARK                            x       y       z     vdW  Elec       q    Type
REMARK                         _______ _______ _______ _____ _____    ______ ____
ROOT
ATOM      1  C   UNL     1      44.853   6.056  11.048  0.00  0.00    +0.000 A 
ATOM      2  C   UNL     1      44.327   7.185  11.691  0.00  0.00    +0.000 A 
ATOM      3  C   UNL     1      45.124   7.956  12.545  0.00  0.00    +0.000 A 
ATOM      4  C   UNL     1      46.469   7.626  12.755  0.00  0.00    +0.000 A 
ATOM      5  C   UNL     1      46.989   6.488  12.125  0.00  0.00    +0.000 A 
ATOM      6  C   UNL     1      46.193   5.718  11.271  0.00  0.00    +0.000 A 
ENDROOT
BRANCH   1   7
ATOM      7  C   UNL     1      44.003   5.251  10.098  0.00  0.00    +0.000 C 
BRANCH   7  10
ATOM      8  O   UNL     1      44.603   2.512   9.944  0.00  0.00    +0.000 OA
ATOM      9  C   UNL     1      45.051   3.269   9.093  0.00  0.00    +0.000 C 
ATOM     10  N   UNL     1      44.816   4.628   9.081  0.00  0.00    +0.000 N 
ATOM     11  H   UNL     1      45.023   5.166   8.250  0.00  0.00    +0.000 HD
BRANCH   9  12
ATOM     12  C   UNL     1      45.876   2.744   7.983  0.00  0.00    +0.000 A 
ATOM     13  C   UNL     1      46.196   3.506   6.856  0.00  0.00    +0.000 A 
ATOM     14  C   UNL     1      46.982   2.945   5.852  0.00  0.00    +0.000 A 
ATOM     15  C   UNL     1      47.426   1.641   6.013  0.00  0.00    +0.000 A 
ATOM     16  N   UNL     1      47.145   0.882   7.095  0.00  0.00    +0.000 NA
ATOM     17  C   UNL     1      46.386   1.455   8.064  0.00  0.00    +0.000 A 
ENDBRANCH   9  12
ENDBRANCH   7  10
ENDBRANCH   1   7
BRANCH   4  18
ATOM     18  C   UNL     1      47.334   8.449  13.678  0.00  0.00    +0.000 C 
BRANCH  18  19
ATOM     19  N   UNL     1      47.728   7.685  14.832  0.00  0.00    +0.000 N 
ATOM     20  C   UNL     1      48.978   7.131  14.943  0.00  0.00    +0.000 C 
ATOM     21  O   UNL     1      49.841   7.293  14.085  0.00  0.00    +0.000 OA
ATOM     22  H   UNL     1      46.979   7.337  15.423  0.00  0.00    +0.000 HD
BRANCH  20  23
ATOM     23  C   UNL     1      49.253   6.387  16.180  0.00  0.00    +0.000 A 
ATOM     24  C   UNL     1      50.264   6.812  17.033  0.00  0.00    +0.000 A 
ATOM     25  S   UNL     1      50.388   5.886  18.460  0.00  0.00    +0.000 S 
ATOM     26  C   UNL     1      49.135   4.849  17.963  0.00  0.00    +0.000 A 
ATOM     27  N   UNL     1      48.737   3.807  18.741  0.00  0.00    +0.000 NA
ATOM     28  C   UNL     1      47.797   3.085  18.228  0.00  0.00    +0.000 A 
ATOM     29  N   UNL     1      47.219   3.311  17.005  0.00  0.00    +0.000 N 
ATOM     30  C   UNL     1      47.574   4.361  16.195  0.00  0.00    +0.000 A 
ATOM     31  O   UNL     1      47.020   4.550  15.117  0.00  0.00    +0.000 OA
ATOM     32  C   UNL     1      48.625   5.208  16.728  0.00  0.00    +0.000 A 
ATOM     33  H   UNL     1      46.487   2.709  16.659  0.00  0.00    +0.000 HD
ENDBRANCH  20  23
ENDBRANCH  18  19
ENDBRANCH   4  18
TORSDOF 6
ENDMDL
MODEL 2
REMARK VINA RESULT:    -7.701      2.364      2.880
REMARK INTER + INTRA:         -11.516
REMARK INTER:                 -10.493
REMARK INTRA:                  -1.023
REMARK UNBOUND:                -1.114
REMARK  Name = 
REMARK  6 active torsions:
REMARK  status: ('A' for Active; 'I' for Inactive)
REMARK    1  A    between atoms: C_2  and  C_25
REMARK    2  A    between atoms: N_3  and  C_4
REMARK    3  A    between atoms: C_4  and  C_5
REMARK    4  A    between atoms: C_8  and  C_9
REMARK    5  A    between atoms: C_9  and  N_10
REMARK    6  A    between atoms: C_11  and  C_13
REMARK                            x       y       z     vdW  Elec       q    Type
REMARK                         _______ _______ _______ _____ _____    ______ ____
ROOT
ATOM      1  C   UNL     1      45.596   4.301  12.175  0.00  0.00    +0.000 A 
ATOM      2  C   UNL     1      46.170   3.849  13.372  0.00  0.00    +0.000 A 
ATOM      3  C   UNL     1      47.005   4.684  14.123  0.00  0.00    +0.000 A 
ATOM      4  C   UNL     1      47.265   5.995  13.703  0.00  0.00    +0.000 A 
ATOM      5  C   UNL     1      46.704   6.440  12.499  0.00  0.00    +0.000 A 
ATOM      6  C   UNL     1      45.869   5.607  11.749  0.00  0.00    +0.000 A 
ENDROOT
BRANCH   1   7
ATOM      7  C   UNL     1      44.665   3.413  11.390  0.00  0.00    +0.000 C 
BRANCH   7  10
ATOM      8  O   UNL     1      44.357   4.272   8.734  0.00  0.00    +0.000 OA
ATOM      9  C   UNL     1      45.117   3.343   8.975  0.00  0.00    +0.000 C 
ATOM     10  N   UNL     1      45.336   2.847  10.244  0.00  0.00    +0.000 N 
ATOM     11  H   UNL     1      46.124   2.236  10.415  0.00  0.00    +0.000 HD
BRANCH   9  12
ATOM     12  C   UNL     1      45.884   2.699   7.887  0.00  0.00    +0.000 A 
ATOM     13  C   UNL     1      46.219   3.366   6.705  0.00  0.00    +0.000 A 
ATOM     14  C   UNL     1      46.948   2.695   5.725  0.00  0.00    +0.000 A 
ATOM     15  C   UNL     1      47.321   1.381   5.964  0.00  0.00    +0.000 A 
ATOM     16  N   UNL     1      47.024   0.713   7.100  0.00  0.00    +0.000 NA
ATOM     17  C   UNL     1      46.322   1.391   8.044  0.00  0.00    +0.000 A 
ENDBRANCH   9  12
ENDBRANCH   7  10
ENDBRANCH   1   7
BRANCH   4  18
ATOM     18  C   UNL     1      48.168   6.900  14.504  0.00  0.00    +0.000 C 
BRANCH  18  19
ATOM     19  N   UNL     1      48.071   6.611  15.910  0.00  0.00    +0.000 N 
ATOM     20  C   UNL     1      49.144   6.156  16.633  0.00  0.00    +0.000 C 
ATOM     21  O   UNL     1      50.255   6.012  16.129  0.00  0.00    +0.000 OA
ATOM     22  H   UNL     1      47.136   6.489  16.284  0.00  0.00    +0.000 HD
BRANCH  20  23
ATOM     23  C   UNL     1      48.911   5.914  18.063  0.00  0.00    +0.000 A 
ATOM     24  C   UNL     1      49.225   4.680  18.617  0.00  0.00    +0.000 A 
ATOM     25  S   UNL     1      48.971   4.602  20.302  0.00  0.00    +0.000 S 
ATOM     26  C   UNL     1      48.379   6.197  20.343  0.00  0.00    +0.000 A 
ATOM     27  N   UNL     1      47.966   6.762  21.509  0.00  0.00    +0.000 NA
ATOM     28  C   UNL     1      47.513   7.966  21.388  0.00  0.00    +0.000 A 
ATOM     29  N   UNL     1      47.434   8.654  20.206  0.00  0.00    +0.000 N 
ATOM     30  C   UNL     1      47.856   8.132  19.008  0.00  0.00    +0.000 A 
ATOM     31  O   UNL     1      47.793   8.784  17.971  0.00  0.00    +0.000 OA
ATOM     32  C   UNL     1      48.380   6.781  19.089  0.00  0.00    +0.000 A 
ATOM     33  H   UNL     1      47.069   9.595  20.177  0.00  0.00    +0.000 HD
ENDBRANCH  20  23
ENDBRANCH  18  19
ENDBRANCH   4  18
TORSDOF 6
ENDMDL
MODEL 3
REMARK VINA RESULT:    -7.673      1.815      2.240
REMARK INTER + INTRA:         -11.478
REMARK INTER:                 -10.669
REMARK INTRA:                  -0.808
REMARK UNBOUND:                -1.114
REMARK  Name = 
REMARK  6 active torsions:
REMARK  status: ('A' for Active; 'I' for Inactive)
REMARK    1  A    between atoms: C_2  and  C_25
REMARK    2  A    between atoms: N_3  and  C_4
REMARK    3  A    between atoms: C_4  and  C_5
REMARK    4  A    between atoms: C_8  and  C_9
REMARK    5  A    between atoms: C_9  and  N_10
REMARK    6  A    between atoms: C_11  and  C_13
REMARK                            x       y       z     vdW  Elec       q    Type
REMARK                         _______ _______ _______ _____ _____    ______ ____
ROOT
ATOM      1  C   UNL     1      44.995   4.892  11.789  0.00  0.00    +0.000 A 
ATOM      2  C   UNL     1      46.042   4.988  12.717  0.00  0.00    +0.000 A 
ATOM      3  C   UNL     1      46.518   6.237  13.129  0.00  0.00    +0.000 A 
ATOM      4  C   UNL     1      45.942   7.416  12.638  0.00  0.00    +0.000 A 
ATOM      5  C   UNL     1      44.908   7.319  11.698  0.00  0.00    +0.000 A 
ATOM      6  C   UNL     1      44.431   6.071  11.287  0.00  0.00    +0.000 A 
ENDROOT
BRANCH   1   7
ATOM      7  C   UNL     1      44.458   3.545  11.377  0.00  0.00    +0.000 C 
BRANCH   7  10
ATOM      8  O   UNL     1      44.128   4.133   8.651  0.00  0.00    +0.000 OA
ATOM      9  C   UNL     1      44.999   3.341   8.988  0.00  0.00    +0.000 C 
ATOM     10  N   UNL     1      45.239   2.986  10.299  0.00  0.00    +0.000 N 
ATOM     11  H   UNL     1      46.096   2.505  10.540  0.00  0.00    +0.000 HD
BRANCH   9  12
ATOM     12  C   UNL     1      45.882   2.722   7.977  0.00  0.00    +0.000 A 
ATOM     13  C   UNL     1      46.353   3.419   6.860  0.00  0.00    +0.000 A 
ATOM     14  C   UNL     1      47.187   2.770   5.951  0.00  0.00    +0.000 A 
ATOM     15  C   UNL     1      47.525   1.448   6.195  0.00  0.00    +0.000 A 
ATOM     16  N   UNL     1      47.099   0.750   7.271  0.00  0.00    +0.000 NA
ATOM     17  C   UNL     1      46.295   1.407   8.146  0.00  0.00    +0.000 A 
ENDBRANCH   9  12
ENDBRANCH   7  10
ENDBRANCH   1   7
BRANCH   4  18
ATOM     18  C   UNL     1      46.452   8.768  13.073  0.00  0.00    +0.000 C 
BRANCH  18  19
ATOM     19  N   UNL     1      46.865   8.743  14.452  0.00  0.00    +0.000 N 
ATOM     20  C   UNL     1      48.186   8.818  14.815  0.00  0.00    +0.000 C 
ATOM     21  O   UNL     1      49.082   8.955  13.987  0.00  0.00    +0.000 OA
ATOM     22  H   UNL     1      46.187   8.393  15.121  0.00  0.00    +0.000 HD
BRANCH  20  23
ATOM     23  C   UNL     1      48.467   8.796  16.257  0.00  0.00    +0.000 A 
ATOM     24  C   UNL     1      48.431   9.977  16.987  0.00  0.00    +0.000 A 
ATOM     25  S   UNL     1      48.696   9.756  18.658  0.00  0.00    +0.000 S 
ATOM     26  C   UNL     1      48.924   8.082  18.457  0.00  0.00    +0.000 A 
ATOM     27  N   UNL     1      49.203   7.279  19.520  0.00  0.00    +0.000 NA
ATOM     28  C   UNL     1      49.381   6.036  19.218  0.00  0.00    +0.000 A 
ATOM     29  N   UNL     1      49.307   5.523  17.949  0.00  0.00    +0.000 N 
ATOM     30  C   UNL     1      49.010   6.290  16.849  0.00  0.00    +0.000 A 
ATOM     31  O   UNL     1      48.927   5.795  15.731  0.00  0.00    +0.000 OA
ATOM     32  C   UNL     1      48.795   7.697  17.134  0.00  0.00    +0.000 A 
ATOM     33  H   UNL     1      49.457   4.539  17.778  0.00  0.00    +0.000 HD
ENDBRANCH  20  23
ENDBRANCH  18  19
ENDBRANCH   4  18
TORSDOF 6
ENDMDL
MODEL 4
REMARK VINA RESULT:    -7.401      1.996      2.402
REMARK INTER + INTRA:         -11.111
REMARK INTER:                 -10.065
REMARK INTRA:                  -1.045
REMARK UNBOUND:                -1.114
REMARK  Name = 
REMARK  6 active torsions:
REMARK  status: ('A' for Active; 'I' for Inactive)
REMARK    1  A    between atoms: C_2  and  C_25
REMARK    2  A    between atoms: N_3  and  C_4
REMARK    3  A    between atoms: C_4  and  C_5
REMARK    4  A    between atoms: C_8  and  C_9
REMARK    5  A    between atoms: C_9  and  N_10
REMARK    6  A    between atoms: C_11  and  C_13
REMARK                            x       y       z     vdW  Elec       q    Type
REMARK                         _______ _______ _______ _____ _____    ______ ____
ROOT
ATOM      1  C   UNL     1      45.580   4.515  12.193  0.00  0.00    +0.000 A 
ATOM      2  C   UNL     1      46.198   4.200  13.411  0.00  0.00    +0.000 A 
ATOM      3  C   UNL     1      46.984   5.145  14.080  0.00  0.00    +0.000 A 
ATOM      4  C   UNL     1      47.150   6.433  13.554  0.00  0.00    +0.000 A 
ATOM      5  C   UNL     1      46.545   6.742  12.328  0.00  0.00    +0.000 A 
ATOM      6  C   UNL     1      45.759   5.798  11.660  0.00  0.00    +0.000 A 
ENDROOT
BRANCH   1   7
ATOM      7  C   UNL     1      44.702   3.508  11.496  0.00  0.00    +0.000 C 
BRANCH   7  10
ATOM      8  O   UNL     1      44.251   4.224   8.818  0.00  0.00    +0.000 OA
ATOM      9  C   UNL     1      45.082   3.362   9.072  0.00  0.00    +0.000 C 
ATOM     10  N   UNL     1      45.376   2.940  10.352  0.00  0.00    +0.000 N 
ATOM     11  H   UNL     1      46.210   2.394  10.522  0.00  0.00    +0.000 HD
BRANCH   9  12
ATOM     12  C   UNL     1      45.858   2.725   7.986  0.00  0.00    +0.000 A 
ATOM     13  C   UNL     1      46.211   3.402   6.816  0.00  0.00    +0.000 A 
ATOM     14  C   UNL     1      46.949   2.737   5.838  0.00  0.00    +0.000 A 
ATOM     15  C   UNL     1      47.311   1.420   6.067  0.00  0.00    +0.000 A 
ATOM     16  N   UNL     1      46.998   0.741   7.193  0.00  0.00    +0.000 NA
ATOM     17  C   UNL     1      46.288   1.413   8.135  0.00  0.00    +0.000 A 
ENDBRANCH   9  12
ENDBRANCH   7  10
ENDBRANCH   1   7
BRANCH   4  18
ATOM     18  C   UNL     1      47.999   7.457  14.265  0.00  0.00    +0.000 C 
BRANCH  18  19
ATOM     19  N   UNL     1      49.184   6.852  14.812  0.00  0.00    +0.000 N 
ATOM     20  C   UNL     1      49.963   7.495  15.741  0.00  0.00    +0.000 C 
ATOM     21  O   UNL     1      49.668   8.600  16.187  0.00  0.00    +0.000 OA
ATOM     22  H   UNL     1      49.574   6.070  14.296  0.00  0.00    +0.000 HD
BRANCH  20  23
ATOM     23  C   UNL     1      51.138   6.758  16.228  0.00  0.00    +0.000 A 
ATOM     24  C   UNL     1      52.414   7.232  15.955  0.00  0.00    +0.000 A 
ATOM     25  S   UNL     1      53.655   6.302  16.667  0.00  0.00    +0.000 S 
ATOM     26  C   UNL     1      52.533   5.201  17.318  0.00  0.00    +0.000 A 
ATOM     27  N   UNL     1      52.945   4.131  18.050  0.00  0.00    +0.000 NA
ATOM     28  C   UNL     1      51.989   3.362  18.456  0.00  0.00    +0.000 A 
ATOM     29  N   UNL     1      50.659   3.566  18.194  0.00  0.00    +0.000 N 
ATOM     30  C   UNL     1      50.196   4.641  17.476  0.00  0.00    +0.000 A 
ATOM     31  O   UNL     1      48.997   4.807  17.280  0.00  0.00    +0.000 OA
ATOM     32  C   UNL     1      51.230   5.541  17.000  0.00  0.00    +0.000 A 
ATOM     33  H   UNL     1      49.959   2.927  18.540  0.00  0.00    +0.000 HD
ENDBRANCH  20  23
ENDBRANCH  18  19
ENDBRANCH   4  18
TORSDOF 6
ENDMDL
MODEL 5
REMARK VINA RESULT:    -7.165      1.910      2.236
REMARK INTER + INTRA:         -10.792
REMARK INTER:                  -9.909
REMARK INTRA:                  -0.883
REMARK UNBOUND:                -1.114
REMARK  Name = 
REMARK  6 active torsions:
REMARK  status: ('A' for Active; 'I' for Inactive)
REMARK    1  A    between atoms: C_2  and  C_25
REMARK    2  A    between atoms: N_3  and  C_4
REMARK    3  A    between atoms: C_4  and  C_5
REMARK    4  A    between atoms: C_8  and  C_9
REMARK    5  A    between atoms: C_9  and  N_10
REMARK    6  A    between atoms: C_11  and  C_13
REMARK                            x       y       z     vdW  Elec       q    Type
REMARK                         _______ _______ _______ _____ _____    ______ ____
ROOT
ATOM      1  C   UNL     1      45.648   5.271  11.773  0.00  0.00    +0.000 A 
ATOM      2  C   UNL     1      46.021   4.789  13.036  0.00  0.00    +0.000 A 
ATOM      3  C   UNL     1      46.987   5.455  13.798  0.00  0.00    +0.000 A 
ATOM      4  C   UNL     1      47.585   6.629  13.321  0.00  0.00    +0.000 A 
ATOM      5  C   UNL     1      47.224   7.101  12.052  0.00  0.00    +0.000 A 
ATOM      6  C   UNL     1      46.258   6.436  11.291  0.00  0.00    +0.000 A 
ENDROOT
BRANCH   1   7
ATOM      7  C   UNL     1      44.579   4.573  10.973  0.00  0.00    +0.000 C 
BRANCH   7  10
ATOM      8  O   UNL     1      45.347   4.988   8.304  0.00  0.00    +0.000 OA
ATOM      9  C   UNL     1      45.500   3.880   8.802  0.00  0.00    +0.000 C 
ATOM     10  N   UNL     1      45.154   3.576  10.102  0.00  0.00    +0.000 N 
ATOM     11  H   UNL     1      45.496   2.723  10.526  0.00  0.00    +0.000 HD
BRANCH   9  12
ATOM     12  C   UNL     1      46.105   2.782   8.018  0.00  0.00    +0.000 A 
ATOM     13  C   UNL     1      46.868   3.009   6.869  0.00  0.00    +0.000 A 
ATOM     14  C   UNL     1      47.412   1.923   6.185  0.00  0.00    +0.000 A 
ATOM     15  C   UNL     1      47.177   0.649   6.677  0.00  0.00    +0.000 A 
ATOM     16  N   UNL     1      46.456   0.397   7.792  0.00  0.00    +0.000 NA
ATOM     17  C   UNL     1      45.945   1.471   8.446  0.00  0.00    +0.000 A 
ENDBRANCH   9  12
ENDBRANCH   7  10
ENDBRANCH   1   7
BRANCH   4  18
ATOM     18  C   UNL     1      48.631   7.352  14.134  0.00  0.00    +0.000 C 
BRANCH  18  19
ATOM     19  N   UNL     1      48.488   7.058  15.535  0.00  0.00    +0.000 N 
ATOM     20  C   UNL     1      48.657   8.021  16.498  0.00  0.00    +0.000 C 
ATOM     21  O   UNL     1      48.896   9.191  16.215  0.00  0.00    +0.000 OA
ATOM     22  H   UNL     1      48.534   6.080  15.800  0.00  0.00    +0.000 HD
BRANCH  20  23
ATOM     23  C   UNL     1      48.468   7.589  17.890  0.00  0.00    +0.000 A 
ATOM     24  C   UNL     1      47.842   8.434  18.798  0.00  0.00    +0.000 A 
ATOM     25  S   UNL     1      47.628   7.740  20.342  0.00  0.00    +0.000 S 
ATOM     26  C   UNL     1      48.416   6.308  19.869  0.00  0.00    +0.000 A 
ATOM     27  N   UNL     1      48.585   5.280  20.743  0.00  0.00    +0.000 NA
ATOM     28  C   UNL     1      49.225   4.267  20.260  0.00  0.00    +0.000 A 
ATOM     29  N   UNL     1      49.713   4.192  18.981  0.00  0.00    +0.000 N 
ATOM     30  C   UNL     1      49.550   5.196  18.058  0.00  0.00    +0.000 A 
ATOM     31  O   UNL     1      49.978   5.087  16.915  0.00  0.00    +0.000 OA
ATOM     32  C   UNL     1      48.831   6.357  18.550  0.00  0.00    +0.000 A 
ATOM     33  H   UNL     1      50.207   3.371  18.662  0.00  0.00    +0.000 HD
ENDBRANCH  20  23
ENDBRANCH  18  19
ENDBRANCH   4  18
TORSDOF 6
ENDMDL
MODEL 6
REMARK VINA RESULT:    -7.034      3.284      8.696
REMARK INTER + INTRA:         -10.615
REMARK INTER:                  -9.598
REMARK INTRA:                  -1.017
REMARK UNBOUND:                -1.114
REMARK  Name = 
REMARK  6 active torsions:
REMARK  status: ('A' for Active; 'I' for Inactive)
REMARK    1  A    between atoms: C_2  and  C_25
REMARK    2  A    between atoms: N_3  and  C_4
REMARK    3  A    between atoms: C_4  and  C_5
REMARK    4  A    between atoms: C_8  and  C_9
REMARK    5  A    between atoms: C_9  and  N_10
REMARK    6  A    between atoms: C_11  and  C_13
REMARK                            x       y       z     vdW  Elec       q    Type
REMARK                         _______ _______ _______ _____ _____    ______ ____
ROOT
ATOM      1  C   UNL     1      50.262   7.305  15.348  0.00  0.00    +0.000 A 
ATOM      2  C   UNL     1      50.733   7.810  14.127  0.00  0.00    +0.000 A 
ATOM      3  C   UNL     1      49.872   7.953  13.034  0.00  0.00    +0.000 A 
ATOM      4  C   UNL     1      48.516   7.615  13.146  0.00  0.00    +0.000 A 
ATOM      5  C   UNL     1      48.051   7.096  14.361  0.00  0.00    +0.000 A 
ATOM      6  C   UNL     1      48.911   6.954  15.455  0.00  0.00    +0.000 A 
ENDROOT
BRANCH   1   7
ATOM      7  C   UNL     1      51.184   7.190  16.535  0.00  0.00    +0.000 C 
BRANCH   7  10
ATOM      8  O   UNL     1      50.072   5.334  18.325  0.00  0.00    +0.000 OA
ATOM      9  C   UNL     1      51.013   4.992  17.621  0.00  0.00    +0.000 C 
ATOM     10  N   UNL     1      51.628   5.827  16.712  0.00  0.00    +0.000 N 
ATOM     11  H   UNL     1      52.246   5.440  16.011  0.00  0.00    +0.000 HD
BRANCH   9  12
ATOM     12  C   UNL     1      51.540   3.611  17.692  0.00  0.00    +0.000 A 
ATOM     13  C   UNL     1      52.817   3.316  18.178  0.00  0.00    +0.000 A 
ATOM     14  C   UNL     1      53.242   1.990  18.219  0.00  0.00    +0.000 A 
ATOM     15  C   UNL     1      52.374   1.004  17.776  0.00  0.00    +0.000 A 
ATOM     16  N   UNL     1      51.129   1.255  17.313  0.00  0.00    +0.000 NA
ATOM     17  C   UNL     1      50.734   2.554  17.292  0.00  0.00    +0.000 A 
ENDBRANCH   9  12
ENDBRANCH   7  10
ENDBRANCH   1   7
BRANCH   4  18
ATOM     18  C   UNL     1      47.581   7.762  11.972  0.00  0.00    +0.000 C 
BRANCH  18  19
ATOM     19  N   UNL     1      46.890   6.528  11.707  0.00  0.00    +0.000 N 
ATOM     20  C   UNL     1      45.529   6.415  11.844  0.00  0.00    +0.000 C 
ATOM     21  O   UNL     1      44.824   7.370  12.158  0.00  0.00    +0.000 OA
ATOM     22  H   UNL     1      47.456   5.686  11.687  0.00  0.00    +0.000 HD
BRANCH  20  23
ATOM     23  C   UNL     1      44.950   5.102  11.528  0.00  0.00    +0.000 A 
ATOM     24  C   UNL     1      44.246   4.404  12.500  0.00  0.00    +0.000 A 
ATOM     25  S   UNL     1      43.570   2.942  11.937  0.00  0.00    +0.000 S 
ATOM     26  C   UNL     1      44.243   3.162  10.389  0.00  0.00    +0.000 A 
ATOM     27  N   UNL     1      44.050   2.245   9.404  0.00  0.00    +0.000 NA
ATOM     28  C   UNL     1      44.642   2.525   8.290  0.00  0.00    +0.000 A 
ATOM     29  N   UNL     1      45.410   3.639   8.073  0.00  0.00    +0.000 N 
ATOM     30  C   UNL     1      45.616   4.602   9.032  0.00  0.00    +0.000 A 
ATOM     31  O   UNL     1      46.289   5.599   8.797  0.00  0.00    +0.000 OA
ATOM     32  C   UNL     1      44.968   4.338  10.303  0.00  0.00    +0.000 A 
ATOM     33  H   UNL     1      45.847   3.802   7.178  0.00  0.00    +0.000 HD
ENDBRANCH  20  23
ENDBRANCH  18  19
ENDBRANCH   4  18
TORSDOF 6
ENDMDL
MODEL 7
REMARK VINA RESULT:    -6.962      4.005      6.895
REMARK INTER + INTRA:         -10.518
REMARK INTER:                  -9.497
REMARK INTRA:                  -1.021
REMARK UNBOUND:                -1.114
REMARK  Name = 
REMARK  6 active torsions:
REMARK  status: ('A' for Active; 'I' for Inactive)
REMARK    1  A    between atoms: C_2  and  C_25
REMARK    2  A    between atoms: N_3  and  C_4
REMARK    3  A    between atoms: C_4  and  C_5
REMARK    4  A    between atoms: C_8  and  C_9
REMARK    5  A    between atoms: C_9  and  N_10
REMARK    6  A    between atoms: C_11  and  C_13
REMARK                            x       y       z     vdW  Elec       q    Type
REMARK                         _______ _______ _______ _____ _____    ______ ____
ROOT
ATOM      1  C   UNL     1      44.916   9.225  11.856  0.00  0.00    +0.000 A 
ATOM      2  C   UNL     1      44.368   8.085  11.252  0.00  0.00    +0.000 A 
ATOM      3  C   UNL     1      44.771   6.804  11.647  0.00  0.00    +0.000 A 
ATOM      4  C   UNL     1      45.714   6.638  12.669  0.00  0.00    +0.000 A 
ATOM      5  C   UNL     1      46.273   7.777  13.261  0.00  0.00    +0.000 A 
ATOM      6  C   UNL     1      45.871   9.058  12.868  0.00  0.00    +0.000 A 
ENDROOT
BRANCH   1   7
ATOM      7  C   UNL     1      44.452  10.602  11.457  0.00  0.00    +0.000 C 
BRANCH   7  10
ATOM      8  O   UNL     1      42.057  10.467   9.997  0.00  0.00    +0.000 OA
ATOM      9  C   UNL     1      42.017  10.780  11.180  0.00  0.00    +0.000 C 
ATOM     10  N   UNL     1      43.135  10.875  11.981  0.00  0.00    +0.000 N 
ATOM     11  H   UNL     1      43.030  10.921  12.986  0.00  0.00    +0.000 HD
BRANCH   9  12
ATOM     12  C   UNL     1      40.721  11.056  11.838  0.00  0.00    +0.000 A 
ATOM     13  C   UNL     1      40.608  11.880  12.961  0.00  0.00    +0.000 A 
ATOM     14  C   UNL     1      39.352  12.098  13.524  0.00  0.00    +0.000 A 
ATOM     15  C   UNL     1      38.252  11.487  12.941  0.00  0.00    +0.000 A 
ATOM     16  N   UNL     1      38.326  10.696  11.848  0.00  0.00    +0.000 NA
ATOM     17  C   UNL     1      39.560  10.507  11.312  0.00  0.00    +0.000 A 
ENDBRANCH   9  12
ENDBRANCH   7  10
ENDBRANCH   1   7
BRANCH   4  18
ATOM     18  C   UNL     1      46.157   5.261  13.098  0.00  0.00    +0.000 C 
BRANCH  18  19
ATOM     19  N   UNL     1      46.748   5.295  14.409  0.00  0.00    +0.000 N 
ATOM     20  C   UNL     1      47.289   4.176  14.990  0.00  0.00    +0.000 C 
ATOM     21  O   UNL     1      47.337   3.097  14.406  0.00  0.00    +0.000 OA
ATOM     22  H   UNL     1      46.508   6.089  14.994  0.00  0.00    +0.000 HD
BRANCH  20  23
ATOM     23  C   UNL     1      47.873   4.354  16.327  0.00  0.00    +0.000 A 
ATOM     24  C   UNL     1      47.499   3.509  17.364  0.00  0.00    +0.000 A 
ATOM     25  S   UNL     1      48.338   3.803  18.821  0.00  0.00    +0.000 S 
ATOM     26  C   UNL     1      49.188   5.107  18.134  0.00  0.00    +0.000 A 
ATOM     27  N   UNL     1      50.086   5.821  18.865  0.00  0.00    +0.000 NA
ATOM     28  C   UNL     1      50.635   6.801  18.226  0.00  0.00    +0.000 A 
ATOM     29  N   UNL     1      50.367   7.131  16.923  0.00  0.00    +0.000 N 
ATOM     30  C   UNL     1      49.483   6.427  16.141  0.00  0.00    +0.000 A 
ATOM     31  O   UNL     1      49.284   6.735  14.971  0.00  0.00    +0.000 OA
ATOM     32  C   UNL     1      48.841   5.311  16.810  0.00  0.00    +0.000 A 
ATOM     33  H   UNL     1      50.830   7.910  16.479  0.00  0.00    +0.000 HD
ENDBRANCH  20  23
ENDBRANCH  18  19
ENDBRANCH   4  18
TORSDOF 6
ENDMDL
MODEL 8
REMARK VINA RESULT:    -6.876      3.588      8.418
REMARK INTER + INTRA:         -10.401
REMARK INTER:                  -9.503
REMARK INTRA:                  -0.898
REMARK UNBOUND:                -1.114
REMARK  Name = 
REMARK  6 active torsions:
REMARK  status: ('A' for Active; 'I' for Inactive)
REMARK    1  A    between atoms: C_2  and  C_25
REMARK    2  A    between atoms: N_3  and  C_4
REMARK    3  A    between atoms: C_4  and  C_5
REMARK    4  A    between atoms: C_8  and  C_9
REMARK    5  A    between atoms: C_9  and  N_10
REMARK    6  A    between atoms: C_11  and  C_13
REMARK                            x       y       z     vdW  Elec       q    Type
REMARK                         _______ _______ _______ _____ _____    ______ ____
ROOT
ATOM      1  C   UNL     1      49.898   6.903  15.966  0.00  0.00    +0.000 A 
ATOM      2  C   UNL     1      50.728   7.628  15.099  0.00  0.00    +0.000 A 
ATOM      3  C   UNL     1      50.302   7.952  13.806  0.00  0.00    +0.000 A 
ATOM      4  C   UNL     1      49.027   7.577  13.362  0.00  0.00    +0.000 A 
ATOM      5  C   UNL     1      48.204   6.839  14.223  0.00  0.00    +0.000 A 
ATOM      6  C   UNL     1      48.630   6.515  15.515  0.00  0.00    +0.000 A 
ENDROOT
BRANCH   1   7
ATOM      7  C   UNL     1      50.345   6.590  17.370  0.00  0.00    +0.000 C 
BRANCH   7  10
ATOM      8  O   UNL     1      49.499   4.085  18.318  0.00  0.00    +0.000 OA
ATOM      9  C   UNL     1      50.639   4.205  17.887  0.00  0.00    +0.000 C 
ATOM     10  N   UNL     1      51.148   5.391  17.401  0.00  0.00    +0.000 N 
ATOM     11  H   UNL     1      52.006   5.386  16.864  0.00  0.00    +0.000 HD
BRANCH   9  12
ATOM     12  C   UNL     1      51.549   3.041  17.841  0.00  0.00    +0.000 A 
ATOM     13  C   UNL     1      52.862   3.091  18.316  0.00  0.00    +0.000 A 
ATOM     14  C   UNL     1      53.660   1.951  18.244  0.00  0.00    +0.000 A 
ATOM     15  C   UNL     1      53.114   0.798  17.702  0.00  0.00    +0.000 A 
ATOM     16  N   UNL     1      51.845   0.712  17.245  0.00  0.00    +0.000 NA
ATOM     17  C   UNL     1      51.085   1.833  17.336  0.00  0.00    +0.000 A 
ENDBRANCH   9  12
ENDBRANCH   7  10
ENDBRANCH   1   7
BRANCH   4  18
ATOM     18  C   UNL     1      48.561   7.919  11.968  0.00  0.00    +0.000 C 
BRANCH  18  19
ATOM     19  N   UNL     1      47.770   6.852  11.414  0.00  0.00    +0.000 N 
ATOM     20  C   UNL     1      46.401   6.922  11.349  0.00  0.00    +0.000 C 
ATOM     21  O   UNL     1      45.781   7.916  11.719  0.00  0.00    +0.000 OA
ATOM     22  H   UNL     1      48.222   5.947  11.332  0.00  0.00    +0.000 HD
BRANCH  20  23
ATOM     23  C   UNL     1      45.718   5.769  10.747  0.00  0.00    +0.000 A 
ATOM     24  C   UNL     1      45.830   5.533   9.383  0.00  0.00    +0.000 A 
ATOM     25  S   UNL     1      45.047   4.107   8.869  0.00  0.00    +0.000 S 
ATOM     26  C   UNL     1      44.480   3.786  10.441  0.00  0.00    +0.000 A 
ATOM     27  N   UNL     1      43.716   2.691  10.701  0.00  0.00    +0.000 NA
ATOM     28  C   UNL     1      43.331   2.587  11.930  0.00  0.00    +0.000 A 
ATOM     29  N   UNL     1      43.641   3.480  12.922  0.00  0.00    +0.000 N 
ATOM     30  C   UNL     1      44.424   4.589  12.711  0.00  0.00    +0.000 A 
ATOM     31  O   UNL     1      44.702   5.355  13.627  0.00  0.00    +0.000 OA
ATOM     32  C   UNL     1      44.888   4.750  11.346  0.00  0.00    +0.000 A 
ATOM     33  H   UNL     1      43.309   3.343  13.865  0.00  0.00    +0.000 HD
ENDBRANCH  20  23
ENDBRANCH  18  19
ENDBRANCH   4  18
TORSDOF 6
ENDMDL
MODEL 9
REMARK VINA RESULT:    -6.840      4.740      7.402
REMARK INTER + INTRA:         -10.353
REMARK INTER:                  -9.410
REMARK INTRA:                  -0.943
REMARK UNBOUND:                -1.114
REMARK  Name = 
REMARK  6 active torsions:
REMARK  status: ('A' for Active; 'I' for Inactive)
REMARK    1  A    between atoms: C_2  and  C_25
REMARK    2  A    between atoms: N_3  and  C_4
REMARK    3  A    between atoms: C_4  and  C_5
REMARK    4  A    between atoms: C_8  and  C_9
REMARK    5  A    between atoms: C_9  and  N_10
REMARK    6  A    between atoms: C_11  and  C_13
REMARK                            x       y       z     vdW  Elec       q    Type
REMARK                         _______ _______ _______ _____ _____    ______ ____
ROOT
ATOM      1  C   UNL     1      50.561   8.496  12.162  0.00  0.00    +0.000 A 
ATOM      2  C   UNL     1      50.077   8.996  13.378  0.00  0.00    +0.000 A 
ATOM      3  C   UNL     1      48.727   8.857  13.722  0.00  0.00    +0.000 A 
ATOM      4  C   UNL     1      47.840   8.194  12.864  0.00  0.00    +0.000 A 
ATOM      5  C   UNL     1      48.321   7.708  11.642  0.00  0.00    +0.000 A 
ATOM      6  C   UNL     1      49.669   7.847  11.298  0.00  0.00    +0.000 A 
ENDROOT
BRANCH   1   7
ATOM      7  C   UNL     1      52.023   8.613  11.813  0.00  0.00    +0.000 C 
BRANCH   7  10
ATOM      8  O   UNL     1      52.764   9.066   9.143  0.00  0.00    +0.000 OA
ATOM      9  C   UNL     1      52.759   7.920   9.573  0.00  0.00    +0.000 C 
ATOM     10  N   UNL     1      52.410   7.594  10.867  0.00  0.00    +0.000 N 
ATOM     11  H   UNL     1      52.629   6.675  11.229  0.00  0.00    +0.000 HD
BRANCH   9  12
ATOM     12  C   UNL     1      53.164   6.792   8.706  0.00  0.00    +0.000 A 
ATOM     13  C   UNL     1      54.185   5.904   9.054  0.00  0.00    +0.000 A 
ATOM     14  C   UNL     1      54.508   4.861   8.188  0.00  0.00    +0.000 A 
ATOM     15  C   UNL     1      53.794   4.740   7.006  0.00  0.00    +0.000 A 
ATOM     16  N   UNL     1      52.793   5.574   6.646  0.00  0.00    +0.000 NA
ATOM     17  C   UNL     1      52.491   6.576   7.511  0.00  0.00    +0.000 A 
ENDBRANCH   9  12
ENDBRANCH   7  10
ENDBRANCH   1   7
BRANCH   4  18
ATOM     18  C   UNL     1      46.382   8.043  13.224  0.00  0.00    +0.000 C 
BRANCH  18  19
ATOM     19  N   UNL     1      45.891   6.744  12.846  0.00  0.00    +0.000 N 
ATOM     20  C   UNL     1      44.908   6.587  11.901  0.00  0.00    +0.000 C 
ATOM     21  O   UNL     1      44.428   7.542  11.296  0.00  0.00    +0.000 OA
ATOM     22  H   UNL     1      46.087   5.982  13.486  0.00  0.00    +0.000 HD
BRANCH  20  23
ATOM     23  C   UNL     1      44.510   5.206  11.600  0.00  0.00    +0.000 A 
ATOM     24  C   UNL     1      43.783   4.476  12.532  0.00  0.00    +0.000 A 
ATOM     25  S   UNL     1      43.331   2.925  11.985  0.00  0.00    +0.000 S 
ATOM     26  C   UNL     1      44.140   3.151  10.505  0.00  0.00    +0.000 A 
ATOM     27  N   UNL     1      44.154   2.175   9.558  0.00  0.00    +0.000 NA
ATOM     28  C   UNL     1      44.830   2.469   8.497  0.00  0.00    +0.000 A 
ATOM     29  N   UNL     1      45.494   3.652   8.299  0.00  0.00    +0.000 N 
ATOM     30  C   UNL     1      45.492   4.673   9.218  0.00  0.00    +0.000 A 
ATOM     31  O   UNL     1      46.076   5.728   8.999  0.00  0.00    +0.000 OA
ATOM     32  C   UNL     1      44.741   4.394  10.428  0.00  0.00    +0.000 A 
ATOM     33  H   UNL     1      46.006   3.823   7.446  0.00  0.00    +0.000 HD
ENDBRANCH  20  23
ENDBRANCH  18  19
ENDBRANCH   4  18
TORSDOF 6
ENDMDL
