MODEL 1
REMARK VINA RESULT:    -7.427      0.000      0.000
REMARK INTER + INTRA:         -10.016
REMARK INTER:                  -9.598
REMARK INTRA:                  -0.418
REMARK UNBOUND:                -0.418
REMARK  Name = 
REMARK  5 active torsions:
REMARK  status: ('A' for Active; 'I' for Inactive)
REMARK    1  A    between atoms: C_2  and  C_4
REMARK    2  A    between atoms: C_8  and  O_9
REMARK    3  A    between atoms: O_9  and  C_10
REMARK    4  A    between atoms: C_10  and  C_11
REMARK    5  A    between atoms: C_16  and  N_17
REMARK                            x       y       z     vdW  Elec       q    Type
REMARK                         _______ _______ _______ _____ _____    ______ ____
ROOT
ATOM      1  C   UNL     1      44.209   3.164  11.637  0.00  0.00    +0.000 C 
ENDROOT
BRANCH   1   2
ATOM      2  C   UNL     1      44.537   4.637  11.691  0.00  0.00    +0.000 A 
ATOM      3  C   UNL     1      43.519   5.592  11.597  0.00  0.00    +0.000 A 
ATOM      4  C   UNL     1      43.815   6.940  11.778  0.00  0.00    +0.000 A 
ATOM      5  C   UNL     1      45.121   7.331  12.073  0.00  0.00    +0.000 A 
ATOM      6  F   UNL     1      45.351   8.642  12.256  0.00  0.00    +0.000 F 
ATOM      7  C   UNL     1      46.178   6.408  12.166  0.00  0.00    +0.000 A 
ATOM      8  C   UNL     1      45.860   5.061  11.922  0.00  0.00    +0.000 A 
BRANCH   7   9
ATOM      9  N   UNL     1      47.457   6.750  12.562  0.00  0.00    +0.000 N 
ATOM     10  C   UNL     1      47.851   6.730  13.978  0.00  0.00    +0.000 C 
ATOM     11  C   UNL     1      48.222   8.138  14.452  0.00  0.00    +0.000 C 
ATOM     12  O   UNL     1      49.238   8.714  13.613  0.00  0.00    +0.000 OA
ATOM     13  C   UNL     1      48.761   8.821  12.260  0.00  0.00    +0.000 C 
ATOM     14  C   UNL     1      48.386   7.449  11.667  0.00  0.00    +0.000 C 
ENDBRANCH   7   9
ENDBRANCH   1   2
BRANCH   1  15
ATOM     15  O   UNL     1      43.783   2.799  10.328  0.00  0.00    +0.000 OA
BRANCH  15  20
ATOM     16  C   UNL     1      46.340   2.064   7.852  0.00  0.00    +0.000 A 
ATOM     17  C   UNL     1      46.560   3.310   7.255  0.00  0.00    +0.000 A 
ATOM     18  C   UNL     1      45.831   4.420   7.678  0.00  0.00    +0.000 A 
ATOM     19  C   UNL     1      44.889   4.292   8.703  0.00  0.00    +0.000 A 
ATOM     20  C   UNL     1      44.674   3.053   9.315  0.00  0.00    +0.000 A 
ATOM     21  C   UNL     1      45.410   1.943   8.892  0.00  0.00    +0.000 A 
BRANCH  16  23
ATOM     22  N   UNL     1      46.673  -0.344   7.706  0.00  0.00    +0.000 N 
ATOM     23  C   UNL     1      47.122   0.901   7.362  0.00  0.00    +0.000 C 
ATOM     24  O   UNL     1      48.102   1.041   6.640  0.00  0.00    +0.000 OA
ATOM     25  H   UNL     1      47.148  -1.127   7.276  0.00  0.00    +0.000 HD
ATOM     26  H   UNL     1      45.752  -0.503   8.087  0.00  0.00    +0.000 HD
ENDBRANCH  16  23
ENDBRANCH  15  20
ENDBRANCH   1  15
TORSDOF 5
ENDMDL
MODEL 2
REMARK VINA RESULT:    -7.280      3.757      7.683
REMARK INTER + INTRA:          -9.826
REMARK INTER:                  -8.897
REMARK INTRA:                  -0.930
REMARK UNBOUND:                -0.418
REMARK  Name = 
REMARK  5 active torsions:
REMARK  status: ('A' for Active; 'I' for Inactive)
REMARK    1  A    between atoms: C_2  and  C_4
REMARK    2  A    between atoms: C_8  and  O_9
REMARK    3  A    between atoms: O_9  and  C_10
REMARK    4  A    between atoms: C_10  and  C_11
REMARK    5  A    between atoms: C_16  and  N_17
REMARK                            x       y       z     vdW  Elec       q    Type
REMARK                         _______ _______ _______ _____ _____    ______ ____
ROOT
ATOM      1  C   UNL     1      49.049   6.594  15.020  0.00  0.00    +0.000 C 
ENDROOT
BRANCH   1   2
ATOM      2  C   UNL     1      48.111   6.605  13.837  0.00  0.00    +0.000 A 
ATOM      3  C   UNL     1      48.446   7.309  12.675  0.00  0.00    +0.000 A 
ATOM      4  C   UNL     1      47.639   7.206  11.546  0.00  0.00    +0.000 A 
ATOM      5  C   UNL     1      46.511   6.386  11.570  0.00  0.00    +0.000 A 
ATOM      6  F   UNL     1      45.775   6.307  10.449  0.00  0.00    +0.000 F 
ATOM      7  C   UNL     1      46.129   5.669  12.719  0.00  0.00    +0.000 A 
ATOM      8  C   UNL     1      46.930   5.837  13.861  0.00  0.00    +0.000 A 
BRANCH   7   9
ATOM      9  N   UNL     1      45.083   4.767  12.741  0.00  0.00    +0.000 N 
ATOM     10  C   UNL     1      45.238   3.401  12.222  0.00  0.00    +0.000 C 
ATOM     11  C   UNL     1      44.314   3.174  11.022  0.00  0.00    +0.000 C 
ATOM     12  O   UNL     1      42.948   3.476  11.357  0.00  0.00    +0.000 OA
ATOM     13  C   UNL     1      42.828   4.856  11.746  0.00  0.00    +0.000 C 
ATOM     14  C   UNL     1      43.697   5.191  12.974  0.00  0.00    +0.000 C 
ENDBRANCH   7   9
ENDBRANCH   1   2
BRANCH   1  15
ATOM     15  O   UNL     1      48.318   6.752  16.233  0.00  0.00    +0.000 OA
BRANCH  15  20
ATOM     16  C   UNL     1      49.309   3.506  17.534  0.00  0.00    +0.000 A 
ATOM     17  C   UNL     1      48.931   3.584  18.879  0.00  0.00    +0.000 A 
ATOM     18  C   UNL     1      48.343   4.749  19.368  0.00  0.00    +0.000 A 
ATOM     19  C   UNL     1      48.122   5.835  18.516  0.00  0.00    +0.000 A 
ATOM     20  C   UNL     1      48.484   5.760  17.167  0.00  0.00    +0.000 A 
ATOM     21  C   UNL     1      49.069   4.589  16.679  0.00  0.00    +0.000 A 
BRANCH  16  23
ATOM     22  N   UNL     1      50.962   1.740  17.815  0.00  0.00    +0.000 N 
ATOM     23  C   UNL     1      49.950   2.256  17.054  0.00  0.00    +0.000 C 
ATOM     24  O   UNL     1      49.561   1.679  16.047  0.00  0.00    +0.000 OA
ATOM     25  H   UNL     1      51.314   0.833  17.538  0.00  0.00    +0.000 HD
ATOM     26  H   UNL     1      51.143   2.048  18.759  0.00  0.00    +0.000 HD
ENDBRANCH  16  23
ENDBRANCH  15  20
ENDBRANCH   1  15
TORSDOF 5
ENDMDL
MODEL 3
REMARK VINA RESULT:    -7.244      3.153      7.616
REMARK INTER + INTRA:          -9.779
REMARK INTER:                  -8.816
REMARK INTRA:                  -0.964
REMARK UNBOUND:                -0.418
REMARK  Name = 
REMARK  5 active torsions:
REMARK  status: ('A' for Active; 'I' for Inactive)
REMARK    1  A    between atoms: C_2  and  C_4
REMARK    2  A    between atoms: C_8  and  O_9
REMARK    3  A    between atoms: O_9  and  C_10
REMARK    4  A    between atoms: C_10  and  C_11
REMARK    5  A    between atoms: C_16  and  N_17
REMARK                            x       y       z     vdW  Elec       q    Type
REMARK                         _______ _______ _______ _____ _____    ______ ____
ROOT
ATOM      1  C   UNL     1      48.888   7.693  13.772  0.00  0.00    +0.000 C 
ENDROOT
BRANCH   1   2
ATOM      2  C   UNL     1      47.476   7.509  13.270  0.00  0.00    +0.000 A 
ATOM      3  C   UNL     1      46.615   8.606  13.161  0.00  0.00    +0.000 A 
ATOM      4  C   UNL     1      45.362   8.449  12.576  0.00  0.00    +0.000 A 
ATOM      5  C   UNL     1      44.978   7.202  12.084  0.00  0.00    +0.000 A 
ATOM      6  F   UNL     1      43.765   7.106  11.512  0.00  0.00    +0.000 F 
ATOM      7  C   UNL     1      45.804   6.068  12.182  0.00  0.00    +0.000 A 
ATOM      8  C   UNL     1      47.040   6.244  12.828  0.00  0.00    +0.000 A 
BRANCH   7   9
ATOM      9  N   UNL     1      45.498   4.848  11.609  0.00  0.00    +0.000 N 
ATOM     10  C   UNL     1      45.312   4.710  10.158  0.00  0.00    +0.000 C 
ATOM     11  C   UNL     1      43.877   4.282   9.838  0.00  0.00    +0.000 C 
ATOM     12  O   UNL     1      43.526   3.081  10.548  0.00  0.00    +0.000 OA
ATOM     13  C   UNL     1      43.609   3.304  11.967  0.00  0.00    +0.000 C 
ATOM     14  C   UNL     1      45.029   3.710  12.409  0.00  0.00    +0.000 C 
ENDBRANCH   7   9
ENDBRANCH   1   2
BRANCH   1  15
ATOM     15  O   UNL     1      49.314   6.537  14.487  0.00  0.00    +0.000 OA
BRANCH  15  20
ATOM     16  C   UNL     1      48.030   4.976  17.509  0.00  0.00    +0.000 A 
ATOM     17  C   UNL     1      48.023   6.035  18.423  0.00  0.00    +0.000 A 
ATOM     18  C   UNL     1      48.467   7.295  18.030  0.00  0.00    +0.000 A 
ATOM     19  C   UNL     1      48.911   7.506  16.721  0.00  0.00    +0.000 A 
ATOM     20  C   UNL     1      48.908   6.457  15.796  0.00  0.00    +0.000 A 
ATOM     21  C   UNL     1      48.457   5.196  16.193  0.00  0.00    +0.000 A 
BRANCH  16  23
ATOM     22  N   UNL     1      48.191   3.108  19.063  0.00  0.00    +0.000 N 
ATOM     23  C   UNL     1      47.567   3.643  17.970  0.00  0.00    +0.000 C 
ATOM     24  O   UNL     1      46.634   3.063  17.429  0.00  0.00    +0.000 OA
ATOM     25  H   UNL     1      47.794   2.255  19.433  0.00  0.00    +0.000 HD
ATOM     26  H   UNL     1      48.786   3.653  19.669  0.00  0.00    +0.000 HD
ENDBRANCH  16  23
ENDBRANCH  15  20
ENDBRANCH   1  15
TORSDOF 5
ENDMDL
MODEL 4
REMARK VINA RESULT:    -7.238      1.766      2.326
REMARK INTER + INTRA:          -9.772
REMARK INTER:                  -9.005
REMARK INTRA:                  -0.767
REMARK UNBOUND:                -0.418
REMARK  Name = 
REMARK  5 active torsions:
REMARK  status: ('A' for Active; 'I' for Inactive)
REMARK    1  A    between atoms: C_2  and  C_4
REMARK    2  A    between atoms: C_8  and  O_9
REMARK    3  A    between atoms: O_9  and  C_10
REMARK    4  A    between atoms: C_10  and  C_11
REMARK    5  A    between atoms: C_16  and  N_17
REMARK                            x       y       z     vdW  Elec       q    Type
REMARK                         _______ _______ _______ _____ _____    ______ ____
ROOT
ATOM      1  C   UNL     1      44.888   5.525  10.932  0.00  0.00    +0.000 C 
ENDROOT
BRANCH   1   2
ATOM      2  C   UNL     1      45.657   6.734  11.409  0.00  0.00    +0.000 A 
ATOM      3  C   UNL     1      44.989   7.929  11.695  0.00  0.00    +0.000 A 
ATOM      4  C   UNL     1      45.686   8.996  12.256  0.00  0.00    +0.000 A 
ATOM      5  C   UNL     1      47.042   8.861  12.549  0.00  0.00    +0.000 A 
ATOM      6  F   UNL     1      47.666   9.912  13.107  0.00  0.00    +0.000 F 
ATOM      7  C   UNL     1      47.758   7.682  12.268  0.00  0.00    +0.000 A 
ATOM      8  C   UNL     1      47.042   6.644  11.650  0.00  0.00    +0.000 A 
BRANCH   7   9
ATOM      9  N   UNL     1      49.072   7.480  12.646  0.00  0.00    +0.000 N 
ATOM     10  C   UNL     1      49.434   7.212  14.044  0.00  0.00    +0.000 C 
ATOM     11  C   UNL     1      50.321   8.334  14.594  0.00  0.00    +0.000 C 
ATOM     12  O   UNL     1      51.477   8.533  13.761  0.00  0.00    +0.000 OA
ATOM     13  C   UNL     1      51.071   8.908  12.433  0.00  0.00    +0.000 C 
ATOM     14  C   UNL     1      50.195   7.829  11.767  0.00  0.00    +0.000 C 
ENDBRANCH   7   9
ENDBRANCH   1   2
BRANCH   1  15
ATOM     15  O   UNL     1      45.069   5.343   9.531  0.00  0.00    +0.000 OA
BRANCH  15  20
ATOM     16  C   UNL     1      46.460   2.625   7.560  0.00  0.00    +0.000 A 
ATOM     17  C   UNL     1      45.806   1.502   8.078  0.00  0.00    +0.000 A 
ATOM     18  C   UNL     1      44.890   1.650   9.117  0.00  0.00    +0.000 A 
ATOM     19  C   UNL     1      44.616   2.919   9.635  0.00  0.00    +0.000 A 
ATOM     20  C   UNL     1      45.253   4.049   9.113  0.00  0.00    +0.000 A 
ATOM     21  C   UNL     1      46.168   3.897   8.068  0.00  0.00    +0.000 A 
BRANCH  16  23
ATOM     22  N   UNL     1      47.284   3.178   5.336  0.00  0.00    +0.000 N 
ATOM     23  C   UNL     1      47.443   2.425   6.466  0.00  0.00    +0.000 C 
ATOM     24  O   UNL     1      48.389   1.655   6.582  0.00  0.00    +0.000 OA
ATOM     25  H   UNL     1      48.020   3.113   4.646  0.00  0.00    +0.000 HD
ATOM     26  H   UNL     1      46.673   3.981   5.300  0.00  0.00    +0.000 HD
ENDBRANCH  16  23
ENDBRANCH  15  20
ENDBRANCH   1  15
TORSDOF 5
ENDMDL
MODEL 5
REMARK VINA RESULT:    -7.103      2.941      3.576
REMARK INTER + INTRA:          -9.596
REMARK INTER:                  -8.713
REMARK INTRA:                  -0.883
REMARK UNBOUND:                -0.418
REMARK  Name = 
REMARK  5 active torsions:
REMARK  status: ('A' for Active; 'I' for Inactive)
REMARK    1  A    between atoms: C_2  and  C_4
REMARK    2  A    between atoms: C_8  and  O_9
REMARK    3  A    between atoms: O_9  and  C_10
REMARK    4  A    between atoms: C_10  and  C_11
REMARK    5  A    between atoms: C_16  and  N_17
REMARK                            x       y       z     vdW  Elec       q    Type
REMARK                         _______ _______ _______ _____ _____    ______ ____
ROOT
ATOM      1  C   UNL     1      44.308   4.283  12.179  0.00  0.00    +0.000 C 
ENDROOT
BRANCH   1   2
ATOM      2  C   UNL     1      45.561   4.733  12.891  0.00  0.00    +0.000 A 
ATOM      3  C   UNL     1      46.253   5.869  12.456  0.00  0.00    +0.000 A 
ATOM      4  C   UNL     1      47.330   6.349  13.195  0.00  0.00    +0.000 A 
ATOM      5  C   UNL     1      47.703   5.708  14.376  0.00  0.00    +0.000 A 
ATOM      6  F   UNL     1      48.738   6.222  15.062  0.00  0.00    +0.000 F 
ATOM      7  C   UNL     1      47.045   4.557  14.846  0.00  0.00    +0.000 A 
ATOM      8  C   UNL     1      45.998   4.062  14.050  0.00  0.00    +0.000 A 
BRANCH   7   9
ATOM      9  N   UNL     1      47.319   3.965  16.064  0.00  0.00    +0.000 N 
ATOM     10  C   UNL     1      47.062   4.665  17.330  0.00  0.00    +0.000 C 
ATOM     11  C   UNL     1      48.371   4.901  18.090  0.00  0.00    +0.000 C 
ATOM     12  O   UNL     1      49.084   3.667  18.286  0.00  0.00    +0.000 OA
ATOM     13  C   UNL     1      49.416   3.081  17.015  0.00  0.00    +0.000 C 
ATOM     14  C   UNL     1      48.162   2.769  16.174  0.00  0.00    +0.000 C 
ENDBRANCH   7   9
ENDBRANCH   1   2
BRANCH   1  15
ATOM     15  O   UNL     1      44.543   3.061  11.486  0.00  0.00    +0.000 OA
BRANCH  15  20
ATOM     16  C   UNL     1      45.993   2.166   8.276  0.00  0.00    +0.000 A 
ATOM     17  C   UNL     1      45.527   3.181   7.433  0.00  0.00    +0.000 A 
ATOM     18  C   UNL     1      44.700   4.181   7.942  0.00  0.00    +0.000 A 
ATOM     19  C   UNL     1      44.344   4.176   9.293  0.00  0.00    +0.000 A 
ATOM     20  C   UNL     1      44.818   3.174  10.147  0.00  0.00    +0.000 A 
ATOM     21  C   UNL     1      45.650   2.176   9.634  0.00  0.00    +0.000 A 
BRANCH  16  23
ATOM     22  N   UNL     1      47.937   1.516   6.961  0.00  0.00    +0.000 N 
ATOM     23  C   UNL     1      46.857   1.109   7.693  0.00  0.00    +0.000 C 
ATOM     24  O   UNL     1      46.645  -0.080   7.896  0.00  0.00    +0.000 OA
ATOM     25  H   UNL     1      48.577   0.792   6.665  0.00  0.00    +0.000 HD
ATOM     26  H   UNL     1      48.275   2.468   6.976  0.00  0.00    +0.000 HD
ENDBRANCH  16  23
ENDBRANCH  15  20
ENDBRANCH   1  15
TORSDOF 5
ENDMDL
MODEL 6
REMARK VINA RESULT:    -7.046      3.695      7.847
REMARK INTER + INTRA:          -9.523
REMARK INTER:                  -8.846
REMARK INTRA:                  -0.677
REMARK UNBOUND:                -0.418
REMARK  Name = 
REMARK  5 active torsions:
REMARK  status: ('A' for Active; 'I' for Inactive)
REMARK    1  A    between atoms: C_2  and  C_4
REMARK    2  A    between atoms: C_8  and  O_9
REMARK    3  A    between atoms: O_9  and  C_10
REMARK    4  A    between atoms: C_10  and  C_11
REMARK    5  A    between atoms: C_16  and  N_17
REMARK                            x       y       z     vdW  Elec       q    Type
REMARK                         _______ _______ _______ _____ _____    ______ ____
ROOT
ATOM      1  C   UNL     1      46.956   3.618  13.840  0.00  0.00    +0.000 C 
ENDROOT
BRANCH   1   2
ATOM      2  C   UNL     1      45.795   4.014  12.958  0.00  0.00    +0.000 A 
ATOM      3  C   UNL     1      44.906   5.014  13.365  0.00  0.00    +0.000 A 
ATOM      4  C   UNL     1      43.919   5.462  12.492  0.00  0.00    +0.000 A 
ATOM      5  C   UNL     1      43.833   4.924  11.208  0.00  0.00    +0.000 A 
ATOM      6  F   UNL     1      42.874   5.402  10.397  0.00  0.00    +0.000 F 
ATOM      7  C   UNL     1      44.696   3.909  10.759  0.00  0.00    +0.000 A 
ATOM      8  C   UNL     1      45.646   3.437  11.681  0.00  0.00    +0.000 A 
BRANCH   7   9
ATOM      9  N   UNL     1      44.706   3.434   9.461  0.00  0.00    +0.000 N 
ATOM     10  C   UNL     1      44.648   1.995   9.171  0.00  0.00    +0.000 C 
ATOM     11  C   UNL     1      45.929   1.536   8.467  0.00  0.00    +0.000 C 
ATOM     12  O   UNL     1      46.177   2.319   7.286  0.00  0.00    +0.000 OA
ATOM     13  C   UNL     1      46.343   3.704   7.637  0.00  0.00    +0.000 C 
ATOM     14  C   UNL     1      45.093   4.283   8.328  0.00  0.00    +0.000 C 
ENDBRANCH   7   9
ENDBRANCH   1   2
BRANCH   1  15
ATOM     15  O   UNL     1      46.650   3.877  15.206  0.00  0.00    +0.000 OA
BRANCH  15  20
ATOM     16  C   UNL     1      48.812   4.823  17.971  0.00  0.00    +0.000 A 
ATOM     17  C   UNL     1      49.417   5.994  17.502  0.00  0.00    +0.000 A 
ATOM     18  C   UNL     1      49.108   6.474  16.232  0.00  0.00    +0.000 A 
ATOM     19  C   UNL     1      48.189   5.794  15.429  0.00  0.00    +0.000 A 
ATOM     20  C   UNL     1      47.567   4.631  15.894  0.00  0.00    +0.000 A 
ATOM     21  C   UNL     1      47.876   4.155  17.171  0.00  0.00    +0.000 A 
BRANCH  16  23
ATOM     22  N   UNL     1      48.402   3.346  19.863  0.00  0.00    +0.000 N 
ATOM     23  C   UNL     1      49.180   4.333  19.323  0.00  0.00    +0.000 C 
ATOM     24  O   UNL     1      50.165   4.755  19.915  0.00  0.00    +0.000 OA
ATOM     25  H   UNL     1      48.727   2.944  20.732  0.00  0.00    +0.000 HD
ATOM     26  H   UNL     1      47.742   2.814  19.315  0.00  0.00    +0.000 HD
ENDBRANCH  16  23
ENDBRANCH  15  20
ENDBRANCH   1  15
TORSDOF 5
ENDMDL
MODEL 7
REMARK VINA RESULT:    -6.900      4.117      7.538
REMARK INTER + INTRA:          -9.334
REMARK INTER:                  -8.744
REMARK INTRA:                  -0.590
REMARK UNBOUND:                -0.418
REMARK  Name = 
REMARK  5 active torsions:
REMARK  status: ('A' for Active; 'I' for Inactive)
REMARK    1  A    between atoms: C_2  and  C_4
REMARK    2  A    between atoms: C_8  and  O_9
REMARK    3  A    between atoms: O_9  and  C_10
REMARK    4  A    between atoms: C_10  and  C_11
REMARK    5  A    between atoms: C_16  and  N_17
REMARK                            x       y       z     vdW  Elec       q    Type
REMARK                         _______ _______ _______ _____ _____    ______ ____
ROOT
ATOM      1  C   UNL     1      47.098   3.726  14.443  0.00  0.00    +0.000 C 
ENDROOT
BRANCH   1   2
ATOM      2  C   UNL     1      46.450   4.690  13.478  0.00  0.00    +0.000 A 
ATOM      3  C   UNL     1      46.566   6.071  13.672  0.00  0.00    +0.000 A 
ATOM      4  C   UNL     1      46.079   6.949  12.709  0.00  0.00    +0.000 A 
ATOM      5  C   UNL     1      45.494   6.450  11.546  0.00  0.00    +0.000 A 
ATOM      6  F   UNL     1      45.055   7.339  10.639  0.00  0.00    +0.000 F 
ATOM      7  C   UNL     1      45.345   5.070  11.313  0.00  0.00    +0.000 A 
ATOM      8  C   UNL     1      45.795   4.209  12.327  0.00  0.00    +0.000 A 
BRANCH   7   9
ATOM      9  N   UNL     1      44.871   4.544  10.126  0.00  0.00    +0.000 N 
ATOM     10  C   UNL     1      43.975   3.380  10.109  0.00  0.00    +0.000 C 
ATOM     11  C   UNL     1      44.644   2.197   9.401  0.00  0.00    +0.000 C 
ATOM     12  O   UNL     1      45.081   2.566   8.081  0.00  0.00    +0.000 OA
ATOM     13  C   UNL     1      46.046   3.631   8.160  0.00  0.00    +0.000 C 
ATOM     14  C   UNL     1      45.466   4.892   8.830  0.00  0.00    +0.000 C 
ENDBRANCH   7   9
ENDBRANCH   1   2
BRANCH   1  15
ATOM     15  O   UNL     1      46.560   3.898  15.750  0.00  0.00    +0.000 OA
BRANCH  15  20
ATOM     16  C   UNL     1      49.597   3.148  17.602  0.00  0.00    +0.000 A 
ATOM     17  C   UNL     1      49.489   3.983  18.720  0.00  0.00    +0.000 A 
ATOM     18  C   UNL     1      48.387   4.823  18.856  0.00  0.00    +0.000 A 
ATOM     19  C   UNL     1      47.384   4.828  17.882  0.00  0.00    +0.000 A 
ATOM     20  C   UNL     1      47.475   3.987  16.769  0.00  0.00    +0.000 A 
ATOM     21  C   UNL     1      48.580   3.142  16.639  0.00  0.00    +0.000 A 
BRANCH  16  23
ATOM     22  N   UNL     1      51.870   2.587  18.270  0.00  0.00    +0.000 N 
ATOM     23  C   UNL     1      50.795   2.280  17.484  0.00  0.00    +0.000 C 
ATOM     24  O   UNL     1      50.809   1.300  16.750  0.00  0.00    +0.000 OA
ATOM     25  H   UNL     1      52.635   1.926  18.261  0.00  0.00    +0.000 HD
ATOM     26  H   UNL     1      51.809   3.228  19.048  0.00  0.00    +0.000 HD
ENDBRANCH  16  23
ENDBRANCH  15  20
ENDBRANCH   1  15
TORSDOF 5
ENDMDL
MODEL 8
REMARK VINA RESULT:    -6.834      1.949      2.977
REMARK INTER + INTRA:          -9.250
REMARK INTER:                  -8.234
REMARK INTRA:                  -1.016
REMARK UNBOUND:                -0.418
REMARK  Name = 
REMARK  5 active torsions:
REMARK  status: ('A' for Active; 'I' for Inactive)
REMARK    1  A    between atoms: C_2  and  C_4
REMARK    2  A    between atoms: C_8  and  O_9
REMARK    3  A    between atoms: O_9  and  C_10
REMARK    4  A    between atoms: C_10  and  C_11
REMARK    5  A    between atoms: C_16  and  N_17
REMARK                            x       y       z     vdW  Elec       q    Type
REMARK                         _______ _______ _______ _____ _____    ______ ____
ROOT
ATOM      1  C   UNL     1      44.200   6.031  12.097  0.00  0.00    +0.000 C 
ENDROOT
BRANCH   1   2
ATOM      2  C   UNL     1      45.487   6.197  12.869  0.00  0.00    +0.000 A 
ATOM      3  C   UNL     1      46.015   5.130  13.603  0.00  0.00    +0.000 A 
ATOM      4  C   UNL     1      47.265   5.252  14.203  0.00  0.00    +0.000 A 
ATOM      5  C   UNL     1      47.994   6.431  14.054  0.00  0.00    +0.000 A 
ATOM      6  F   UNL     1      49.203   6.493  14.637  0.00  0.00    +0.000 F 
ATOM      7  C   UNL     1      47.499   7.535  13.336  0.00  0.00    +0.000 A 
ATOM      8  C   UNL     1      46.211   7.403  12.789  0.00  0.00    +0.000 A 
BRANCH   7   9
ATOM      9  N   UNL     1      48.240   8.672  13.078  0.00  0.00    +0.000 N 
ATOM     10  C   UNL     1      49.088   8.780  11.883  0.00  0.00    +0.000 C 
ATOM     11  C   UNL     1      50.562   8.916  12.279  0.00  0.00    +0.000 C 
ATOM     12  O   UNL     1      50.754  10.018  13.183  0.00  0.00    +0.000 OA
ATOM     13  C   UNL     1      49.995   9.809  14.387  0.00  0.00    +0.000 C 
ATOM     14  C   UNL     1      48.484   9.690  14.108  0.00  0.00    +0.000 C 
ENDBRANCH   7   9
ENDBRANCH   1   2
BRANCH   1  15
ATOM     15  O   UNL     1      44.467   5.945  10.701  0.00  0.00    +0.000 OA
BRANCH  15  20
ATOM     16  C   UNL     1      45.629   3.339   8.449  0.00  0.00    +0.000 A 
ATOM     17  C   UNL     1      45.016   2.191   8.963  0.00  0.00    +0.000 A 
ATOM     18  C   UNL     1      44.206   2.284  10.092  0.00  0.00    +0.000 A 
ATOM     19  C   UNL     1      43.999   3.521  10.707  0.00  0.00    +0.000 A 
ATOM     20  C   UNL     1      44.595   4.677  10.192  0.00  0.00    +0.000 A 
ATOM     21  C   UNL     1      45.403   4.581   9.056  0.00  0.00    +0.000 A 
BRANCH  16  23
ATOM     22  N   UNL     1      47.163   2.013   7.101  0.00  0.00    +0.000 N 
ATOM     23  C   UNL     1      46.499   3.198   7.254  0.00  0.00    +0.000 C 
ATOM     24  O   UNL     1      46.586   4.083   6.413  0.00  0.00    +0.000 OA
ATOM     25  H   UNL     1      47.663   1.888   6.230  0.00  0.00    +0.000 HD
ATOM     26  H   UNL     1      46.932   1.188   7.634  0.00  0.00    +0.000 HD
ENDBRANCH  16  23
ENDBRANCH  15  20
ENDBRANCH   1  15
TORSDOF 5
ENDMDL
MODEL 9
REMARK VINA RESULT:    -6.537      2.906      4.654
REMARK INTER + INTRA:          -8.865
REMARK INTER:                  -8.116
REMARK INTRA:                  -0.749
REMARK UNBOUND:                -0.418
REMARK  Name = 
REMARK  5 active torsions:
REMARK  status: ('A' for Active; 'I' for Inactive)
REMARK    1  A    between atoms: C_2  and  C_4
REMARK    2  A    between atoms: C_8  and  O_9
REMARK    3  A    between atoms: O_9  and  C_10
REMARK    4  A    between atoms: C_10  and  C_11
REMARK    5  A    between atoms: C_16  and  N_17
REMARK                            x       y       z     vdW  Elec       q    Type
REMARK                         _______ _______ _______ _____ _____    ______ ____
ROOT
ATOM      1  C   UNL     1      45.932   7.277  12.537  0.00  0.00    +0.000 C 
ENDROOT
BRANCH   1   2
ATOM      2  C   UNL     1      47.416   7.379  12.794  0.00  0.00    +0.000 A 
ATOM      3  C   UNL     1      48.292   7.721  11.758  0.00  0.00    +0.000 A 
ATOM      4  C   UNL     1      49.639   7.939  12.032  0.00  0.00    +0.000 A 
ATOM      5  C   UNL     1      50.106   7.835  13.342  0.00  0.00    +0.000 A 
ATOM      6  F   UNL     1      51.411   8.073  13.557  0.00  0.00    +0.000 F 
ATOM      7  C   UNL     1      49.266   7.482  14.414  0.00  0.00    +0.000 A 
ATOM      8  C   UNL     1      47.923   7.213  14.098  0.00  0.00    +0.000 A 
BRANCH   7   9
ATOM      9  N   UNL     1      49.674   7.478  15.734  0.00  0.00    +0.000 N 
ATOM     10  C   UNL     1      50.654   6.502  16.229  0.00  0.00    +0.000 C 
ATOM     11  C   UNL     1      50.022   5.595  17.289  0.00  0.00    +0.000 C 
ATOM     12  O   UNL     1      49.442   6.371  18.353  0.00  0.00    +0.000 OA
ATOM     13  C   UNL     1      48.407   7.225  17.834  0.00  0.00    +0.000 C 
ATOM     14  C   UNL     1      48.942   8.209  16.775  0.00  0.00    +0.000 C 
ENDBRANCH   7   9
ENDBRANCH   1   2
BRANCH   1  15
ATOM     15  O   UNL     1      45.380   6.175  13.251  0.00  0.00    +0.000 OA
BRANCH  15  20
ATOM     16  C   UNL     1      44.743   4.244  10.238  0.00  0.00    +0.000 A 
ATOM     17  C   UNL     1      43.936   3.202  10.705  0.00  0.00    +0.000 A 
ATOM     18  C   UNL     1      43.605   3.132  12.056  0.00  0.00    +0.000 A 
ATOM     19  C   UNL     1      44.070   4.106  12.944  0.00  0.00    +0.000 A 
ATOM     20  C   UNL     1      44.866   5.160  12.484  0.00  0.00    +0.000 A 
ATOM     21  C   UNL     1      45.191   5.230  11.127  0.00  0.00    +0.000 A 
BRANCH  16  23
ATOM     22  N   UNL     1      44.346   3.492   7.957  0.00  0.00    +0.000 N 
ATOM     23  C   UNL     1      45.090   4.275   8.795  0.00  0.00    +0.000 C 
ATOM     24  O   UNL     1      45.971   5.004   8.360  0.00  0.00    +0.000 OA
ATOM     25  H   UNL     1      44.518   3.605   6.966  0.00  0.00    +0.000 HD
ATOM     26  H   UNL     1      43.472   3.072   8.239  0.00  0.00    +0.000 HD
ENDBRANCH  16  23
ENDBRANCH  15  20
ENDBRANCH   1  15
TORSDOF 5
ENDMDL
