MODEL 1
REMARK VINA RESULT:    -8.502      0.000      0.000
REMARK INTER + INTRA:         -12.389
REMARK INTER:                 -11.484
REMARK INTRA:                  -0.905
REMARK UNBOUND:                -0.905
REMARK  Name = 
REMARK  7 active torsions:
REMARK  status: ('A' for Active; 'I' for Inactive)
REMARK    1  A    between atoms: C_1  and  C_2
REMARK    2  A    between atoms: C_2  and  C_3
REMARK    3  A    between atoms: C_2  and  C_14
REMARK    4  A    between atoms: C_3  and  N_4
REMARK    5  A    between atoms: C_8  and  C_9
REMARK    6  A    between atoms: C_18  and  O_19
REMARK    7  A    between atoms: O_19  and  C_20
REMARK                            x       y       z     vdW  Elec       q    Type
REMARK                         _______ _______ _______ _____ _____    ______ ____
ROOT
ATOM      1  C   UNL     1      43.280   4.294  13.231  0.00  0.00    +0.000 C 
ATOM      2  C   UNL     1      43.773   5.413  12.302  0.00  0.00    +0.000 C 
ENDROOT
BRANCH   2   3
ATOM      3  C   UNL     1      45.251   5.741  12.500  0.00  0.00    +0.000 A 
ATOM      4  C   UNL     1      45.910   6.531  11.545  0.00  0.00    +0.000 A 
ATOM      5  C   UNL     1      47.261   6.847  11.685  0.00  0.00    +0.000 A 
ATOM      6  C   UNL     1      47.985   6.377  12.783  0.00  0.00    +0.000 A 
ATOM      7  C   UNL     1      47.352   5.577  13.730  0.00  0.00    +0.000 A 
ATOM      8  C   UNL     1      45.997   5.260  13.586  0.00  0.00    +0.000 A 
BRANCH   7   9
ATOM      9  O   UNL     1      47.946   5.079  14.861  0.00  0.00    +0.000 OA
BRANCH   9  10
ATOM     10  C   UNL     1      47.218   4.144  15.688  0.00  0.00    +0.000 C 
ATOM     11  C   UNL     1      47.095   4.454  17.193  0.00  0.00    +0.000 C 
ATOM     12  N   UNL     1      47.602   3.113  17.525  0.00  0.00    +0.000 NA
ATOM     13  C   UNL     1      48.039   2.916  16.136  0.00  0.00    +0.000 C 
ATOM     14  H   UNL     1      46.882   2.457  17.829  0.00  0.00    +0.000 HD
ENDBRANCH   9  10
ENDBRANCH   7   9
ENDBRANCH   2   3
BRANCH   2  15
ATOM     15  C   UNL     1      43.468   5.055  10.830  0.00  0.00    +0.000 C 
BRANCH  15  16
ATOM     16  N   UNL     1      43.737   3.642  10.553  0.00  0.00    +0.000 N 
ATOM     17  C   UNL     1      44.681   3.362   9.561  0.00  0.00    +0.000 A 
ATOM     18  C   UNL     1      45.014   2.030   9.325  0.00  0.00    +0.000 A 
ATOM     19  C   UNL     1      45.929   1.714   8.319  0.00  0.00    +0.000 A 
ATOM     20  C   UNL     1      46.503   2.734   7.562  0.00  0.00    +0.000 A 
ATOM     21  C   UNL     1      46.147   4.030   7.889  0.00  0.00    +0.000 A 
ATOM     22  N   UNL     1      45.266   4.359   8.869  0.00  0.00    +0.000 NA
ATOM     23  H   UNL     1      42.887   3.114  10.375  0.00  0.00    +0.000 HD
BRANCH  20  24
ATOM     24  C   UNL     1      47.435   2.392   6.462  0.00  0.00    +0.000 C 
ATOM     25  N   UNL     1      47.407   3.135   5.313  0.00  0.00    +0.000 N 
ATOM     26  O   UNL     1      48.212   1.450   6.561  0.00  0.00    +0.000 OA
ATOM     27  H   UNL     1      46.781   3.899   5.112  0.00  0.00    +0.000 HD
ATOM     28  H   UNL     1      48.036   2.843   4.575  0.00  0.00    +0.000 HD
ENDBRANCH  20  24
ENDBRANCH  15  16
ENDBRANCH   2  15
TORSDOF 6
ENDMDL
MODEL 2
REMARK VINA RESULT:    -7.364      2.576      3.843
REMARK INTER + INTRA:         -10.852
REMARK INTER:                 -10.110
REMARK INTRA:                  -0.743
REMARK UNBOUND:                -0.905
REMARK  Name = 
REMARK  7 active torsions:
REMARK  status: ('A' for Active; 'I' for Inactive)
REMARK    1  A    between atoms: C_1  and  C_2
REMARK    2  A    between atoms: C_2  and  C_3
REMARK    3  A    between atoms: C_2  and  C_14
REMARK    4  A    between atoms: C_3  and  N_4
REMARK    5  A    between atoms: C_8  and  C_9
REMARK    6  A    between atoms: C_18  and  O_19
REMARK    7  A    between atoms: O_19  and  C_20
REMARK                            x       y       z     vdW  Elec       q    Type
REMARK                         _______ _______ _______ _____ _____    ______ ____
ROOT
ATOM      1  C   UNL     1      43.327   4.271  13.158  0.00  0.00    +0.000 C 
ATOM      2  C   UNL     1      43.635   5.520  12.320  0.00  0.00    +0.000 C 
ENDROOT
BRANCH   2   3
ATOM      3  C   UNL     1      45.000   6.125  12.634  0.00  0.00    +0.000 A 
ATOM      4  C   UNL     1      46.034   5.286  13.078  0.00  0.00    +0.000 A 
ATOM      5  C   UNL     1      47.294   5.801  13.383  0.00  0.00    +0.000 A 
ATOM      6  C   UNL     1      47.548   7.168  13.253  0.00  0.00    +0.000 A 
ATOM      7  C   UNL     1      46.529   8.017  12.832  0.00  0.00    +0.000 A 
ATOM      8  C   UNL     1      45.265   7.499  12.528  0.00  0.00    +0.000 A 
BRANCH   7   9
ATOM      9  O   UNL     1      46.661   9.369  12.641  0.00  0.00    +0.000 OA
BRANCH   9  10
ATOM     10  C   UNL     1      47.913   9.895  12.151  0.00  0.00    +0.000 C 
ATOM     11  C   UNL     1      48.711  10.838  13.073  0.00  0.00    +0.000 C 
ATOM     12  N   UNL     1      48.796  11.839  11.998  0.00  0.00    +0.000 NA
ATOM     13  C   UNL     1      47.773  11.121  11.226  0.00  0.00    +0.000 C 
ATOM     14  H   UNL     1      49.706  11.883  11.539  0.00  0.00    +0.000 HD
ENDBRANCH   9  10
ENDBRANCH   7   9
ENDBRANCH   2   3
BRANCH   2  15
ATOM     15  C   UNL     1      43.494   5.199  10.814  0.00  0.00    +0.000 C 
BRANCH  15  16
ATOM     16  N   UNL     1      43.707   3.774  10.547  0.00  0.00    +0.000 N 
ATOM     17  C   UNL     1      44.639   3.450   9.556  0.00  0.00    +0.000 A 
ATOM     18  C   UNL     1      44.918   2.104   9.330  0.00  0.00    +0.000 A 
ATOM     19  C   UNL     1      45.820   1.745   8.326  0.00  0.00    +0.000 A 
ATOM     20  C   UNL     1      46.435   2.737   7.562  0.00  0.00    +0.000 A 
ATOM     21  C   UNL     1      46.130   4.048   7.881  0.00  0.00    +0.000 A 
ATOM     22  N   UNL     1      45.264   4.418   8.859  0.00  0.00    +0.000 NA
ATOM     23  H   UNL     1      42.836   3.279  10.373  0.00  0.00    +0.000 HD
BRANCH  20  24
ATOM     24  C   UNL     1      47.351   2.351   6.465  0.00  0.00    +0.000 C 
ATOM     25  N   UNL     1      47.398   3.122   5.336  0.00  0.00    +0.000 N 
ATOM     26  O   UNL     1      48.050   1.348   6.548  0.00  0.00    +0.000 OA
ATOM     27  H   UNL     1      46.837   3.938   5.147  0.00  0.00    +0.000 HD
ATOM     28  H   UNL     1      48.012   2.801   4.598  0.00  0.00    +0.000 HD
ENDBRANCH  20  24
ENDBRANCH  15  16
ENDBRANCH   2  15
TORSDOF 6
ENDMDL
MODEL 3
REMARK VINA RESULT:    -7.206      2.457      2.828
REMARK INTER + INTRA:         -10.639
REMARK INTER:                 -10.050
REMARK INTRA:                  -0.590
REMARK UNBOUND:                -0.905
REMARK  Name = 
REMARK  7 active torsions:
REMARK  status: ('A' for Active; 'I' for Inactive)
REMARK    1  A    between atoms: C_1  and  C_2
REMARK    2  A    between atoms: C_2  and  C_3
REMARK    3  A    between atoms: C_2  and  C_14
REMARK    4  A    between atoms: C_3  and  N_4
REMARK    5  A    between atoms: C_8  and  C_9
REMARK    6  A    between atoms: C_18  and  O_19
REMARK    7  A    between atoms: O_19  and  C_20
REMARK                            x       y       z     vdW  Elec       q    Type
REMARK                         _______ _______ _______ _____ _____    ______ ____
ROOT
ATOM      1  C   UNL     1      44.838   4.091  12.783  0.00  0.00    +0.000 C 
ATOM      2  C   UNL     1      44.035   5.256  12.186  0.00  0.00    +0.000 C 
ENDROOT
BRANCH   2   3
ATOM      3  C   UNL     1      44.774   6.589  12.265  0.00  0.00    +0.000 A 
ATOM      4  C   UNL     1      44.303   7.677  11.515  0.00  0.00    +0.000 A 
ATOM      5  C   UNL     1      44.955   8.911  11.555  0.00  0.00    +0.000 A 
ATOM      6  C   UNL     1      46.093   9.082  12.345  0.00  0.00    +0.000 A 
ATOM      7  C   UNL     1      46.585   8.007  13.081  0.00  0.00    +0.000 A 
ATOM      8  C   UNL     1      45.931   6.771  13.038  0.00  0.00    +0.000 A 
BRANCH   7   9
ATOM      9  O   UNL     1      47.675   8.057  13.911  0.00  0.00    +0.000 OA
BRANCH   9  10
ATOM     10  C   UNL     1      48.856   7.298  13.572  0.00  0.00    +0.000 C 
ATOM     11  C   UNL     1      50.231   7.931  13.867  0.00  0.00    +0.000 C 
ATOM     12  N   UNL     1      50.657   7.684  12.480  0.00  0.00    +0.000 NA
ATOM     13  C   UNL     1      49.271   7.391  12.089  0.00  0.00    +0.000 C 
ATOM     14  H   UNL     1      51.293   6.895  12.372  0.00  0.00    +0.000 HD
ENDBRANCH   9  10
ENDBRANCH   7   9
ENDBRANCH   2   3
BRANCH   2  15
ATOM     15  C   UNL     1      43.621   4.927  10.733  0.00  0.00    +0.000 C 
BRANCH  15  16
ATOM     16  N   UNL     1      43.872   3.520  10.408  0.00  0.00    +0.000 N 
ATOM     17  C   UNL     1      44.808   3.261   9.403  0.00  0.00    +0.000 A 
ATOM     18  C   UNL     1      45.122   1.933   9.122  0.00  0.00    +0.000 A 
ATOM     19  C   UNL     1      46.029   1.639   8.102  0.00  0.00    +0.000 A 
ATOM     20  C   UNL     1      46.613   2.677   7.376  0.00  0.00    +0.000 A 
ATOM     21  C   UNL     1      46.275   3.965   7.747  0.00  0.00    +0.000 A 
ATOM     22  N   UNL     1      45.403   4.272   8.742  0.00  0.00    +0.000 NA
ATOM     23  H   UNL     1      43.014   3.009  10.218  0.00  0.00    +0.000 HD
BRANCH  20  24
ATOM     24  C   UNL     1      47.535   2.360   6.261  0.00  0.00    +0.000 C 
ATOM     25  N   UNL     1      47.486   3.117   5.123  0.00  0.00    +0.000 N 
ATOM     26  O   UNL     1      48.323   1.424   6.339  0.00  0.00    +0.000 OA
ATOM     27  H   UNL     1      46.850   3.877   4.939  0.00  0.00    +0.000 HD
ATOM     28  H   UNL     1      48.110   2.842   4.374  0.00  0.00    +0.000 HD
ENDBRANCH  20  24
ENDBRANCH  15  16
ENDBRANCH   2  15
TORSDOF 6
ENDMDL
MODEL 4
REMARK VINA RESULT:    -7.193      2.904      4.697
REMARK INTER + INTRA:         -10.621
REMARK INTER:                 -10.002
REMARK INTRA:                  -0.619
REMARK UNBOUND:                -0.905
REMARK  Name = 
REMARK  7 active torsions:
REMARK  status: ('A' for Active; 'I' for Inactive)
REMARK    1  A    between atoms: C_1  and  C_2
REMARK    2  A    between atoms: C_2  and  C_3
REMARK    3  A    between atoms: C_2  and  C_14
REMARK    4  A    between atoms: C_3  and  N_4
REMARK    5  A    between atoms: C_8  and  C_9
REMARK    6  A    between atoms: C_18  and  O_19
REMARK    7  A    between atoms: O_19  and  C_20
REMARK                            x       y       z     vdW  Elec       q    Type
REMARK                         _______ _______ _______ _____ _____    ______ ____
ROOT
ATOM      1  C   UNL     1      45.189   3.577  12.801  0.00  0.00    +0.000 C 
ATOM      2  C   UNL     1      44.403   4.840  12.424  0.00  0.00    +0.000 C 
ENDROOT
BRANCH   2   3
ATOM      3  C   UNL     1      45.271   6.095  12.400  0.00  0.00    +0.000 A 
ATOM      4  C   UNL     1      46.668   5.960  12.401  0.00  0.00    +0.000 A 
ATOM      5  C   UNL     1      47.497   7.083  12.387  0.00  0.00    +0.000 A 
ATOM      6  C   UNL     1      46.946   8.366  12.372  0.00  0.00    +0.000 A 
ATOM      7  C   UNL     1      45.562   8.518  12.390  0.00  0.00    +0.000 A 
ATOM      8  C   UNL     1      44.734   7.391  12.406  0.00  0.00    +0.000 A 
BRANCH   7   9
ATOM      9  O   UNL     1      44.903   9.720  12.352  0.00  0.00    +0.000 OA
BRANCH   9  10
ATOM     10  C   UNL     1      44.166  10.085  11.164  0.00  0.00    +0.000 C 
ATOM     11  C   UNL     1      44.715  11.236  10.298  0.00  0.00    +0.000 C 
ATOM     12  N   UNL     1      43.407  11.909  10.340  0.00  0.00    +0.000 NA
ATOM     13  C   UNL     1      42.964  11.017  11.421  0.00  0.00    +0.000 C 
ATOM     14  H   UNL     1      42.863  11.821   9.482  0.00  0.00    +0.000 HD
ENDBRANCH   9  10
ENDBRANCH   7   9
ENDBRANCH   2   3
BRANCH   2  15
ATOM     15  C   UNL     1      43.676   4.631  11.076  0.00  0.00    +0.000 C 
BRANCH  15  16
ATOM     16  N   UNL     1      44.467   5.143   9.954  0.00  0.00    +0.000 N 
ATOM     17  C   UNL     1      45.138   4.199   9.171  0.00  0.00    +0.000 A 
ATOM     18  C   UNL     1      45.838   4.647   8.054  0.00  0.00    +0.000 A 
ATOM     19  C   UNL     1      46.545   3.733   7.269  0.00  0.00    +0.000 A 
ATOM     20  C   UNL     1      46.541   2.381   7.611  0.00  0.00    +0.000 A 
ATOM     21  C   UNL     1      45.788   2.018   8.713  0.00  0.00    +0.000 A 
ATOM     22  N   UNL     1      45.086   2.889   9.483  0.00  0.00    +0.000 NA
ATOM     23  H   UNL     1      45.114   5.874  10.239  0.00  0.00    +0.000 HD
BRANCH  20  24
ATOM     24  C   UNL     1      47.334   1.422   6.807  0.00  0.00    +0.000 C 
ATOM     25  N   UNL     1      48.431   1.875   6.126  0.00  0.00    +0.000 N 
ATOM     26  O   UNL     1      47.012   0.242   6.732  0.00  0.00    +0.000 OA
ATOM     27  H   UNL     1      48.757   2.828   6.084  0.00  0.00    +0.000 HD
ATOM     28  H   UNL     1      48.922   1.192   5.562  0.00  0.00    +0.000 HD
ENDBRANCH  20  24
ENDBRANCH  15  16
ENDBRANCH   2  15
TORSDOF 6
ENDMDL
MODEL 5
REMARK VINA RESULT:    -7.057      2.279      8.155
REMARK INTER + INTRA:         -10.438
REMARK INTER:                  -9.921
REMARK INTRA:                  -0.516
REMARK UNBOUND:                -0.905
REMARK  Name = 
REMARK  7 active torsions:
REMARK  status: ('A' for Active; 'I' for Inactive)
REMARK    1  A    between atoms: C_1  and  C_2
REMARK    2  A    between atoms: C_2  and  C_3
REMARK    3  A    between atoms: C_2  and  C_14
REMARK    4  A    between atoms: C_3  and  N_4
REMARK    5  A    between atoms: C_8  and  C_9
REMARK    6  A    between atoms: C_18  and  O_19
REMARK    7  A    between atoms: O_19  and  C_20
REMARK                            x       y       z     vdW  Elec       q    Type
REMARK                         _______ _______ _______ _____ _____    ______ ____
ROOT
ATOM      1  C   UNL     1      46.831   6.546  11.094  0.00  0.00    +0.000 C 
ATOM      2  C   UNL     1      45.547   5.808  11.499  0.00  0.00    +0.000 C 
ENDROOT
BRANCH   2   3
ATOM      3  C   UNL     1      45.206   4.651  10.563  0.00  0.00    +0.000 A 
ATOM      4  C   UNL     1      44.455   3.572  11.054  0.00  0.00    +0.000 A 
ATOM      5  C   UNL     1      44.129   2.493  10.232  0.00  0.00    +0.000 A 
ATOM      6  C   UNL     1      44.550   2.468   8.901  0.00  0.00    +0.000 A 
ATOM      7  C   UNL     1      45.311   3.521   8.403  0.00  0.00    +0.000 A 
ATOM      8  C   UNL     1      45.638   4.601   9.229  0.00  0.00    +0.000 A 
BRANCH   7   9
ATOM      9  O   UNL     1      45.760   3.624   7.111  0.00  0.00    +0.000 OA
BRANCH   9  10
ATOM     10  C   UNL     1      47.142   3.328   6.817  0.00  0.00    +0.000 C 
ATOM     11  C   UNL     1      47.510   2.961   5.365  0.00  0.00    +0.000 C 
ATOM     12  N   UNL     1      48.185   1.740   5.829  0.00  0.00    +0.000 NA
ATOM     13  C   UNL     1      47.572   1.885   7.157  0.00  0.00    +0.000 C 
ATOM     14  H   UNL     1      49.203   1.801   5.835  0.00  0.00    +0.000 HD
ENDBRANCH   9  10
ENDBRANCH   7   9
ENDBRANCH   2   3
BRANCH   2  15
ATOM     15  C   UNL     1      45.647   5.333  12.967  0.00  0.00    +0.000 C 
BRANCH  15  16
ATOM     16  N   UNL     1      46.667   6.081  13.705  0.00  0.00    +0.000 N 
ATOM     17  C   UNL     1      47.269   5.431  14.787  0.00  0.00    +0.000 A 
ATOM     18  C   UNL     1      48.294   6.087  15.463  0.00  0.00    +0.000 A 
ATOM     19  C   UNL     1      48.894   5.478  16.568  0.00  0.00    +0.000 A 
ATOM     20  C   UNL     1      48.461   4.218  16.981  0.00  0.00    +0.000 A 
ATOM     21  C   UNL     1      47.466   3.622  16.230  0.00  0.00    +0.000 A 
ATOM     22  N   UNL     1      46.877   4.193  15.147  0.00  0.00    +0.000 NA
ATOM     23  H   UNL     1      46.339   6.998  13.997  0.00  0.00    +0.000 HD
BRANCH  20  24
ATOM     24  C   UNL     1      49.064   3.598  18.184  0.00  0.00    +0.000 C 
ATOM     25  N   UNL     1      50.420   3.657  18.354  0.00  0.00    +0.000 N 
ATOM     26  O   UNL     1      48.369   3.021  19.013  0.00  0.00    +0.000 OA
ATOM     27  H   UNL     1      51.084   4.066  17.715  0.00  0.00    +0.000 HD
ATOM     28  H   UNL     1      50.791   3.189  19.172  0.00  0.00    +0.000 HD
ENDBRANCH  20  24
ENDBRANCH  15  16
ENDBRANCH   2  15
TORSDOF 6
ENDMDL
MODEL 6
REMARK VINA RESULT:    -6.852      2.231      8.307
REMARK INTER + INTRA:         -10.160
REMARK INTER:                  -9.612
REMARK INTRA:                  -0.548
REMARK UNBOUND:                -0.905
REMARK  Name = 
REMARK  7 active torsions:
REMARK  status: ('A' for Active; 'I' for Inactive)
REMARK    1  A    between atoms: C_1  and  C_2
REMARK    2  A    between atoms: C_2  and  C_3
REMARK    3  A    between atoms: C_2  and  C_14
REMARK    4  A    between atoms: C_3  and  N_4
REMARK    5  A    between atoms: C_8  and  C_9
REMARK    6  A    between atoms: C_18  and  O_19
REMARK    7  A    between atoms: O_19  and  C_20
REMARK                            x       y       z     vdW  Elec       q    Type
REMARK                         _______ _______ _______ _____ _____    ______ ____
ROOT
ATOM      1  C   UNL     1      46.657   7.777  12.236  0.00  0.00    +0.000 C 
ATOM      2  C   UNL     1      46.149   6.418  12.737  0.00  0.00    +0.000 C 
ENDROOT
BRANCH   2   3
ATOM      3  C   UNL     1      45.377   5.643  11.673  0.00  0.00    +0.000 A 
ATOM      4  C   UNL     1      44.124   5.101  11.996  0.00  0.00    +0.000 A 
ATOM      5  C   UNL     1      43.389   4.380  11.054  0.00  0.00    +0.000 A 
ATOM      6  C   UNL     1      43.894   4.184   9.767  0.00  0.00    +0.000 A 
ATOM      7  C   UNL     1      45.143   4.699   9.435  0.00  0.00    +0.000 A 
ATOM      8  C   UNL     1      45.879   5.419  10.381  0.00  0.00    +0.000 A 
BRANCH   7   9
ATOM      9  O   UNL     1      45.733   4.596   8.201  0.00  0.00    +0.000 OA
BRANCH   9  10
ATOM     10  C   UNL     1      45.630   3.355   7.469  0.00  0.00    +0.000 C 
ATOM     11  C   UNL     1      46.280   2.098   8.082  0.00  0.00    +0.000 C 
ATOM     12  N   UNL     1      47.004   1.843   6.827  0.00  0.00    +0.000 NA
ATOM     13  C   UNL     1      46.670   3.190   6.342  0.00  0.00    +0.000 C 
ATOM     14  H   UNL     1      46.610   1.091   6.262  0.00  0.00    +0.000 HD
ENDBRANCH   9  10
ENDBRANCH   7   9
ENDBRANCH   2   3
BRANCH   2  15
ATOM     15  C   UNL     1      47.325   5.585  13.298  0.00  0.00    +0.000 C 
BRANCH  15  16
ATOM     16  N   UNL     1      46.861   4.580  14.258  0.00  0.00    +0.000 N 
ATOM     17  C   UNL     1      47.436   4.612  15.532  0.00  0.00    +0.000 A 
ATOM     18  C   UNL     1      46.963   3.717  16.490  0.00  0.00    +0.000 A 
ATOM     19  C   UNL     1      47.538   3.701  17.763  0.00  0.00    +0.000 A 
ATOM     20  C   UNL     1      48.577   4.582  18.063  0.00  0.00    +0.000 A 
ATOM     21  C   UNL     1      48.957   5.462  17.066  0.00  0.00    +0.000 A 
ATOM     22  N   UNL     1      48.404   5.500  15.826  0.00  0.00    +0.000 NA
ATOM     23  H   UNL     1      46.910   3.636  13.884  0.00  0.00    +0.000 HD
BRANCH  20  24
ATOM     24  C   UNL     1      49.219   4.527  19.397  0.00  0.00    +0.000 C 
ATOM     25  N   UNL     1      48.635   3.781  20.384  0.00  0.00    +0.000 N 
ATOM     26  O   UNL     1      50.248   5.150  19.629  0.00  0.00    +0.000 OA
ATOM     27  H   UNL     1      47.770   3.269  20.313  0.00  0.00    +0.000 HD
ATOM     28  H   UNL     1      49.089   3.801  21.289  0.00  0.00    +0.000 HD
ENDBRANCH  20  24
ENDBRANCH  15  16
ENDBRANCH   2  15
TORSDOF 6
ENDMDL
MODEL 7
REMARK VINA RESULT:    -6.395      2.747      4.434
REMARK INTER + INTRA:          -9.543
REMARK INTER:                  -8.812
REMARK INTRA:                  -0.731
REMARK UNBOUND:                -0.905
REMARK  Name = 
REMARK  7 active torsions:
REMARK  status: ('A' for Active; 'I' for Inactive)
REMARK    1  A    between atoms: C_1  and  C_2
REMARK    2  A    between atoms: C_2  and  C_3
REMARK    3  A    between atoms: C_2  and  C_14
REMARK    4  A    between atoms: C_3  and  N_4
REMARK    5  A    between atoms: C_8  and  C_9
REMARK    6  A    between atoms: C_18  and  O_19
REMARK    7  A    between atoms: O_19  and  C_20
REMARK                            x       y       z     vdW  Elec       q    Type
REMARK                         _______ _______ _______ _____ _____    ______ ____
ROOT
ATOM      1  C   UNL     1      48.916   9.675  12.034  0.00  0.00    +0.000 C 
ATOM      2  C   UNL     1      48.101   8.478  12.545  0.00  0.00    +0.000 C 
ENDROOT
BRANCH   2   3
ATOM      3  C   UNL     1      48.388   8.144  14.006  0.00  0.00    +0.000 A 
ATOM      4  C   UNL     1      48.528   9.189  14.932  0.00  0.00    +0.000 A 
ATOM      5  C   UNL     1      48.799   8.926  16.275  0.00  0.00    +0.000 A 
ATOM      6  C   UNL     1      48.937   7.610  16.722  0.00  0.00    +0.000 A 
ATOM      7  C   UNL     1      48.821   6.562  15.813  0.00  0.00    +0.000 A 
ATOM      8  C   UNL     1      48.551   6.829  14.467  0.00  0.00    +0.000 A 
BRANCH   7   9
ATOM      9  O   UNL     1      48.910   5.231  16.133  0.00  0.00    +0.000 OA
BRANCH   9  10
ATOM     10  C   UNL     1      47.700   4.455  16.272  0.00  0.00    +0.000 C 
ATOM     11  C   UNL     1      47.010   4.433  17.650  0.00  0.00    +0.000 C 
ATOM     12  N   UNL     1      46.993   2.962  17.635  0.00  0.00    +0.000 NA
ATOM     13  C   UNL     1      47.932   2.947  16.504  0.00  0.00    +0.000 C 
ATOM     14  H   UNL     1      46.082   2.556  17.421  0.00  0.00    +0.000 HD
ENDBRANCH   9  10
ENDBRANCH   7   9
ENDBRANCH   2   3
BRANCH   2  15
ATOM     15  C   UNL     1      46.593   8.723  12.309  0.00  0.00    +0.000 C 
BRANCH  15  16
ATOM     16  N   UNL     1      45.769   7.806  13.100  0.00  0.00    +0.000 N 
ATOM     17  C   UNL     1      45.437   6.584  12.508  0.00  0.00    +0.000 A 
ATOM     18  C   UNL     1      44.718   5.660  13.262  0.00  0.00    +0.000 A 
ATOM     19  C   UNL     1      44.342   4.443  12.688  0.00  0.00    +0.000 A 
ATOM     20  C   UNL     1      44.693   4.164  11.367  0.00  0.00    +0.000 A 
ATOM     21  C   UNL     1      45.441   5.120  10.705  0.00  0.00    +0.000 A 
ATOM     22  N   UNL     1      45.824   6.305  11.248  0.00  0.00    +0.000 NA
ATOM     23  H   UNL     1      44.929   8.252  13.459  0.00  0.00    +0.000 HD
BRANCH  20  24
ATOM     24  C   UNL     1      44.249   2.895  10.746  0.00  0.00    +0.000 C 
ATOM     25  N   UNL     1      45.032   2.318   9.784  0.00  0.00    +0.000 N 
ATOM     26  O   UNL     1      43.190   2.370  11.068  0.00  0.00    +0.000 OA
ATOM     27  H   UNL     1      45.895   2.686   9.415  0.00  0.00    +0.000 HD
ATOM     28  H   UNL     1      44.672   1.470   9.362  0.00  0.00    +0.000 HD
ENDBRANCH  20  24
ENDBRANCH  15  16
ENDBRANCH   2  15
TORSDOF 6
ENDMDL
MODEL 8
REMARK VINA RESULT:    -6.335      2.867      7.589
REMARK INTER + INTRA:          -9.463
REMARK INTER:                  -8.687
REMARK INTRA:                  -0.775
REMARK UNBOUND:                -0.905
REMARK  Name = 
REMARK  7 active torsions:
REMARK  status: ('A' for Active; 'I' for Inactive)
REMARK    1  A    between atoms: C_1  and  C_2
REMARK    2  A    between atoms: C_2  and  C_3
REMARK    3  A    between atoms: C_2  and  C_14
REMARK    4  A    between atoms: C_3  and  N_4
REMARK    5  A    between atoms: C_8  and  C_9
REMARK    6  A    between atoms: C_18  and  O_19
REMARK    7  A    between atoms: O_19  and  C_20
REMARK                            x       y       z     vdW  Elec       q    Type
REMARK                         _______ _______ _______ _____ _____    ______ ____
ROOT
ATOM      1  C   UNL     1      49.183   9.630  11.405  0.00  0.00    +0.000 C 
ATOM      2  C   UNL     1      48.581   8.705  12.472  0.00  0.00    +0.000 C 
ENDROOT
BRANCH   2   3
ATOM      3  C   UNL     1      47.199   8.180  12.092  0.00  0.00    +0.000 A 
ATOM      4  C   UNL     1      46.106   9.059  12.109  0.00  0.00    +0.000 A 
ATOM      5  C   UNL     1      44.825   8.617  11.775  0.00  0.00    +0.000 A 
ATOM      6  C   UNL     1      44.610   7.284  11.420  0.00  0.00    +0.000 A 
ATOM      7  C   UNL     1      45.680   6.394  11.416  0.00  0.00    +0.000 A 
ATOM      8  C   UNL     1      46.963   6.839  11.752  0.00  0.00    +0.000 A 
BRANCH   7   9
ATOM      9  O   UNL     1      45.602   5.072  11.061  0.00  0.00    +0.000 OA
BRANCH   9  10
ATOM     10  C   UNL     1      44.305   4.476  10.835  0.00  0.00    +0.000 C 
ATOM     11  C   UNL     1      43.679   3.652  11.977  0.00  0.00    +0.000 C 
ATOM     12  N   UNL     1      43.464   2.520  11.062  0.00  0.00    +0.000 NA
ATOM     13  C   UNL     1      44.343   3.142  10.061  0.00  0.00    +0.000 C 
ATOM     14  H   UNL     1      42.499   2.410  10.753  0.00  0.00    +0.000 HD
ENDBRANCH   9  10
ENDBRANCH   7   9
ENDBRANCH   2   3
BRANCH   2  15
ATOM     15  C   UNL     1      49.557   7.548  12.785  0.00  0.00    +0.000 C 
BRANCH  15  16
ATOM     16  N   UNL     1      49.986   7.570  14.185  0.00  0.00    +0.000 N 
ATOM     17  C   UNL     1      49.369   6.661  15.050  0.00  0.00    +0.000 A 
ATOM     18  C   UNL     1      49.807   6.607  16.371  0.00  0.00    +0.000 A 
ATOM     19  C   UNL     1      49.190   5.733  17.268  0.00  0.00    +0.000 A 
ATOM     20  C   UNL     1      48.143   4.921  16.832  0.00  0.00    +0.000 A 
ATOM     21  C   UNL     1      47.799   5.010  15.496  0.00  0.00    +0.000 A 
ATOM     22  N   UNL     1      48.392   5.847  14.606  0.00  0.00    +0.000 NA
ATOM     23  H   UNL     1      49.948   8.504  14.586  0.00  0.00    +0.000 HD
BRANCH  20  24
ATOM     24  C   UNL     1      47.457   4.032  17.798  0.00  0.00    +0.000 C 
ATOM     25  N   UNL     1      47.809   4.089  19.119  0.00  0.00    +0.000 N 
ATOM     26  O   UNL     1      46.596   3.242  17.429  0.00  0.00    +0.000 OA
ATOM     27  H   UNL     1      48.530   4.668  19.520  0.00  0.00    +0.000 HD
ATOM     28  H   UNL     1      47.339   3.439  19.737  0.00  0.00    +0.000 HD
ENDBRANCH  20  24
ENDBRANCH  15  16
ENDBRANCH   2  15
TORSDOF 6
ENDMDL
MODEL 9
REMARK VINA RESULT:    -6.158      3.821      5.876
REMARK INTER + INTRA:          -9.223
REMARK INTER:                  -8.686
REMARK INTRA:                  -0.536
REMARK UNBOUND:                -0.905
REMARK  Name = 
REMARK  7 active torsions:
REMARK  status: ('A' for Active; 'I' for Inactive)
REMARK    1  A    between atoms: C_1  and  C_2
REMARK    2  A    between atoms: C_2  and  C_3
REMARK    3  A    between atoms: C_2  and  C_14
REMARK    4  A    between atoms: C_3  and  N_4
REMARK    5  A    between atoms: C_8  and  C_9
REMARK    6  A    between atoms: C_18  and  O_19
REMARK    7  A    between atoms: O_19  and  C_20
REMARK                            x       y       z     vdW  Elec       q    Type
REMARK                         _______ _______ _______ _____ _____    ______ ____
ROOT
ATOM      1  C   UNL     1      47.491   4.993  18.283  0.00  0.00    +0.000 C 
ATOM      2  C   UNL     1      48.164   5.533  17.013  0.00  0.00    +0.000 C 
ENDROOT
BRANCH   2   3
ATOM      3  C   UNL     1      49.688   5.471  17.077  0.00  0.00    +0.000 A 
ATOM      4  C   UNL     1      50.439   6.492  16.475  0.00  0.00    +0.000 A 
ATOM      5  C   UNL     1      51.834   6.469  16.505  0.00  0.00    +0.000 A 
ATOM      6  C   UNL     1      52.508   5.422  17.137  0.00  0.00    +0.000 A 
ATOM      7  C   UNL     1      51.779   4.392  17.723  0.00  0.00    +0.000 A 
ATOM      8  C   UNL     1      50.381   4.416  17.690  0.00  0.00    +0.000 A 
BRANCH   7   9
ATOM      9  O   UNL     1      52.323   3.326  18.393  0.00  0.00    +0.000 OA
BRANCH   9  10
ATOM     10  C   UNL     1      52.733   2.158  17.649  0.00  0.00    +0.000 C 
ATOM     11  C   UNL     1      51.812   0.922  17.679  0.00  0.00    +0.000 C 
ATOM     12  N   UNL     1      52.944   0.071  18.080  0.00  0.00    +0.000 NA
ATOM     13  C   UNL     1      53.753   1.261  18.381  0.00  0.00    +0.000 C 
ATOM     14  H   UNL     1      53.321  -0.506  17.328  0.00  0.00    +0.000 HD
ENDBRANCH   9  10
ENDBRANCH   7   9
ENDBRANCH   2   3
BRANCH   2  15
ATOM     15  C   UNL     1      47.623   4.793  15.768  0.00  0.00    +0.000 C 
BRANCH  15  16
ATOM     16  N   UNL     1      47.357   5.720  14.665  0.00  0.00    +0.000 N 
ATOM     17  C   UNL     1      46.557   5.247  13.621  0.00  0.00    +0.000 A 
ATOM     18  C   UNL     1      46.226   6.127  12.594  0.00  0.00    +0.000 A 
ATOM     19  C   UNL     1      45.454   5.677  11.520  0.00  0.00    +0.000 A 
ATOM     20  C   UNL     1      45.022   4.352  11.488  0.00  0.00    +0.000 A 
ATOM     21  C   UNL     1      45.363   3.557  12.567  0.00  0.00    +0.000 A 
ATOM     22  N   UNL     1      46.103   3.978  13.625  0.00  0.00    +0.000 NA
ATOM     23  H   UNL     1      48.210   6.124  14.287  0.00  0.00    +0.000 HD
BRANCH  20  24
ATOM     24  C   UNL     1      44.248   3.864  10.323  0.00  0.00    +0.000 C 
ATOM     25  N   UNL     1      44.290   4.573   9.154  0.00  0.00    +0.000 N 
ATOM     26  O   UNL     1      43.562   2.851  10.399  0.00  0.00    +0.000 OA
ATOM     27  H   UNL     1      44.783   5.438   8.997  0.00  0.00    +0.000 HD
ATOM     28  H   UNL     1      43.718   4.222   8.395  0.00  0.00    +0.000 HD
ENDBRANCH  20  24
ENDBRANCH  15  16
ENDBRANCH   2  15
TORSDOF 6
ENDMDL
