MODEL 1
REMARK VINA RESULT:    -7.085      0.000      0.000
REMARK INTER + INTRA:          -9.380
REMARK INTER:                  -8.948
REMARK INTRA:                  -0.432
REMARK UNBOUND:                -0.432
REMARK  Name = 
REMARK  7 active torsions:
REMARK  status: ('A' for Active; 'I' for Inactive)
REMARK    1  A    between atoms: C_1  and  C_2
REMARK    2  A    between atoms: C_4  and  C_5
REMARK    3  A    between atoms: N_8  and  C_9
REMARK    4  A    between atoms: C_9  and  C_10
REMARK    5  A    between atoms: C_10  and  C_11
REMARK    6  A    between atoms: C_15  and  C_16
REMARK    7  A    between atoms: C_16  and  N_17
REMARK                            x       y       z     vdW  Elec       q    Type
REMARK                         _______ _______ _______ _____ _____    ______ ____
ROOT
ATOM      1  C   UNL     1      44.488   4.773  10.427  0.00  0.00    +0.000 C 
ENDROOT
BRANCH   1   9
ATOM      2  C   UNL     1      47.012   4.411  14.978  0.00  0.00    +0.000 C 
ATOM      3  C   UNL     1      47.101   5.327  13.798  0.00  0.00    +0.000 A 
ATOM      4  C   UNL     1      48.014   6.374  13.738  0.00  0.00    +0.000 A 
ATOM      5  C   UNL     1      48.031   7.180  12.605  0.00  0.00    +0.000 A 
ATOM      6  C   UNL     1      49.008   8.315  12.504  0.00  0.00    +0.000 C 
ATOM      7  N   UNL     1      47.192   6.994  11.551  0.00  0.00    +0.000 NA
ATOM      8  C   UNL     1      46.306   5.979  11.606  0.00  0.00    +0.000 A 
ATOM      9  N   UNL     1      45.482   5.823  10.512  0.00  0.00    +0.000 N 
ATOM     10  C   UNL     1      46.244   5.139  12.713  0.00  0.00    +0.000 A 
ATOM     11  H   UNL     1      45.620   6.504   9.779  0.00  0.00    +0.000 HD
ENDBRANCH   1   9
BRANCH   1  12
ATOM     12  C   UNL     1      44.128   4.419   8.986  0.00  0.00    +0.000 C 
BRANCH  12  13
ATOM     13  C   UNL     1      45.054   3.345   8.453  0.00  0.00    +0.000 A 
ATOM     14  C   UNL     1      45.026   2.052   8.992  0.00  0.00    +0.000 A 
ATOM     15  C   UNL     1      45.892   1.069   8.514  0.00  0.00    +0.000 A 
ATOM     16  C   UNL     1      46.792   1.366   7.489  0.00  0.00    +0.000 A 
ATOM     17  C   UNL     1      46.845   2.654   6.937  0.00  0.00    +0.000 A 
ATOM     18  C   UNL     1      45.980   3.640   7.438  0.00  0.00    +0.000 A 
BRANCH  17  19
ATOM     19  C   UNL     1      47.762   2.951   5.776  0.00  0.00    +0.000 C 
BRANCH  19  20
ATOM     20  N   UNL     1      48.530   1.785   5.357  0.00  0.00    +0.000 NA
ATOM     21  H   UNL     1      48.741   1.872   4.364  0.00  0.00    +0.000 HD
ATOM     22  H   UNL     1      47.947   0.955   5.455  0.00  0.00    +0.000 HD
ENDBRANCH  19  20
ENDBRANCH  17  19
ENDBRANCH  12  13
ENDBRANCH   1  12
TORSDOF 5
ENDMDL
MODEL 2
REMARK VINA RESULT:    -7.075      1.973      6.937
REMARK INTER + INTRA:          -9.368
REMARK INTER:                  -8.915
REMARK INTRA:                  -0.452
REMARK UNBOUND:                -0.432
REMARK  Name = 
REMARK  7 active torsions:
REMARK  status: ('A' for Active; 'I' for Inactive)
REMARK    1  A    between atoms: C_1  and  C_2
REMARK    2  A    between atoms: C_4  and  C_5
REMARK    3  A    between atoms: N_8  and  C_9
REMARK    4  A    between atoms: C_9  and  C_10
REMARK    5  A    between atoms: C_10  and  C_11
REMARK    6  A    between atoms: C_15  and  C_16
REMARK    7  A    between atoms: C_16  and  N_17
REMARK                            x       y       z     vdW  Elec       q    Type
REMARK                         _______ _______ _______ _____ _____    ______ ____
ROOT
ATOM      1  C   UNL     1      43.995   4.257   9.700  0.00  0.00    +0.000 C 
ENDROOT
BRANCH   1   9
ATOM      2  C   UNL     1      47.090   3.751   5.532  0.00  0.00    +0.000 C 
ATOM      3  C   UNL     1      46.617   2.824   6.607  0.00  0.00    +0.000 A 
ATOM      4  C   UNL     1      46.999   1.488   6.657  0.00  0.00    +0.000 A 
ATOM      5  C   UNL     1      46.514   0.693   7.690  0.00  0.00    +0.000 A 
ATOM      6  C   UNL     1      46.910  -0.751   7.777  0.00  0.00    +0.000 C 
ATOM      7  N   UNL     1      45.679   1.162   8.655  0.00  0.00    +0.000 NA
ATOM      8  C   UNL     1      45.309   2.458   8.611  0.00  0.00    +0.000 A 
ATOM      9  N   UNL     1      44.469   2.891   9.614  0.00  0.00    +0.000 N 
ATOM     10  C   UNL     1      45.762   3.302   7.602  0.00  0.00    +0.000 A 
ATOM     11  H   UNL     1      44.204   2.180  10.280  0.00  0.00    +0.000 HD
ENDBRANCH   1   9
BRANCH   1  12
ATOM     12  C   UNL     1      43.648   4.672  11.129  0.00  0.00    +0.000 C 
BRANCH  12  13
ATOM     13  C   UNL     1      44.862   5.248  11.827  0.00  0.00    +0.000 A 
ATOM     14  C   UNL     1      45.487   6.399  11.329  0.00  0.00    +0.000 A 
ATOM     15  C   UNL     1      46.617   6.919  11.961  0.00  0.00    +0.000 A 
ATOM     16  C   UNL     1      47.132   6.296  13.098  0.00  0.00    +0.000 A 
ATOM     17  C   UNL     1      46.530   5.139  13.613  0.00  0.00    +0.000 A 
ATOM     18  C   UNL     1      45.403   4.616  12.959  0.00  0.00    +0.000 A 
BRANCH  17  19
ATOM     19  C   UNL     1      47.039   4.514  14.888  0.00  0.00    +0.000 C 
BRANCH  19  20
ATOM     20  N   UNL     1      47.505   3.146  14.693  0.00  0.00    +0.000 NA
ATOM     21  H   UNL     1      47.193   2.821  13.779  0.00  0.00    +0.000 HD
ATOM     22  H   UNL     1      47.055   2.544  15.381  0.00  0.00    +0.000 HD
ENDBRANCH  19  20
ENDBRANCH  17  19
ENDBRANCH  12  13
ENDBRANCH   1  12
TORSDOF 5
ENDMDL
MODEL 3
REMARK VINA RESULT:    -6.822      1.763      2.541
REMARK INTER + INTRA:          -9.048
REMARK INTER:                  -8.695
REMARK INTRA:                  -0.353
REMARK UNBOUND:                -0.432
REMARK  Name = 
REMARK  7 active torsions:
REMARK  status: ('A' for Active; 'I' for Inactive)
REMARK    1  A    between atoms: C_1  and  C_2
REMARK    2  A    between atoms: C_4  and  C_5
REMARK    3  A    between atoms: N_8  and  C_9
REMARK    4  A    between atoms: C_9  and  C_10
REMARK    5  A    between atoms: C_10  and  C_11
REMARK    6  A    between atoms: C_15  and  C_16
REMARK    7  A    between atoms: C_16  and  N_17
REMARK                            x       y       z     vdW  Elec       q    Type
REMARK                         _______ _______ _______ _____ _____    ______ ____
ROOT
ATOM      1  C   UNL     1      44.529   3.845  12.181  0.00  0.00    +0.000 C 
ENDROOT
BRANCH   1   9
ATOM      2  C   UNL     1      48.811   6.799  12.554  0.00  0.00    +0.000 C 
ATOM      3  C   UNL     1      47.347   7.084  12.438  0.00  0.00    +0.000 A 
ATOM      4  C   UNL     1      46.842   8.378  12.406  0.00  0.00    +0.000 A 
ATOM      5  C   UNL     1      45.467   8.556  12.298  0.00  0.00    +0.000 A 
ATOM      6  C   UNL     1      44.888   9.940  12.254  0.00  0.00    +0.000 C 
ATOM      7  N   UNL     1      44.590   7.519  12.224  0.00  0.00    +0.000 NA
ATOM      8  C   UNL     1      45.077   6.262  12.254  0.00  0.00    +0.000 A 
ATOM      9  N   UNL     1      44.153   5.243  12.169  0.00  0.00    +0.000 N 
ATOM     10  C   UNL     1      46.444   6.023  12.361  0.00  0.00    +0.000 A 
ATOM     11  H   UNL     1      43.192   5.549  12.105  0.00  0.00    +0.000 HD
ENDBRANCH   1   9
BRANCH   1  12
ATOM     12  C   UNL     1      43.921   3.061  11.020  0.00  0.00    +0.000 C 
BRANCH  12  13
ATOM     13  C   UNL     1      44.782   3.189   9.780  0.00  0.00    +0.000 A 
ATOM     14  C   UNL     1      44.982   4.440   9.181  0.00  0.00    +0.000 A 
ATOM     15  C   UNL     1      45.759   4.555   8.028  0.00  0.00    +0.000 A 
ATOM     16  C   UNL     1      46.347   3.421   7.465  0.00  0.00    +0.000 A 
ATOM     17  C   UNL     1      46.156   2.157   8.040  0.00  0.00    +0.000 A 
ATOM     18  C   UNL     1      45.359   2.052   9.191  0.00  0.00    +0.000 A 
BRANCH  17  19
ATOM     19  C   UNL     1      46.858   0.946   7.476  0.00  0.00    +0.000 C 
BRANCH  19  20
ATOM     20  N   UNL     1      47.986   1.300   6.623  0.00  0.00    +0.000 NA
ATOM     21  H   UNL     1      48.786   1.522   7.213  0.00  0.00    +0.000 HD
ATOM     22  H   UNL     1      47.759   2.154   6.115  0.00  0.00    +0.000 HD
ENDBRANCH  19  20
ENDBRANCH  17  19
ENDBRANCH  12  13
ENDBRANCH   1  12
TORSDOF 5
ENDMDL
MODEL 4
REMARK VINA RESULT:    -6.783      1.372      1.998
REMARK INTER + INTRA:          -8.999
REMARK INTER:                  -8.677
REMARK INTRA:                  -0.321
REMARK UNBOUND:                -0.432
REMARK  Name = 
REMARK  7 active torsions:
REMARK  status: ('A' for Active; 'I' for Inactive)
REMARK    1  A    between atoms: C_1  and  C_2
REMARK    2  A    between atoms: C_4  and  C_5
REMARK    3  A    between atoms: N_8  and  C_9
REMARK    4  A    between atoms: C_9  and  C_10
REMARK    5  A    between atoms: C_10  and  C_11
REMARK    6  A    between atoms: C_15  and  C_16
REMARK    7  A    between atoms: C_16  and  N_17
REMARK                            x       y       z     vdW  Elec       q    Type
REMARK                         _______ _______ _______ _____ _____    ______ ____
ROOT
ATOM      1  C   UNL     1      44.070   4.565  10.744  0.00  0.00    +0.000 C 
ENDROOT
BRANCH   1   9
ATOM      2  C   UNL     1      44.844   9.533  12.133  0.00  0.00    +0.000 C 
ATOM      3  C   UNL     1      45.581   8.251  12.364  0.00  0.00    +0.000 A 
ATOM      4  C   UNL     1      46.759   8.194  13.100  0.00  0.00    +0.000 A 
ATOM      5  C   UNL     1      47.382   6.962  13.267  0.00  0.00    +0.000 A 
ATOM      6  C   UNL     1      48.652   6.864  14.061  0.00  0.00    +0.000 C 
ATOM      7  N   UNL     1      46.893   5.808  12.742  0.00  0.00    +0.000 NA
ATOM      8  C   UNL     1      45.750   5.860  12.029  0.00  0.00    +0.000 A 
ATOM      9  N   UNL     1      45.287   4.664  11.522  0.00  0.00    +0.000 N 
ATOM     10  C   UNL     1      45.081   7.064  11.828  0.00  0.00    +0.000 A 
ATOM     11  H   UNL     1      45.868   3.865  11.730  0.00  0.00    +0.000 HD
ENDBRANCH   1   9
BRANCH   1  12
ATOM     12  C   UNL     1      44.310   4.754   9.248  0.00  0.00    +0.000 C 
BRANCH  12  13
ATOM     13  C   UNL     1      45.075   3.579   8.677  0.00  0.00    +0.000 A 
ATOM     14  C   UNL     1      44.831   2.280   9.141  0.00  0.00    +0.000 A 
ATOM     15  C   UNL     1      45.551   1.199   8.629  0.00  0.00    +0.000 A 
ATOM     16  C   UNL     1      46.518   1.406   7.645  0.00  0.00    +0.000 A 
ATOM     17  C   UNL     1      46.788   2.697   7.168  0.00  0.00    +0.000 A 
ATOM     18  C   UNL     1      46.068   3.778   7.703  0.00  0.00    +0.000 A 
BRANCH  17  19
ATOM     19  C   UNL     1      47.776   2.909   6.049  0.00  0.00    +0.000 C 
BRANCH  19  20
ATOM     20  N   UNL     1      48.518   1.697   5.722  0.00  0.00    +0.000 NA
ATOM     21  H   UNL     1      48.125   1.291   4.874  0.00  0.00    +0.000 HD
ATOM     22  H   UNL     1      48.372   1.012   6.462  0.00  0.00    +0.000 HD
ENDBRANCH  19  20
ENDBRANCH  17  19
ENDBRANCH  12  13
ENDBRANCH   1  12
TORSDOF 5
ENDMDL
MODEL 5
REMARK VINA RESULT:    -6.325      4.126      8.289
REMARK INTER + INTRA:          -8.420
REMARK INTER:                  -8.148
REMARK INTRA:                  -0.272
REMARK UNBOUND:                -0.432
REMARK  Name = 
REMARK  7 active torsions:
REMARK  status: ('A' for Active; 'I' for Inactive)
REMARK    1  A    between atoms: C_1  and  C_2
REMARK    2  A    between atoms: C_4  and  C_5
REMARK    3  A    between atoms: N_8  and  C_9
REMARK    4  A    between atoms: C_9  and  C_10
REMARK    5  A    between atoms: C_10  and  C_11
REMARK    6  A    between atoms: C_15  and  C_16
REMARK    7  A    between atoms: C_16  and  N_17
REMARK                            x       y       z     vdW  Elec       q    Type
REMARK                         _______ _______ _______ _____ _____    ______ ____
ROOT
ATOM      1  C   UNL     1      47.355   4.284  15.478  0.00  0.00    +0.000 C 
ENDROOT
BRANCH   1   9
ATOM      2  C   UNL     1      45.269   7.633  12.066  0.00  0.00    +0.000 C 
ATOM      3  C   UNL     1      45.349   6.142  12.158  0.00  0.00    +0.000 A 
ATOM      4  C   UNL     1      44.794   5.308  11.195  0.00  0.00    +0.000 A 
ATOM      5  C   UNL     1      44.912   3.931  11.356  0.00  0.00    +0.000 A 
ATOM      6  C   UNL     1      44.330   3.002  10.331  0.00  0.00    +0.000 C 
ATOM      7  N   UNL     1      45.544   3.362  12.416  0.00  0.00    +0.000 NA
ATOM      8  C   UNL     1      46.084   4.168  13.352  0.00  0.00    +0.000 A 
ATOM      9  N   UNL     1      46.722   3.547  14.404  0.00  0.00    +0.000 N 
ATOM     10  C   UNL     1      45.999   5.553  13.244  0.00  0.00    +0.000 A 
ATOM     11  H   UNL     1      46.706   2.538  14.371  0.00  0.00    +0.000 HD
ENDBRANCH   1   9
BRANCH   1  12
ATOM     12  C   UNL     1      47.648   3.412  16.697  0.00  0.00    +0.000 C 
BRANCH  12  13
ATOM     13  C   UNL     1      49.106   3.520  17.093  0.00  0.00    +0.000 A 
ATOM     14  C   UNL     1      49.653   4.758  17.456  0.00  0.00    +0.000 A 
ATOM     15  C   UNL     1      51.001   4.861  17.801  0.00  0.00    +0.000 A 
ATOM     16  C   UNL     1      51.814   3.728  17.792  0.00  0.00    +0.000 A 
ATOM     17  C   UNL     1      51.294   2.478  17.427  0.00  0.00    +0.000 A 
ATOM     18  C   UNL     1      49.939   2.390  17.065  0.00  0.00    +0.000 A 
BRANCH  17  19
ATOM     19  C   UNL     1      52.154   1.241  17.495  0.00  0.00    +0.000 C 
BRANCH  19  20
ATOM     20  N   UNL     1      51.489   0.133  18.171  0.00  0.00    +0.000 NA
ATOM     21  H   UNL     1      52.137  -0.649  18.234  0.00  0.00    +0.000 HD
ATOM     22  H   UNL     1      50.711  -0.184  17.595  0.00  0.00    +0.000 HD
ENDBRANCH  19  20
ENDBRANCH  17  19
ENDBRANCH  12  13
ENDBRANCH   1  12
TORSDOF 5
ENDMDL
MODEL 6
REMARK VINA RESULT:    -6.281      1.796      3.163
REMARK INTER + INTRA:          -8.365
REMARK INTER:                  -8.137
REMARK INTRA:                  -0.228
REMARK UNBOUND:                -0.432
REMARK  Name = 
REMARK  7 active torsions:
REMARK  status: ('A' for Active; 'I' for Inactive)
REMARK    1  A    between atoms: C_1  and  C_2
REMARK    2  A    between atoms: C_4  and  C_5
REMARK    3  A    between atoms: N_8  and  C_9
REMARK    4  A    between atoms: C_9  and  C_10
REMARK    5  A    between atoms: C_10  and  C_11
REMARK    6  A    between atoms: C_15  and  C_16
REMARK    7  A    between atoms: C_16  and  N_17
REMARK                            x       y       z     vdW  Elec       q    Type
REMARK                         _______ _______ _______ _____ _____    ______ ____
ROOT
ATOM      1  C   UNL     1      46.436   6.093  11.784  0.00  0.00    +0.000 C 
ENDROOT
BRANCH   1   9
ATOM      2  C   UNL     1      49.666   7.474  15.640  0.00  0.00    +0.000 C 
ATOM      3  C   UNL     1      48.676   6.369  15.445  0.00  0.00    +0.000 A 
ATOM      4  C   UNL     1      48.438   5.405  16.418  0.00  0.00    +0.000 A 
ATOM      5  C   UNL     1      47.502   4.411  16.157  0.00  0.00    +0.000 A 
ATOM      6  C   UNL     1      47.216   3.358  17.188  0.00  0.00    +0.000 C 
ATOM      7  N   UNL     1      46.808   4.335  14.991  0.00  0.00    +0.000 NA
ATOM      8  C   UNL     1      47.035   5.270  14.045  0.00  0.00    +0.000 A 
ATOM      9  N   UNL     1      46.303   5.158  12.883  0.00  0.00    +0.000 N 
ATOM     10  C   UNL     1      47.960   6.289  14.250  0.00  0.00    +0.000 A 
ATOM     11  H   UNL     1      45.673   4.369  12.854  0.00  0.00    +0.000 HD
ENDBRANCH   1   9
BRANCH   1  12
ATOM     12  C   UNL     1      45.211   6.107  10.872  0.00  0.00    +0.000 C 
BRANCH  12  13
ATOM     13  C   UNL     1      45.147   4.841  10.044  0.00  0.00    +0.000 A 
ATOM     14  C   UNL     1      44.401   3.740  10.486  0.00  0.00    +0.000 A 
ATOM     15  C   UNL     1      44.358   2.566   9.733  0.00  0.00    +0.000 A 
ATOM     16  C   UNL     1      45.057   2.483   8.528  0.00  0.00    +0.000 A 
ATOM     17  C   UNL     1      45.816   3.567   8.065  0.00  0.00    +0.000 A 
ATOM     18  C   UNL     1      45.865   4.737   8.841  0.00  0.00    +0.000 A 
BRANCH  17  19
ATOM     19  C   UNL     1      46.505   3.503   6.725  0.00  0.00    +0.000 C 
BRANCH  19  20
ATOM     20  N   UNL     1      47.404   2.361   6.612  0.00  0.00    +0.000 NA
ATOM     21  H   UNL     1      48.163   2.603   5.977  0.00  0.00    +0.000 HD
ATOM     22  H   UNL     1      46.902   1.588   6.178  0.00  0.00    +0.000 HD
ENDBRANCH  19  20
ENDBRANCH  17  19
ENDBRANCH  12  13
ENDBRANCH   1  12
TORSDOF 5
ENDMDL
MODEL 7
REMARK VINA RESULT:    -6.145      1.674      6.644
REMARK INTER + INTRA:          -8.193
REMARK INTER:                  -7.699
REMARK INTRA:                  -0.494
REMARK UNBOUND:                -0.432
REMARK  Name = 
REMARK  7 active torsions:
REMARK  status: ('A' for Active; 'I' for Inactive)
REMARK    1  A    between atoms: C_1  and  C_2
REMARK    2  A    between atoms: C_4  and  C_5
REMARK    3  A    between atoms: N_8  and  C_9
REMARK    4  A    between atoms: C_9  and  C_10
REMARK    5  A    between atoms: C_10  and  C_11
REMARK    6  A    between atoms: C_15  and  C_16
REMARK    7  A    between atoms: C_16  and  N_17
REMARK                            x       y       z     vdW  Elec       q    Type
REMARK                         _______ _______ _______ _____ _____    ______ ____
ROOT
ATOM      1  C   UNL     1      43.992   4.037  10.038  0.00  0.00    +0.000 C 
ENDROOT
BRANCH   1   9
ATOM      2  C   UNL     1      47.157   3.881   5.894  0.00  0.00    +0.000 C 
ATOM      3  C   UNL     1      46.650   2.863   6.867  0.00  0.00    +0.000 A 
ATOM      4  C   UNL     1      47.011   1.523   6.795  0.00  0.00    +0.000 A 
ATOM      5  C   UNL     1      46.495   0.641   7.738  0.00  0.00    +0.000 A 
ATOM      6  C   UNL     1      46.868  -0.812   7.693  0.00  0.00    +0.000 C 
ATOM      7  N   UNL     1      45.650   1.029   8.730  0.00  0.00    +0.000 NA
ATOM      8  C   UNL     1      45.299   2.329   8.804  0.00  0.00    +0.000 A 
ATOM      9  N   UNL     1      44.447   2.678   9.829  0.00  0.00    +0.000 N 
ATOM     10  C   UNL     1      45.784   3.257   7.888  0.00  0.00    +0.000 A 
ATOM     11  H   UNL     1      44.160   1.910  10.419  0.00  0.00    +0.000 HD
ENDBRANCH   1   9
BRANCH   1  12
ATOM     12  C   UNL     1      43.747   4.357  11.511  0.00  0.00    +0.000 C 
BRANCH  12  13
ATOM     13  C   UNL     1      45.027   4.813  12.179  0.00  0.00    +0.000 A 
ATOM     14  C   UNL     1      45.591   4.062  13.218  0.00  0.00    +0.000 A 
ATOM     15  C   UNL     1      46.760   4.493  13.847  0.00  0.00    +0.000 A 
ATOM     16  C   UNL     1      47.378   5.676  13.440  0.00  0.00    +0.000 A 
ATOM     17  C   UNL     1      46.830   6.450  12.407  0.00  0.00    +0.000 A 
ATOM     18  C   UNL     1      45.645   6.014  11.793  0.00  0.00    +0.000 A 
BRANCH  17  19
ATOM     19  C   UNL     1      47.543   7.685  11.916  0.00  0.00    +0.000 C 
BRANCH  19  20
ATOM     20  N   UNL     1      48.962   7.452  11.673  0.00  0.00    +0.000 NA
ATOM     21  H   UNL     1      49.405   7.185  12.551  0.00  0.00    +0.000 HD
ATOM     22  H   UNL     1      49.395   8.329  11.389  0.00  0.00    +0.000 HD
ENDBRANCH  19  20
ENDBRANCH  17  19
ENDBRANCH  12  13
ENDBRANCH   1  12
TORSDOF 5
ENDMDL
MODEL 8
REMARK VINA RESULT:    -5.958      2.323      3.614
REMARK INTER + INTRA:          -7.957
REMARK INTER:                  -7.642
REMARK INTRA:                  -0.315
REMARK UNBOUND:                -0.432
REMARK  Name = 
REMARK  7 active torsions:
REMARK  status: ('A' for Active; 'I' for Inactive)
REMARK    1  A    between atoms: C_1  and  C_2
REMARK    2  A    between atoms: C_4  and  C_5
REMARK    3  A    between atoms: N_8  and  C_9
REMARK    4  A    between atoms: C_9  and  C_10
REMARK    5  A    between atoms: C_10  and  C_11
REMARK    6  A    between atoms: C_15  and  C_16
REMARK    7  A    between atoms: C_16  and  N_17
REMARK                            x       y       z     vdW  Elec       q    Type
REMARK                         _______ _______ _______ _____ _____    ______ ____
ROOT
ATOM      1  C   UNL     1      46.079   5.816  13.271  0.00  0.00    +0.000 C 
ENDROOT
BRANCH   1   9
ATOM      2  C   UNL     1      47.297   2.909  17.427  0.00  0.00    +0.000 C 
ATOM      3  C   UNL     1      47.926   4.084  16.747  0.00  0.00    +0.000 A 
ATOM      4  C   UNL     1      49.111   4.655  17.196  0.00  0.00    +0.000 A 
ATOM      5  C   UNL     1      49.630   5.746  16.507  0.00  0.00    +0.000 A 
ATOM      6  C   UNL     1      50.910   6.383  16.961  0.00  0.00    +0.000 C 
ATOM      7  N   UNL     1      49.028   6.285  15.414  0.00  0.00    +0.000 NA
ATOM      8  C   UNL     1      47.878   5.733  14.975  0.00  0.00    +0.000 A 
ATOM      9  N   UNL     1      47.308   6.307  13.859  0.00  0.00    +0.000 N 
ATOM     10  C   UNL     1      47.313   4.639  15.623  0.00  0.00    +0.000 A 
ATOM     11  H   UNL     1      47.811   7.100  13.489  0.00  0.00    +0.000 HD
ENDBRANCH   1   9
BRANCH   1  12
ATOM     12  C   UNL     1      45.953   6.168  11.790  0.00  0.00    +0.000 C 
BRANCH  12  13
ATOM     13  C   UNL     1      45.358   5.011  11.015  0.00  0.00    +0.000 A 
ATOM     14  C   UNL     1      44.466   4.126  11.634  0.00  0.00    +0.000 A 
ATOM     15  C   UNL     1      43.934   3.048  10.926  0.00  0.00    +0.000 A 
ATOM     16  C   UNL     1      44.283   2.848   9.590  0.00  0.00    +0.000 A 
ATOM     17  C   UNL     1      45.179   3.715   8.948  0.00  0.00    +0.000 A 
ATOM     18  C   UNL     1      45.721   4.786   9.677  0.00  0.00    +0.000 A 
BRANCH  17  19
ATOM     19  C   UNL     1      45.494   3.543   7.482  0.00  0.00    +0.000 C 
BRANCH  19  20
ATOM     20  N   UNL     1      46.715   4.234   7.088  0.00  0.00    +0.000 NA
ATOM     21  H   UNL     1      47.050   3.834   6.213  0.00  0.00    +0.000 HD
ATOM     22  H   UNL     1      47.437   4.050   7.783  0.00  0.00    +0.000 HD
ENDBRANCH  19  20
ENDBRANCH  17  19
ENDBRANCH  12  13
ENDBRANCH   1  12
TORSDOF 5
ENDMDL
MODEL 9
REMARK VINA RESULT:    -5.718      1.946      3.676
REMARK INTER + INTRA:          -7.654
REMARK INTER:                  -7.249
REMARK INTRA:                  -0.405
REMARK UNBOUND:                -0.432
REMARK  Name = 
REMARK  7 active torsions:
REMARK  status: ('A' for Active; 'I' for Inactive)
REMARK    1  A    between atoms: C_1  and  C_2
REMARK    2  A    between atoms: C_4  and  C_5
REMARK    3  A    between atoms: N_8  and  C_9
REMARK    4  A    between atoms: C_9  and  C_10
REMARK    5  A    between atoms: C_10  and  C_11
REMARK    6  A    between atoms: C_15  and  C_16
REMARK    7  A    between atoms: C_16  and  N_17
REMARK                            x       y       z     vdW  Elec       q    Type
REMARK                         _______ _______ _______ _____ _____    ______ ____
ROOT
ATOM      1  C   UNL     1      45.895   6.602  12.581  0.00  0.00    +0.000 C 
ENDROOT
BRANCH   1   9
ATOM      2  C   UNL     1      47.969  11.348  11.957  0.00  0.00    +0.000 C 
ATOM      3  C   UNL     1      48.492   9.950  11.844  0.00  0.00    +0.000 A 
ATOM      4  C   UNL     1      49.812   9.677  11.506  0.00  0.00    +0.000 A 
ATOM      5  C   UNL     1      50.218   8.350  11.421  0.00  0.00    +0.000 A 
ATOM      6  C   UNL     1      51.638   8.019  11.064  0.00  0.00    +0.000 C 
ATOM      7  N   UNL     1      49.381   7.304  11.650  0.00  0.00    +0.000 NA
ATOM      8  C   UNL     1      48.099   7.565  11.980  0.00  0.00    +0.000 A 
ATOM      9  N   UNL     1      47.290   6.475  12.212  0.00  0.00    +0.000 N 
ATOM     10  C   UNL     1      47.636   8.874  12.081  0.00  0.00    +0.000 A 
ATOM     11  H   UNL     1      47.743   5.580  12.096  0.00  0.00    +0.000 HD
ENDBRANCH   1   9
BRANCH   1  12
ATOM     12  C   UNL     1      44.970   6.678  11.369  0.00  0.00    +0.000 C 
BRANCH  12  13
ATOM     13  C   UNL     1      44.785   5.308  10.751  0.00  0.00    +0.000 A 
ATOM     14  C   UNL     1      44.097   4.304  11.444  0.00  0.00    +0.000 A 
ATOM     15  C   UNL     1      43.944   3.036  10.883  0.00  0.00    +0.000 A 
ATOM     16  C   UNL     1      44.473   2.760   9.622  0.00  0.00    +0.000 A 
ATOM     17  C   UNL     1      45.172   3.745   8.909  0.00  0.00    +0.000 A 
ATOM     18  C   UNL     1      45.333   5.013   9.491  0.00  0.00    +0.000 A 
BRANCH  17  19
ATOM     19  C   UNL     1      45.673   3.469   7.513  0.00  0.00    +0.000 C 
BRANCH  19  20
ATOM     20  N   UNL     1      46.854   4.255   7.178  0.00  0.00    +0.000 NA
ATOM     21  H   UNL     1      47.406   4.394   8.023  0.00  0.00    +0.000 HD
ATOM     22  H   UNL     1      46.557   5.181   6.874  0.00  0.00    +0.000 HD
ENDBRANCH  19  20
ENDBRANCH  17  19
ENDBRANCH  12  13
ENDBRANCH   1  12
TORSDOF 5
ENDMDL
