MODEL 1
REMARK VINA RESULT:    -8.369      0.000      0.000
REMARK INTER + INTRA:         -12.906
REMARK INTER:                 -11.793
REMARK INTRA:                  -1.113
REMARK UNBOUND:                -1.113
REMARK  Name = 
REMARK  7 active torsions:
REMARK  status: ('A' for Active; 'I' for Inactive)
REMARK    1  A    between atoms: C_2  and  C_20
REMARK    2  A    between atoms: N_3  and  C_4
REMARK    3  A    between atoms: C_4  and  C_5
REMARK    4  A    between atoms: C_8  and  N_9
REMARK    5  A    between atoms: N_9  and  C_10
REMARK    6  A    between atoms: C_10  and  C_11
REMARK    7  A    between atoms: C_11  and  C_12
REMARK                            x       y       z     vdW  Elec       q    Type
REMARK                         _______ _______ _______ _____ _____    ______ ____
ROOT
ATOM      1  C   UNL     1      46.208   6.047  12.246  0.00  0.00    +0.000 A 
ATOM      2  C   UNL     1      45.840   6.114  10.897  0.00  0.00    +0.000 A 
ATOM      3  C   UNL     1      45.131   5.065  10.309  0.00  0.00    +0.000 A 
ATOM      4  C   UNL     1      44.803   3.920  11.045  0.00  0.00    +0.000 A 
ATOM      5  C   UNL     1      45.072   3.911  12.415  0.00  0.00    +0.000 A 
ATOM      6  C   UNL     1      45.778   4.958  13.012  0.00  0.00    +0.000 A 
ENDROOT
BRANCH   4   7
ATOM      7  N   UNL     1      44.142   2.807  10.501  0.00  0.00    +0.000 N 
ATOM      8  H   UNL     1      43.148   2.872  10.718  0.00  0.00    +0.000 HD
BRANCH   7   9
ATOM      9  C   UNL     1      44.360   2.531   9.075  0.00  0.00    +0.000 C 
BRANCH   9  10
ATOM     10  C   UNL     1      45.569   1.611   8.856  0.00  0.00    +0.000 C 
BRANCH  10  11
ATOM     11  C   UNL     1      46.355   1.989   7.637  0.00  0.00    +0.000 A 
ATOM     12  C   UNL     1      46.031   3.127   6.889  0.00  0.00    +0.000 A 
ATOM     13  C   UNL     1      46.778   3.434   5.761  0.00  0.00    +0.000 A 
ATOM     14  C   UNL     1      47.838   2.612   5.420  0.00  0.00    +0.000 A 
ATOM     15  N   UNL     1      48.173   1.498   6.107  0.00  0.00    +0.000 NA
ATOM     16  C   UNL     1      47.418   1.210   7.191  0.00  0.00    +0.000 A 
ENDBRANCH  10  11
ENDBRANCH   9  10
ENDBRANCH   7   9
ENDBRANCH   4   7
BRANCH   1  17
ATOM     17  C   UNL     1      46.994   7.154  12.889  0.00  0.00    +0.000 C 
BRANCH  17  20
ATOM     18  O   UNL     1      49.566   6.797  13.911  0.00  0.00    +0.000 OA
ATOM     19  C   UNL     1      48.612   6.713  14.674  0.00  0.00    +0.000 C 
ATOM     20  N   UNL     1      47.312   6.810  14.247  0.00  0.00    +0.000 N 
ATOM     21  H   UNL     1      46.556   6.607  14.882  0.00  0.00    +0.000 HD
BRANCH  19  22
ATOM     22  C   UNL     1      48.754   6.520  16.114  0.00  0.00    +0.000 A 
ATOM     23  C   UNL     1      49.485   7.318  16.984  0.00  0.00    +0.000 A 
ATOM     24  N   UNL     1      49.258   6.834  18.241  0.00  0.00    +0.000 N 
ATOM     25  C   UNL     1      48.913   5.512  18.137  0.00  0.00    +0.000 A 
ATOM     26  C   UNL     1      49.046   4.443  19.025  0.00  0.00    +0.000 A 
ATOM     27  C   UNL     1      48.439   3.241  18.652  0.00  0.00    +0.000 A 
ATOM     28  C   UNL     1      47.633   3.166  17.516  0.00  0.00    +0.000 A 
ATOM     29  C   UNL     1      47.545   4.244  16.626  0.00  0.00    +0.000 A 
ATOM     30  C   UNL     1      48.308   5.397  16.887  0.00  0.00    +0.000 A 
ATOM     31  H   UNL     1      49.370   7.344  19.107  0.00  0.00    +0.000 HD
ENDBRANCH  19  22
ENDBRANCH  17  20
ENDBRANCH   1  17
TORSDOF 7
ENDMDL
MODEL 2
REMARK VINA RESULT:    -8.264      1.612      2.420
REMARK INTER + INTRA:         -12.758
REMARK INTER:                 -11.860
REMARK INTRA:                  -0.898
REMARK UNBOUND:                -1.113
REMARK  Name = 
REMARK  7 active torsions:
REMARK  status: ('A' for Active; 'I' for Inactive)
REMARK    1  A    between atoms: C_2  and  C_20
REMARK    2  A    between atoms: N_3  and  C_4
REMARK    3  A    between atoms: C_4  and  C_5
REMARK    4  A    between atoms: C_8  and  N_9
REMARK    5  A    between atoms: N_9  and  C_10
REMARK    6  A    between atoms: C_10  and  C_11
REMARK    7  A    between atoms: C_11  and  C_12
REMARK                            x       y       z     vdW  Elec       q    Type
REMARK                         _______ _______ _______ _____ _____    ______ ____
ROOT
ATOM      1  C   UNL     1      46.902   5.691  13.108  0.00  0.00    +0.000 A 
ATOM      2  C   UNL     1      46.422   4.419  13.440  0.00  0.00    +0.000 A 
ATOM      3  C   UNL     1      45.480   3.788  12.625  0.00  0.00    +0.000 A 
ATOM      4  C   UNL     1      44.979   4.425  11.484  0.00  0.00    +0.000 A 
ATOM      5  C   UNL     1      45.546   5.641  11.098  0.00  0.00    +0.000 A 
ATOM      6  C   UNL     1      46.491   6.277  11.906  0.00  0.00    +0.000 A 
ENDROOT
BRANCH   4   7
ATOM      7  N   UNL     1      43.991   3.871  10.653  0.00  0.00    +0.000 N 
ATOM      8  H   UNL     1      43.158   4.458  10.691  0.00  0.00    +0.000 HD
BRANCH   7   9
ATOM      9  C   UNL     1      44.372   3.575   9.267  0.00  0.00    +0.000 C 
BRANCH   9  10
ATOM     10  C   UNL     1      45.202   2.285   9.172  0.00  0.00    +0.000 C 
BRANCH  10  11
ATOM     11  C   UNL     1      46.088   2.270   7.963  0.00  0.00    +0.000 A 
ATOM     12  C   UNL     1      46.103   3.340   7.061  0.00  0.00    +0.000 A 
ATOM     13  C   UNL     1      46.930   3.279   5.949  0.00  0.00    +0.000 A 
ATOM     14  C   UNL     1      47.732   2.164   5.776  0.00  0.00    +0.000 A 
ATOM     15  N   UNL     1      47.736   1.106   6.616  0.00  0.00    +0.000 NA
ATOM     16  C   UNL     1      46.908   1.182   7.682  0.00  0.00    +0.000 A 
ENDBRANCH  10  11
ENDBRANCH   9  10
ENDBRANCH   7   9
ENDBRANCH   4   7
BRANCH   1  17
ATOM     17  C   UNL     1      47.895   6.397  13.987  0.00  0.00    +0.000 C 
BRANCH  17  20
ATOM     18  O   UNL     1      49.999   6.287  15.817  0.00  0.00    +0.000 OA
ATOM     19  C   UNL     1      48.882   5.940  16.181  0.00  0.00    +0.000 C 
ATOM     20  N   UNL     1      47.806   5.901  15.331  0.00  0.00    +0.000 N 
ATOM     21  H   UNL     1      46.938   5.488  15.636  0.00  0.00    +0.000 HD
BRANCH  19  22
ATOM     22  C   UNL     1      48.573   5.551  17.554  0.00  0.00    +0.000 A 
ATOM     23  C   UNL     1      48.124   4.307  17.977  0.00  0.00    +0.000 A 
ATOM     24  N   UNL     1      48.062   4.358  19.340  0.00  0.00    +0.000 N 
ATOM     25  C   UNL     1      47.902   5.666  19.715  0.00  0.00    +0.000 A 
ATOM     26  C   UNL     1      47.319   6.246  20.843  0.00  0.00    +0.000 A 
ATOM     27  C   UNL     1      47.466   7.629  20.982  0.00  0.00    +0.000 A 
ATOM     28  C   UNL     1      48.271   8.356  20.105  0.00  0.00    +0.000 A 
ATOM     29  C   UNL     1      48.816   7.755  18.964  0.00  0.00    +0.000 A 
ATOM     30  C   UNL     1      48.514   6.405  18.705  0.00  0.00    +0.000 A 
ATOM     31  H   UNL     1      48.081   3.566  19.969  0.00  0.00    +0.000 HD
ENDBRANCH  19  22
ENDBRANCH  17  20
ENDBRANCH   1  17
TORSDOF 7
ENDMDL
MODEL 3
REMARK VINA RESULT:    -8.194      1.069      1.077
REMARK INTER + INTRA:         -12.660
REMARK INTER:                 -11.477
REMARK INTRA:                  -1.182
REMARK UNBOUND:                -1.113
REMARK  Name = 
REMARK  7 active torsions:
REMARK  status: ('A' for Active; 'I' for Inactive)
REMARK    1  A    between atoms: C_2  and  C_20
REMARK    2  A    between atoms: N_3  and  C_4
REMARK    3  A    between atoms: C_4  and  C_5
REMARK    4  A    between atoms: C_8  and  N_9
REMARK    5  A    between atoms: N_9  and  C_10
REMARK    6  A    between atoms: C_10  and  C_11
REMARK    7  A    between atoms: C_11  and  C_12
REMARK                            x       y       z     vdW  Elec       q    Type
REMARK                         _______ _______ _______ _____ _____    ______ ____
ROOT
ATOM      1  C   UNL     1      46.747   6.376  12.428  0.00  0.00    +0.000 A 
ATOM      2  C   UNL     1      46.089   6.625  11.218  0.00  0.00    +0.000 A 
ATOM      3  C   UNL     1      45.195   5.687  10.698  0.00  0.00    +0.000 A 
ATOM      4  C   UNL     1      44.965   4.474  11.357  0.00  0.00    +0.000 A 
ATOM      5  C   UNL     1      45.536   4.284  12.617  0.00  0.00    +0.000 A 
ATOM      6  C   UNL     1      46.428   5.218  13.146  0.00  0.00    +0.000 A 
ENDROOT
BRANCH   4   7
ATOM      7  N   UNL     1      44.123   3.465  10.861  0.00  0.00    +0.000 N 
ATOM      8  H   UNL     1      43.160   3.683  11.113  0.00  0.00    +0.000 HD
BRANCH   7   9
ATOM      9  C   UNL     1      44.241   3.138   9.435  0.00  0.00    +0.000 C 
BRANCH   9  10
ATOM     10  C   UNL     1      45.154   1.924   9.207  0.00  0.00    +0.000 C 
BRANCH  10  11
ATOM     11  C   UNL     1      46.037   2.098   8.008  0.00  0.00    +0.000 A 
ATOM     12  C   UNL     1      45.991   3.264   7.235  0.00  0.00    +0.000 A 
ATOM     13  C   UNL     1      46.818   3.378   6.127  0.00  0.00    +0.000 A 
ATOM     14  C   UNL     1      47.680   2.337   5.830  0.00  0.00    +0.000 A 
ATOM     15  N   UNL     1      47.744   1.191   6.542  0.00  0.00    +0.000 NA
ATOM     16  C   UNL     1      46.916   1.097   7.606  0.00  0.00    +0.000 A 
ENDBRANCH  10  11
ENDBRANCH   9  10
ENDBRANCH   7   9
ENDBRANCH   4   7
BRANCH   1  17
ATOM     17  C   UNL     1      47.732   7.361  12.990  0.00  0.00    +0.000 C 
BRANCH  17  20
ATOM     18  O   UNL     1      48.306   8.477  15.482  0.00  0.00    +0.000 OA
ATOM     19  C   UNL     1      48.699   7.343  15.240  0.00  0.00    +0.000 C 
ATOM     20  N   UNL     1      48.518   6.742  14.020  0.00  0.00    +0.000 N 
ATOM     21  H   UNL     1      48.968   5.862  13.820  0.00  0.00    +0.000 HD
BRANCH  19  22
ATOM     22  C   UNL     1      49.381   6.506  16.222  0.00  0.00    +0.000 A 
ATOM     23  C   UNL     1      50.645   6.723  16.754  0.00  0.00    +0.000 A 
ATOM     24  N   UNL     1      50.840   5.758  17.702  0.00  0.00    +0.000 N 
ATOM     25  C   UNL     1      50.051   4.683  17.388  0.00  0.00    +0.000 A 
ATOM     26  C   UNL     1      50.181   3.321  17.668  0.00  0.00    +0.000 A 
ATOM     27  C   UNL     1      49.099   2.506  17.326  0.00  0.00    +0.000 A 
ATOM     28  C   UNL     1      47.906   3.058  16.858  0.00  0.00    +0.000 A 
ATOM     29  C   UNL     1      47.816   4.421  16.555  0.00  0.00    +0.000 A 
ATOM     30  C   UNL     1      48.962   5.223  16.709  0.00  0.00    +0.000 A 
ATOM     31  H   UNL     1      51.489   5.804  18.476  0.00  0.00    +0.000 HD
ENDBRANCH  19  22
ENDBRANCH  17  20
ENDBRANCH   1  17
TORSDOF 7
ENDMDL
MODEL 4
REMARK VINA RESULT:    -8.039      2.293      8.762
REMARK INTER + INTRA:         -12.441
REMARK INTER:                 -11.287
REMARK INTRA:                  -1.154
REMARK UNBOUND:                -1.113
REMARK  Name = 
REMARK  7 active torsions:
REMARK  status: ('A' for Active; 'I' for Inactive)
REMARK    1  A    between atoms: C_2  and  C_20
REMARK    2  A    between atoms: N_3  and  C_4
REMARK    3  A    between atoms: C_4  and  C_5
REMARK    4  A    between atoms: C_8  and  N_9
REMARK    5  A    between atoms: N_9  and  C_10
REMARK    6  A    between atoms: C_10  and  C_11
REMARK    7  A    between atoms: C_11  and  C_12
REMARK                            x       y       z     vdW  Elec       q    Type
REMARK                         _______ _______ _______ _____ _____    ______ ____
ROOT
ATOM      1  C   UNL     1      46.285   7.325  12.239  0.00  0.00    +0.000 A 
ATOM      2  C   UNL     1      46.319   8.491  13.012  0.00  0.00    +0.000 A 
ATOM      3  C   UNL     1      47.457   8.809  13.755  0.00  0.00    +0.000 A 
ATOM      4  C   UNL     1      48.567   7.957  13.766  0.00  0.00    +0.000 A 
ATOM      5  C   UNL     1      48.569   6.857  12.906  0.00  0.00    +0.000 A 
ATOM      6  C   UNL     1      47.436   6.534  12.156  0.00  0.00    +0.000 A 
ENDROOT
BRANCH   4   7
ATOM      7  N   UNL     1      49.719   8.188  14.535  0.00  0.00    +0.000 N 
ATOM      8  H   UNL     1      49.618   9.076  15.027  0.00  0.00    +0.000 HD
BRANCH   7   9
ATOM      9  C   UNL     1      50.141   7.118  15.447  0.00  0.00    +0.000 C 
BRANCH   9  10
ATOM     10  C   UNL     1      49.095   6.865  16.542  0.00  0.00    +0.000 C 
BRANCH  10  11
ATOM     11  C   UNL     1      48.761   5.410  16.681  0.00  0.00    +0.000 A 
ATOM     12  C   UNL     1      49.543   4.558  17.472  0.00  0.00    +0.000 A 
ATOM     13  C   UNL     1      49.204   3.216  17.563  0.00  0.00    +0.000 A 
ATOM     14  C   UNL     1      48.088   2.762  16.882  0.00  0.00    +0.000 A 
ATOM     15  N   UNL     1      47.318   3.549  16.099  0.00  0.00    +0.000 NA
ATOM     16  C   UNL     1      47.679   4.849  16.011  0.00  0.00    +0.000 A 
ENDBRANCH  10  11
ENDBRANCH   9  10
ENDBRANCH   7   9
ENDBRANCH   4   7
BRANCH   1  17
ATOM     17  C   UNL     1      45.060   6.952  11.454  0.00  0.00    +0.000 C 
BRANCH  17  20
ATOM     18  O   UNL     1      42.951   5.338  10.596  0.00  0.00    +0.000 OA
ATOM     19  C   UNL     1      44.096   4.917  10.491  0.00  0.00    +0.000 C 
ATOM     20  N   UNL     1      45.186   5.615  10.945  0.00  0.00    +0.000 N 
ATOM     21  H   UNL     1      46.095   5.179  10.957  0.00  0.00    +0.000 HD
BRANCH  19  22
ATOM     22  C   UNL     1      44.425   3.644   9.857  0.00  0.00    +0.000 A 
ATOM     23  C   UNL     1      44.129   2.378  10.347  0.00  0.00    +0.000 A 
ATOM     24  N   UNL     1      44.527   1.487   9.391  0.00  0.00    +0.000 N 
ATOM     25  C   UNL     1      45.517   2.072   8.645  0.00  0.00    +0.000 A 
ATOM     26  C   UNL     1      46.576   1.528   7.915  0.00  0.00    +0.000 A 
ATOM     27  C   UNL     1      47.319   2.416   7.134  0.00  0.00    +0.000 A 
ATOM     28  C   UNL     1      46.927   3.747   6.993  0.00  0.00    +0.000 A 
ATOM     29  C   UNL     1      45.883   4.273   7.763  0.00  0.00    +0.000 A 
ATOM     30  C   UNL     1      45.249   3.437   8.701  0.00  0.00    +0.000 A 
ATOM     31  H   UNL     1      44.189   0.541   9.278  0.00  0.00    +0.000 HD
ENDBRANCH  19  22
ENDBRANCH  17  20
ENDBRANCH   1  17
TORSDOF 7
ENDMDL
MODEL 5
REMARK VINA RESULT:    -7.364      3.391      4.877
REMARK INTER + INTRA:         -11.491
REMARK INTER:                 -10.580
REMARK INTRA:                  -0.911
REMARK UNBOUND:                -1.113
REMARK  Name = 
REMARK  7 active torsions:
REMARK  status: ('A' for Active; 'I' for Inactive)
REMARK    1  A    between atoms: C_2  and  C_20
REMARK    2  A    between atoms: N_3  and  C_4
REMARK    3  A    between atoms: C_4  and  C_5
REMARK    4  A    between atoms: C_8  and  N_9
REMARK    5  A    between atoms: N_9  and  C_10
REMARK    6  A    between atoms: C_10  and  C_11
REMARK    7  A    between atoms: C_11  and  C_12
REMARK                            x       y       z     vdW  Elec       q    Type
REMARK                         _______ _______ _______ _____ _____    ______ ____
ROOT
ATOM      1  C   UNL     1      45.504   6.849  12.546  0.00  0.00    +0.000 A 
ATOM      2  C   UNL     1      45.983   5.738  13.249  0.00  0.00    +0.000 A 
ATOM      3  C   UNL     1      45.744   4.447  12.772  0.00  0.00    +0.000 A 
ATOM      4  C   UNL     1      44.997   4.241  11.607  0.00  0.00    +0.000 A 
ATOM      5  C   UNL     1      44.621   5.355  10.853  0.00  0.00    +0.000 A 
ATOM      6  C   UNL     1      44.860   6.649  11.321  0.00  0.00    +0.000 A 
ENDROOT
BRANCH   4   7
ATOM      7  N   UNL     1      44.672   2.971  11.104  0.00  0.00    +0.000 N 
ATOM      8  H   UNL     1      44.020   2.517  11.744  0.00  0.00    +0.000 HD
BRANCH   7   9
ATOM      9  C   UNL     1      44.192   2.903   9.718  0.00  0.00    +0.000 C 
BRANCH   9  10
ATOM     10  C   UNL     1      44.746   1.670   8.988  0.00  0.00    +0.000 C 
BRANCH  10  11
ATOM     11  C   UNL     1      45.908   2.010   8.105  0.00  0.00    +0.000 A 
ATOM     12  C   UNL     1      46.100   3.312   7.626  0.00  0.00    +0.000 A 
ATOM     13  C   UNL     1      47.183   3.579   6.802  0.00  0.00    +0.000 A 
ATOM     14  C   UNL     1      48.055   2.549   6.492  0.00  0.00    +0.000 A 
ATOM     15  N   UNL     1      47.896   1.279   6.922  0.00  0.00    +0.000 NA
ATOM     16  C   UNL     1      46.823   1.040   7.709  0.00  0.00    +0.000 A 
ENDBRANCH  10  11
ENDBRANCH   9  10
ENDBRANCH   7   9
ENDBRANCH   4   7
BRANCH   1  17
ATOM     17  C   UNL     1      45.728   8.244  13.058  0.00  0.00    +0.000 C 
BRANCH  17  20
ATOM     18  O   UNL     1      46.471  10.487  11.573  0.00  0.00    +0.000 OA
ATOM     19  C   UNL     1      47.346   9.811  12.097  0.00  0.00    +0.000 C 
ATOM     20  N   UNL     1      47.077   8.658  12.790  0.00  0.00    +0.000 N 
ATOM     21  H   UNL     1      47.833   8.064  13.094  0.00  0.00    +0.000 HD
BRANCH  19  22
ATOM     22  C   UNL     1      48.762  10.166  12.059  0.00  0.00    +0.000 A 
ATOM     23  C   UNL     1      49.295  11.441  12.194  0.00  0.00    +0.000 A 
ATOM     24  N   UNL     1      50.654  11.297  12.198  0.00  0.00    +0.000 N 
ATOM     25  C   UNL     1      50.965  10.141  11.532  0.00  0.00    +0.000 A 
ATOM     26  C   UNL     1      52.106   9.752  10.828  0.00  0.00    +0.000 A 
ATOM     27  C   UNL     1      52.152   8.424  10.395  0.00  0.00    +0.000 A 
ATOM     28  C   UNL     1      51.165   7.513  10.771  0.00  0.00    +0.000 A 
ATOM     29  C   UNL     1      50.015   7.939  11.447  0.00  0.00    +0.000 A 
ATOM     30  C   UNL     1      49.863   9.311  11.720  0.00  0.00    +0.000 A 
ATOM     31  H   UNL     1      51.323  11.951  12.582  0.00  0.00    +0.000 HD
ENDBRANCH  19  22
ENDBRANCH  17  20
ENDBRANCH   1  17
TORSDOF 7
ENDMDL
MODEL 6
REMARK VINA RESULT:    -7.316      2.139      2.692
REMARK INTER + INTRA:         -11.423
REMARK INTER:                 -10.677
REMARK INTRA:                  -0.746
REMARK UNBOUND:                -1.113
REMARK  Name = 
REMARK  7 active torsions:
REMARK  status: ('A' for Active; 'I' for Inactive)
REMARK    1  A    between atoms: C_2  and  C_20
REMARK    2  A    between atoms: N_3  and  C_4
REMARK    3  A    between atoms: C_4  and  C_5
REMARK    4  A    between atoms: C_8  and  N_9
REMARK    5  A    between atoms: N_9  and  C_10
REMARK    6  A    between atoms: C_10  and  C_11
REMARK    7  A    between atoms: C_11  and  C_12
REMARK                            x       y       z     vdW  Elec       q    Type
REMARK                         _______ _______ _______ _____ _____    ______ ____
ROOT
ATOM      1  C   UNL     1      47.375   5.918  13.610  0.00  0.00    +0.000 A 
ATOM      2  C   UNL     1      47.148   6.689  12.465  0.00  0.00    +0.000 A 
ATOM      3  C   UNL     1      46.072   6.400  11.624  0.00  0.00    +0.000 A 
ATOM      4  C   UNL     1      45.222   5.321  11.892  0.00  0.00    +0.000 A 
ATOM      5  C   UNL     1      45.387   4.628  13.094  0.00  0.00    +0.000 A 
ATOM      6  C   UNL     1      46.459   4.913  13.942  0.00  0.00    +0.000 A 
ENDROOT
BRANCH   4   7
ATOM      7  N   UNL     1      44.158   4.941  11.059  0.00  0.00    +0.000 N 
ATOM      8  H   UNL     1      43.933   5.715  10.434  0.00  0.00    +0.000 HD
BRANCH   7   9
ATOM      9  C   UNL     1      44.304   3.682  10.319  0.00  0.00    +0.000 C 
BRANCH   9  10
ATOM     10  C   UNL     1      44.480   3.929   8.813  0.00  0.00    +0.000 C 
BRANCH  10  11
ATOM     11  C   UNL     1      45.529   3.041   8.213  0.00  0.00    +0.000 A 
ATOM     12  C   UNL     1      46.452   3.534   7.283  0.00  0.00    +0.000 A 
ATOM     13  C   UNL     1      47.398   2.674   6.744  0.00  0.00    +0.000 A 
ATOM     14  C   UNL     1      47.411   1.354   7.159  0.00  0.00    +0.000 A 
ATOM     15  N   UNL     1      46.529   0.838   8.042  0.00  0.00    +0.000 NA
ATOM     16  C   UNL     1      45.605   1.691   8.539  0.00  0.00    +0.000 A 
ENDBRANCH  10  11
ENDBRANCH   9  10
ENDBRANCH   7   9
ENDBRANCH   4   7
BRANCH   1  17
ATOM     17  C   UNL     1      48.543   6.196  14.512  0.00  0.00    +0.000 C 
BRANCH  17  20
ATOM     18  O   UNL     1      50.143   7.649  16.278  0.00  0.00    +0.000 OA
ATOM     19  C   UNL     1      48.942   7.562  16.505  0.00  0.00    +0.000 C 
ATOM     20  N   UNL     1      48.094   6.816  15.727  0.00  0.00    +0.000 N 
ATOM     21  H   UNL     1      47.141   6.667  16.021  0.00  0.00    +0.000 HD
BRANCH  19  22
ATOM     22  C   UNL     1      48.285   8.255  17.609  0.00  0.00    +0.000 A 
ATOM     23  C   UNL     1      48.174   9.629  17.771  0.00  0.00    +0.000 A 
ATOM     24  N   UNL     1      47.401   9.831  18.879  0.00  0.00    +0.000 N 
ATOM     25  C   UNL     1      47.509   8.728  19.685  0.00  0.00    +0.000 A 
ATOM     26  C   UNL     1      47.370   8.568  21.064  0.00  0.00    +0.000 A 
ATOM     27  C   UNL     1      47.396   7.257  21.547  0.00  0.00    +0.000 A 
ATOM     28  C   UNL     1      47.422   6.171  20.672  0.00  0.00    +0.000 A 
ATOM     29  C   UNL     1      47.595   6.362  19.296  0.00  0.00    +0.000 A 
ATOM     30  C   UNL     1      47.768   7.672  18.814  0.00  0.00    +0.000 A 
ATOM     31  H   UNL     1      46.875  10.667  19.096  0.00  0.00    +0.000 HD
ENDBRANCH  19  22
ENDBRANCH  17  20
ENDBRANCH   1  17
TORSDOF 7
ENDMDL
MODEL 7
REMARK VINA RESULT:    -7.263      2.141      8.788
REMARK INTER + INTRA:         -11.348
REMARK INTER:                 -10.094
REMARK INTRA:                  -1.254
REMARK UNBOUND:                -1.113
REMARK  Name = 
REMARK  7 active torsions:
REMARK  status: ('A' for Active; 'I' for Inactive)
REMARK    1  A    between atoms: C_2  and  C_20
REMARK    2  A    between atoms: N_3  and  C_4
REMARK    3  A    between atoms: C_4  and  C_5
REMARK    4  A    between atoms: C_8  and  N_9
REMARK    5  A    between atoms: N_9  and  C_10
REMARK    6  A    between atoms: C_10  and  C_11
REMARK    7  A    between atoms: C_11  and  C_12
REMARK                            x       y       z     vdW  Elec       q    Type
REMARK                         _______ _______ _______ _____ _____    ______ ____
ROOT
ATOM      1  C   UNL     1      47.914   7.686  13.229  0.00  0.00    +0.000 A 
ATOM      2  C   UNL     1      48.541   6.590  13.832  0.00  0.00    +0.000 A 
ATOM      3  C   UNL     1      48.953   6.660  15.164  0.00  0.00    +0.000 A 
ATOM      4  C   UNL     1      48.774   7.832  15.908  0.00  0.00    +0.000 A 
ATOM      5  C   UNL     1      48.047   8.878  15.336  0.00  0.00    +0.000 A 
ATOM      6  C   UNL     1      47.629   8.815  14.005  0.00  0.00    +0.000 A 
ENDROOT
BRANCH   4   7
ATOM      7  N   UNL     1      49.214   7.989  17.232  0.00  0.00    +0.000 N 
ATOM      8  H   UNL     1      49.467   8.965  17.385  0.00  0.00    +0.000 HD
BRANCH   7   9
ATOM      9  C   UNL     1      48.329   7.495  18.294  0.00  0.00    +0.000 C 
BRANCH   9  10
ATOM     10  C   UNL     1      48.903   6.242  18.971  0.00  0.00    +0.000 C 
BRANCH  10  11
ATOM     11  C   UNL     1      48.537   4.985  18.239  0.00  0.00    +0.000 A 
ATOM     12  C   UNL     1      49.505   4.028  17.912  0.00  0.00    +0.000 A 
ATOM     13  C   UNL     1      49.124   2.885  17.224  0.00  0.00    +0.000 A 
ATOM     14  C   UNL     1      47.789   2.717  16.899  0.00  0.00    +0.000 A 
ATOM     15  N   UNL     1      46.829   3.623  17.185  0.00  0.00    +0.000 NA
ATOM     16  C   UNL     1      47.229   4.737  17.838  0.00  0.00    +0.000 A 
ENDBRANCH  10  11
ENDBRANCH   9  10
ENDBRANCH   7   9
ENDBRANCH   4   7
BRANCH   1  17
ATOM     17  C   UNL     1      47.489   7.639  11.789  0.00  0.00    +0.000 C 
BRANCH  17  20
ATOM     18  O   UNL     1      44.747   7.473  11.295  0.00  0.00    +0.000 OA
ATOM     19  C   UNL     1      45.420   6.452  11.237  0.00  0.00    +0.000 C 
ATOM     20  N   UNL     1      46.760   6.429  11.527  0.00  0.00    +0.000 N 
ATOM     21  H   UNL     1      47.247   5.549  11.594  0.00  0.00    +0.000 HD
BRANCH  19  22
ATOM     22  C   UNL     1      44.875   5.158  10.836  0.00  0.00    +0.000 A 
ATOM     23  C   UNL     1      44.105   4.309  11.621  0.00  0.00    +0.000 A 
ATOM     24  N   UNL     1      43.732   3.268  10.819  0.00  0.00    +0.000 N 
ATOM     25  C   UNL     1      44.656   3.148   9.814  0.00  0.00    +0.000 A 
ATOM     26  C   UNL     1      45.060   2.053   9.048  0.00  0.00    +0.000 A 
ATOM     27  C   UNL     1      45.928   2.319   7.986  0.00  0.00    +0.000 A 
ATOM     28  C   UNL     1      46.257   3.629   7.639  0.00  0.00    +0.000 A 
ATOM     29  C   UNL     1      45.865   4.705   8.444  0.00  0.00    +0.000 A 
ATOM     30  C   UNL     1      45.153   4.436   9.628  0.00  0.00    +0.000 A 
ATOM     31  H   UNL     1      42.940   2.656  10.963  0.00  0.00    +0.000 HD
ENDBRANCH  19  22
ENDBRANCH  17  20
ENDBRANCH   1  17
TORSDOF 7
ENDMDL
MODEL 8
REMARK VINA RESULT:    -7.100      2.524     10.004
REMARK INTER + INTRA:         -11.118
REMARK INTER:                 -10.328
REMARK INTRA:                  -0.791
REMARK UNBOUND:                -1.113
REMARK  Name = 
REMARK  7 active torsions:
REMARK  status: ('A' for Active; 'I' for Inactive)
REMARK    1  A    between atoms: C_2  and  C_20
REMARK    2  A    between atoms: N_3  and  C_4
REMARK    3  A    between atoms: C_4  and  C_5
REMARK    4  A    between atoms: C_8  and  N_9
REMARK    5  A    between atoms: N_9  and  C_10
REMARK    6  A    between atoms: C_10  and  C_11
REMARK    7  A    between atoms: C_11  and  C_12
REMARK                            x       y       z     vdW  Elec       q    Type
REMARK                         _______ _______ _______ _____ _____    ______ ____
ROOT
ATOM      1  C   UNL     1      46.230   7.208  12.575  0.00  0.00    +0.000 A 
ATOM      2  C   UNL     1      46.447   8.477  13.125  0.00  0.00    +0.000 A 
ATOM      3  C   UNL     1      47.479   8.679  14.043  0.00  0.00    +0.000 A 
ATOM      4  C   UNL     1      48.293   7.616  14.452  0.00  0.00    +0.000 A 
ATOM      5  C   UNL     1      48.144   6.382  13.815  0.00  0.00    +0.000 A 
ATOM      6  C   UNL     1      47.116   6.173  12.893  0.00  0.00    +0.000 A 
ENDROOT
BRANCH   4   7
ATOM      7  N   UNL     1      49.310   7.738  15.412  0.00  0.00    +0.000 N 
ATOM      8  H   UNL     1      49.631   8.706  15.435  0.00  0.00    +0.000 HD
BRANCH   7   9
ATOM      9  C   UNL     1      49.019   7.240  16.761  0.00  0.00    +0.000 C 
BRANCH   9  10
ATOM     10  C   UNL     1      48.323   8.307  17.620  0.00  0.00    +0.000 C 
BRANCH  10  11
ATOM     11  C   UNL     1      48.003   7.806  18.996  0.00  0.00    +0.000 A 
ATOM     12  C   UNL     1      47.562   6.493  19.206  0.00  0.00    +0.000 A 
ATOM     13  C   UNL     1      47.266   6.075  20.495  0.00  0.00    +0.000 A 
ATOM     14  C   UNL     1      47.434   6.966  21.540  0.00  0.00    +0.000 A 
ATOM     15  N   UNL     1      47.843   8.244  21.376  0.00  0.00    +0.000 NA
ATOM     16  C   UNL     1      48.108   8.633  20.109  0.00  0.00    +0.000 A 
ENDBRANCH  10  11
ENDBRANCH   9  10
ENDBRANCH   7   9
ENDBRANCH   4   7
BRANCH   1  17
ATOM     17  C   UNL     1      45.108   6.966  11.607  0.00  0.00    +0.000 C 
BRANCH  17  20
ATOM     18  O   UNL     1      42.932   5.465  10.711  0.00  0.00    +0.000 OA
ATOM     19  C   UNL     1      44.054   4.984  10.628  0.00  0.00    +0.000 C 
ATOM     20  N   UNL     1      45.172   5.623  11.102  0.00  0.00    +0.000 N 
ATOM     21  H   UNL     1      46.056   5.139  11.131  0.00  0.00    +0.000 HD
BRANCH  19  22
ATOM     22  C   UNL     1      44.327   3.693  10.001  0.00  0.00    +0.000 A 
ATOM     23  C   UNL     1      43.999   2.444  10.512  0.00  0.00    +0.000 A 
ATOM     24  N   UNL     1      44.346   1.530   9.558  0.00  0.00    +0.000 N 
ATOM     25  C   UNL     1      45.338   2.073   8.783  0.00  0.00    +0.000 A 
ATOM     26  C   UNL     1      46.361   1.486   8.037  0.00  0.00    +0.000 A 
ATOM     27  C   UNL     1      47.115   2.340   7.229  0.00  0.00    +0.000 A 
ATOM     28  C   UNL     1      46.766   3.682   7.082  0.00  0.00    +0.000 A 
ATOM     29  C   UNL     1      45.757   4.251   7.868  0.00  0.00    +0.000 A 
ATOM     30  C   UNL     1      45.117   3.447   8.830  0.00  0.00    +0.000 A 
ATOM     31  H   UNL     1      43.974   0.594   9.463  0.00  0.00    +0.000 HD
ENDBRANCH  19  22
ENDBRANCH  17  20
ENDBRANCH   1  17
TORSDOF 7
ENDMDL
MODEL 9
REMARK VINA RESULT:    -7.031      3.997      7.936
REMARK INTER + INTRA:         -11.021
REMARK INTER:                 -10.044
REMARK INTRA:                  -0.977
REMARK UNBOUND:                -1.113
REMARK  Name = 
REMARK  7 active torsions:
REMARK  status: ('A' for Active; 'I' for Inactive)
REMARK    1  A    between atoms: C_2  and  C_20
REMARK    2  A    between atoms: N_3  and  C_4
REMARK    3  A    between atoms: C_4  and  C_5
REMARK    4  A    between atoms: C_8  and  N_9
REMARK    5  A    between atoms: N_9  and  C_10
REMARK    6  A    between atoms: C_10  and  C_11
REMARK    7  A    between atoms: C_11  and  C_12
REMARK                            x       y       z     vdW  Elec       q    Type
REMARK                         _______ _______ _______ _____ _____    ______ ____
ROOT
ATOM      1  C   UNL     1      46.994   6.655  12.864  0.00  0.00    +0.000 A 
ATOM      2  C   UNL     1      47.522   7.075  11.638  0.00  0.00    +0.000 A 
ATOM      3  C   UNL     1      48.845   7.515  11.556  0.00  0.00    +0.000 A 
ATOM      4  C   UNL     1      49.652   7.574  12.697  0.00  0.00    +0.000 A 
ATOM      5  C   UNL     1      49.155   7.047  13.891  0.00  0.00    +0.000 A 
ATOM      6  C   UNL     1      47.835   6.602  13.981  0.00  0.00    +0.000 A 
ENDROOT
BRANCH   4   7
ATOM      7  N   UNL     1      50.970   8.059  12.695  0.00  0.00    +0.000 N 
ATOM      8  H   UNL     1      51.577   7.373  13.143  0.00  0.00    +0.000 HD
BRANCH   7   9
ATOM      9  C   UNL     1      51.519   8.496  11.406  0.00  0.00    +0.000 C 
BRANCH   9  10
ATOM     10  C   UNL     1      52.971   8.030  11.223  0.00  0.00    +0.000 C 
BRANCH  10  11
ATOM     11  C   UNL     1      53.135   7.149  10.021  0.00  0.00    +0.000 A 
ATOM     12  C   UNL     1      53.985   6.036  10.047  0.00  0.00    +0.000 A 
ATOM     13  C   UNL     1      54.115   5.255   8.909  0.00  0.00    +0.000 A 
ATOM     14  C   UNL     1      53.384   5.591   7.782  0.00  0.00    +0.000 A 
ATOM     15  N   UNL     1      52.567   6.664   7.713  0.00  0.00    +0.000 NA
ATOM     16  C   UNL     1      52.470   7.420   8.830  0.00  0.00    +0.000 A 
ENDBRANCH  10  11
ENDBRANCH   9  10
ENDBRANCH   7   9
ENDBRANCH   4   7
BRANCH   1  17
ATOM     17  C   UNL     1      45.565   6.204  12.976  0.00  0.00    +0.000 C 
BRANCH  17  20
ATOM     18  O   UNL     1      43.743   5.933  10.880  0.00  0.00    +0.000 OA
ATOM     19  C   UNL     1      44.480   4.992  11.146  0.00  0.00    +0.000 C 
ATOM     20  N   UNL     1      45.359   5.014  12.199  0.00  0.00    +0.000 N 
ATOM     21  H   UNL     1      45.852   4.175  12.461  0.00  0.00    +0.000 HD
BRANCH  19  22
ATOM     22  C   UNL     1      44.517   3.759  10.365  0.00  0.00    +0.000 A 
ATOM     23  C   UNL     1      44.028   2.520  10.757  0.00  0.00    +0.000 A 
ATOM     24  N   UNL     1      44.179   1.684   9.687  0.00  0.00    +0.000 N 
ATOM     25  C   UNL     1      45.200   2.164   8.909  0.00  0.00    +0.000 A 
ATOM     26  C   UNL     1      46.079   1.525   8.032  0.00  0.00    +0.000 A 
ATOM     27  C   UNL     1      46.912   2.350   7.271  0.00  0.00    +0.000 A 
ATOM     28  C   UNL     1      46.766   3.737   7.297  0.00  0.00    +0.000 A 
ATOM     29  C   UNL     1      45.900   4.350   8.210  0.00  0.00    +0.000 A 
ATOM     30  C   UNL     1      45.196   3.540   9.120  0.00  0.00    +0.000 A 
ATOM     31  H   UNL     1      43.663   0.832   9.517  0.00  0.00    +0.000 HD
ENDBRANCH  19  22
ENDBRANCH  17  20
ENDBRANCH   1  17
TORSDOF 7
ENDMDL
