MODEL 1
REMARK VINA RESULT:    -7.699      0.000      0.000
REMARK INTER + INTRA:          -9.543
REMARK INTER:                  -9.049
REMARK INTRA:                  -0.494
REMARK UNBOUND:                -0.494
REMARK  Name = 
REMARK  3 active torsions:
REMARK  status: ('A' for Active; 'I' for Inactive)
REMARK    1  A    between atoms: C_3  and  C_4
REMARK    2  A    between atoms: C_4  and  N_5
REMARK    3  A    between atoms: C_13  and  N_14
REMARK                            x       y       z     vdW  Elec       q    Type
REMARK                         _______ _______ _______ _____ _____    ______ ____
ROOT
ATOM      1  C   UNL     1      43.132   4.799  12.755  0.00  0.00    +0.000 A 
ATOM      2  C   UNL     1      43.198   3.920  11.676  0.00  0.00    +0.000 A 
ATOM      3  C   UNL     1      44.251   4.014  10.761  0.00  0.00    +0.000 A 
ATOM      4  C   UNL     1      45.213   5.022  10.939  0.00  0.00    +0.000 A 
ATOM      5  C   UNL     1      45.159   5.931  12.007  0.00  0.00    +0.000 A 
ATOM      6  C   UNL     1      44.103   5.794  12.916  0.00  0.00    +0.000 A 
ENDROOT
BRANCH   5   7
ATOM      7  N   UNL     1      46.107   6.943  12.080  0.00  0.00    +0.000 N 
ATOM      8  C   UNL     1      45.767   8.227  12.705  0.00  0.00    +0.000 C 
ATOM      9  C   UNL     1      46.735   9.314  12.177  0.00  0.00    +0.000 C 
ATOM     10  N   UNL     1      48.165   8.990  12.388  0.00  0.00    +0.000 NA
ATOM     11  C   UNL     1      48.447   7.663  11.796  0.00  0.00    +0.000 C 
ATOM     12  C   UNL     1      47.508   6.537  12.292  0.00  0.00    +0.000 C 
ATOM     13  H   UNL     1      48.326   8.924  13.392  0.00  0.00    +0.000 HD
ENDBRANCH   5   7
BRANCH   3  14
ATOM     14  C   UNL     1      44.359   3.061   9.595  0.00  0.00    +0.000 C 
BRANCH  14  15
ATOM     15  N   UNL     1      45.023   3.710   8.469  0.00  0.00    +0.000 N 
ATOM     16  C   UNL     1      45.964   2.883   7.825  0.00  0.00    +0.000 A 
ATOM     17  C   UNL     1      46.660   3.391   6.744  0.00  0.00    +0.000 A 
ATOM     18  C   UNL     1      47.547   2.543   6.121  0.00  0.00    +0.000 A 
ATOM     19  N   UNL     1      47.761   1.278   6.512  0.00  0.00    +0.000 NA
ATOM     20  C   UNL     1      47.032   0.874   7.558  0.00  0.00    +0.000 A 
ATOM     21  N   UNL     1      46.139   1.614   8.231  0.00  0.00    +0.000 NA
ATOM     22  H   UNL     1      45.460   4.584   8.744  0.00  0.00    +0.000 HD
ENDBRANCH  14  15
ENDBRANCH   3  14
TORSDOF 3
ENDMDL
MODEL 2
REMARK VINA RESULT:    -7.290      1.279      1.759
REMARK INTER + INTRA:          -9.062
REMARK INTER:                  -8.579
REMARK INTRA:                  -0.484
REMARK UNBOUND:                -0.494
REMARK  Name = 
REMARK  3 active torsions:
REMARK  status: ('A' for Active; 'I' for Inactive)
REMARK    1  A    between atoms: C_3  and  C_4
REMARK    2  A    between atoms: C_4  and  N_5
REMARK    3  A    between atoms: C_13  and  N_14
REMARK                            x       y       z     vdW  Elec       q    Type
REMARK                         _______ _______ _______ _____ _____    ______ ____
ROOT
ATOM      1  C   UNL     1      45.941   4.105  13.270  0.00  0.00    +0.000 A 
ATOM      2  C   UNL     1      45.374   3.475  12.165  0.00  0.00    +0.000 A 
ATOM      3  C   UNL     1      45.009   4.224  11.042  0.00  0.00    +0.000 A 
ATOM      4  C   UNL     1      45.200   5.616  11.068  0.00  0.00    +0.000 A 
ATOM      5  C   UNL     1      45.753   6.277  12.176  0.00  0.00    +0.000 A 
ATOM      6  C   UNL     1      46.126   5.493  13.274  0.00  0.00    +0.000 A 
ENDROOT
BRANCH   5   7
ATOM      7  N   UNL     1      45.849   7.662  12.156  0.00  0.00    +0.000 N 
ATOM      8  C   UNL     1      47.163   8.309  12.060  0.00  0.00    +0.000 C 
ATOM      9  C   UNL     1      47.052   9.754  12.605  0.00  0.00    +0.000 C 
ATOM     10  N   UNL     1      46.017  10.568  11.927  0.00  0.00    +0.000 NA
ATOM     11  C   UNL     1      44.724   9.850  11.995  0.00  0.00    +0.000 C 
ATOM     12  C   UNL     1      44.778   8.399  11.459  0.00  0.00    +0.000 C 
ATOM     13  H   UNL     1      46.277  10.649  10.946  0.00  0.00    +0.000 HD
ENDBRANCH   5   7
BRANCH   3  14
ATOM     14  C   UNL     1      44.413   3.564   9.823  0.00  0.00    +0.000 C 
BRANCH  14  15
ATOM     15  N   UNL     1      45.049   4.067   8.610  0.00  0.00    +0.000 N 
ATOM     16  C   UNL     1      45.853   3.108   7.963  0.00  0.00    +0.000 A 
ATOM     17  C   UNL     1      46.510   3.472   6.802  0.00  0.00    +0.000 A 
ATOM     18  C   UNL     1      47.260   2.499   6.182  0.00  0.00    +0.000 A 
ATOM     19  N   UNL     1      47.379   1.246   6.647  0.00  0.00    +0.000 NA
ATOM     20  C   UNL     1      46.695   0.988   7.767  0.00  0.00    +0.000 A 
ATOM     21  N   UNL     1      45.933   1.857   8.445  0.00  0.00    +0.000 NA
ATOM     22  H   UNL     1      45.590   4.908   8.791  0.00  0.00    +0.000 HD
ENDBRANCH  14  15
ENDBRANCH   3  14
TORSDOF 3
ENDMDL
MODEL 3
REMARK VINA RESULT:    -6.272      5.029      7.952
REMARK INTER + INTRA:          -7.866
REMARK INTER:                  -7.420
REMARK INTRA:                  -0.445
REMARK UNBOUND:                -0.494
REMARK  Name = 
REMARK  3 active torsions:
REMARK  status: ('A' for Active; 'I' for Inactive)
REMARK    1  A    between atoms: C_3  and  C_4
REMARK    2  A    between atoms: C_4  and  N_5
REMARK    3  A    between atoms: C_13  and  N_14
REMARK                            x       y       z     vdW  Elec       q    Type
REMARK                         _______ _______ _______ _____ _____    ______ ____
ROOT
ATOM      1  C   UNL     1      48.031   6.764  13.868  0.00  0.00    +0.000 A 
ATOM      2  C   UNL     1      48.332   6.125  15.069  0.00  0.00    +0.000 A 
ATOM      3  C   UNL     1      47.629   4.977  15.447  0.00  0.00    +0.000 A 
ATOM      4  C   UNL     1      46.604   4.507  14.609  0.00  0.00    +0.000 A 
ATOM      5  C   UNL     1      46.270   5.142  13.402  0.00  0.00    +0.000 A 
ATOM      6  C   UNL     1      47.009   6.276  13.045  0.00  0.00    +0.000 A 
ENDROOT
BRANCH   5   7
ATOM      7  N   UNL     1      45.201   4.658  12.660  0.00  0.00    +0.000 N 
ATOM      8  C   UNL     1      45.171   3.252  12.240  0.00  0.00    +0.000 C 
ATOM      9  C   UNL     1      44.232   3.113  11.018  0.00  0.00    +0.000 C 
ATOM     10  N   UNL     1      42.860   3.616  11.261  0.00  0.00    +0.000 NA
ATOM     11  C   UNL     1      42.942   5.015  11.740  0.00  0.00    +0.000 C 
ATOM     12  C   UNL     1      43.868   5.210  12.964  0.00  0.00    +0.000 C 
ATOM     13  H   UNL     1      42.449   3.055  12.005  0.00  0.00    +0.000 HD
ENDBRANCH   5   7
BRANCH   3  14
ATOM     14  C   UNL     1      47.949   4.254  16.732  0.00  0.00    +0.000 C 
BRANCH  14  15
ATOM     15  N   UNL     1      49.168   4.790  17.327  0.00  0.00    +0.000 N 
ATOM     16  C   UNL     1      50.186   3.827  17.479  0.00  0.00    +0.000 A 
ATOM     17  C   UNL     1      51.389   4.219  18.035  0.00  0.00    +0.000 A 
ATOM     18  C   UNL     1      52.369   3.259  18.137  0.00  0.00    +0.000 A 
ATOM     19  N   UNL     1      52.207   1.989  17.731  0.00  0.00    +0.000 NA
ATOM     20  C   UNL     1      51.014   1.711  17.195  0.00  0.00    +0.000 A 
ATOM     21  N   UNL     1      49.997   2.571  17.043  0.00  0.00    +0.000 NA
ATOM     22  H   UNL     1      48.984   5.243  18.218  0.00  0.00    +0.000 HD
ENDBRANCH  14  15
ENDBRANCH   3  14
TORSDOF 3
ENDMDL
MODEL 4
REMARK VINA RESULT:    -6.167      3.992      7.604
REMARK INTER + INTRA:          -7.743
REMARK INTER:                  -7.209
REMARK INTRA:                  -0.533
REMARK UNBOUND:                -0.494
REMARK  Name = 
REMARK  3 active torsions:
REMARK  status: ('A' for Active; 'I' for Inactive)
REMARK    1  A    between atoms: C_3  and  C_4
REMARK    2  A    between atoms: C_4  and  N_5
REMARK    3  A    between atoms: C_13  and  N_14
REMARK                            x       y       z     vdW  Elec       q    Type
REMARK                         _______ _______ _______ _____ _____    ______ ____
ROOT
ATOM      1  C   UNL     1      48.384   7.651  11.664  0.00  0.00    +0.000 A 
ATOM      2  C   UNL     1      48.910   7.592  12.953  0.00  0.00    +0.000 A 
ATOM      3  C   UNL     1      48.284   6.810  13.928  0.00  0.00    +0.000 A 
ATOM      4  C   UNL     1      47.112   6.116  13.588  0.00  0.00    +0.000 A 
ATOM      5  C   UNL     1      46.553   6.173  12.301  0.00  0.00    +0.000 A 
ATOM      6  C   UNL     1      47.216   6.949  11.344  0.00  0.00    +0.000 A 
ENDROOT
BRANCH   5   7
ATOM      7  N   UNL     1      45.354   5.514  12.057  0.00  0.00    +0.000 N 
ATOM      8  C   UNL     1      45.122   4.861  10.763  0.00  0.00    +0.000 C 
ATOM      9  C   UNL     1      43.597   4.711  10.543  0.00  0.00    +0.000 C 
ATOM     10  N   UNL     1      42.908   3.979  11.631  0.00  0.00    +0.000 NA
ATOM     11  C   UNL     1      43.219   4.635  12.921  0.00  0.00    +0.000 C 
ATOM     12  C   UNL     1      44.732   4.808  13.193  0.00  0.00    +0.000 C 
ATOM     13  H   UNL     1      43.288   3.035  11.661  0.00  0.00    +0.000 HD
ENDBRANCH   5   7
BRANCH   3  14
ATOM     14  C   UNL     1      48.844   6.711  15.327  0.00  0.00    +0.000 C 
BRANCH  14  15
ATOM     15  N   UNL     1      47.899   6.028  16.205  0.00  0.00    +0.000 N 
ATOM     16  C   UNL     1      48.457   4.919  16.869  0.00  0.00    +0.000 A 
ATOM     17  C   UNL     1      47.655   4.190  17.728  0.00  0.00    +0.000 A 
ATOM     18  C   UNL     1      48.244   3.134  18.383  0.00  0.00    +0.000 A 
ATOM     19  N   UNL     1      49.531   2.788  18.225  0.00  0.00    +0.000 NA
ATOM     20  C   UNL     1      50.228   3.561  17.384  0.00  0.00    +0.000 A 
ATOM     21  N   UNL     1      49.755   4.614  16.703  0.00  0.00    +0.000 NA
ATOM     22  H   UNL     1      47.059   5.748  15.707  0.00  0.00    +0.000 HD
ENDBRANCH  14  15
ENDBRANCH   3  14
TORSDOF 3
ENDMDL
MODEL 5
REMARK VINA RESULT:    -6.146      3.710      7.640
REMARK INTER + INTRA:          -7.718
REMARK INTER:                  -7.192
REMARK INTRA:                  -0.526
REMARK UNBOUND:                -0.494
REMARK  Name = 
REMARK  3 active torsions:
REMARK  status: ('A' for Active; 'I' for Inactive)
REMARK    1  A    between atoms: C_3  and  C_4
REMARK    2  A    between atoms: C_4  and  N_5
REMARK    3  A    between atoms: C_13  and  N_14
REMARK                            x       y       z     vdW  Elec       q    Type
REMARK                         _______ _______ _______ _____ _____    ______ ____
ROOT
ATOM      1  C   UNL     1      45.922   8.479  12.713  0.00  0.00    +0.000 A 
ATOM      2  C   UNL     1      47.047   8.311  13.517  0.00  0.00    +0.000 A 
ATOM      3  C   UNL     1      47.531   7.027  13.785  0.00  0.00    +0.000 A 
ATOM      4  C   UNL     1      46.845   5.923  13.252  0.00  0.00    +0.000 A 
ATOM      5  C   UNL     1      45.700   6.065  12.454  0.00  0.00    +0.000 A 
ATOM      6  C   UNL     1      45.256   7.366  12.189  0.00  0.00    +0.000 A 
ENDROOT
BRANCH   5   7
ATOM      7  N   UNL     1      45.036   4.925  12.019  0.00  0.00    +0.000 N 
ATOM      8  C   UNL     1      43.839   4.454  12.727  0.00  0.00    +0.000 C 
ATOM      9  C   UNL     1      43.639   2.948  12.427  0.00  0.00    +0.000 C 
ATOM     10  N   UNL     1      43.549   2.636  10.981  0.00  0.00    +0.000 NA
ATOM     11  C   UNL     1      44.745   3.182  10.300  0.00  0.00    +0.000 C 
ATOM     12  C   UNL     1      44.991   4.686  10.564  0.00  0.00    +0.000 C 
ATOM     13  H   UNL     1      42.732   3.115  10.608  0.00  0.00    +0.000 HD
ENDBRANCH   5   7
BRANCH   3  14
ATOM     14  C   UNL     1      48.760   6.818  14.636  0.00  0.00    +0.000 C 
BRANCH  14  15
ATOM     15  N   UNL     1      48.458   7.086  16.038  0.00  0.00    +0.000 N 
ATOM     16  C   UNL     1      48.459   5.929  16.841  0.00  0.00    +0.000 A 
ATOM     17  C   UNL     1      48.184   6.059  18.189  0.00  0.00    +0.000 A 
ATOM     18  C   UNL     1      48.225   4.911  18.946  0.00  0.00    +0.000 A 
ATOM     19  N   UNL     1      48.511   3.700  18.441  0.00  0.00    +0.000 NA
ATOM     20  C   UNL     1      48.776   3.679  17.131  0.00  0.00    +0.000 A 
ATOM     21  N   UNL     1      48.770   4.736  16.306  0.00  0.00    +0.000 NA
ATOM     22  H   UNL     1      47.578   7.582  16.145  0.00  0.00    +0.000 HD
ENDBRANCH  14  15
ENDBRANCH   3  14
TORSDOF 3
ENDMDL
MODEL 6
REMARK VINA RESULT:    -6.117      3.124      4.910
REMARK INTER + INTRA:          -7.684
REMARK INTER:                  -7.158
REMARK INTRA:                  -0.526
REMARK UNBOUND:                -0.494
REMARK  Name = 
REMARK  3 active torsions:
REMARK  status: ('A' for Active; 'I' for Inactive)
REMARK    1  A    between atoms: C_3  and  C_4
REMARK    2  A    between atoms: C_4  and  N_5
REMARK    3  A    between atoms: C_13  and  N_14
REMARK                            x       y       z     vdW  Elec       q    Type
REMARK                         _______ _______ _______ _____ _____    ______ ____
ROOT
ATOM      1  C   UNL     1      48.911   7.784  12.495  0.00  0.00    +0.000 A 
ATOM      2  C   UNL     1      47.727   7.664  11.770  0.00  0.00    +0.000 A 
ATOM      3  C   UNL     1      46.688   6.865  12.256  0.00  0.00    +0.000 A 
ATOM      4  C   UNL     1      46.876   6.173  13.464  0.00  0.00    +0.000 A 
ATOM      5  C   UNL     1      48.065   6.264  14.203  0.00  0.00    +0.000 A 
ATOM      6  C   UNL     1      49.077   7.089  13.698  0.00  0.00    +0.000 A 
ENDROOT
BRANCH   5   7
ATOM      7  N   UNL     1      48.204   5.497  15.353  0.00  0.00    +0.000 N 
ATOM      8  C   UNL     1      48.643   6.122  16.607  0.00  0.00    +0.000 C 
ATOM      9  C   UNL     1      49.239   5.031  17.530  0.00  0.00    +0.000 C 
ATOM     10  N   UNL     1      48.311   3.909  17.800  0.00  0.00    +0.000 NA
ATOM     11  C   UNL     1      47.847   3.350  16.510  0.00  0.00    +0.000 C 
ATOM     12  C   UNL     1      47.239   4.399  15.549  0.00  0.00    +0.000 C 
ATOM     13  H   UNL     1      47.499   4.286  18.287  0.00  0.00    +0.000 HD
ENDBRANCH   5   7
BRANCH   3  14
ATOM     14  C   UNL     1      45.387   6.733  11.502  0.00  0.00    +0.000 C 
BRANCH  14  15
ATOM     15  N   UNL     1      45.619   6.144  10.187  0.00  0.00    +0.000 N 
ATOM     16  C   UNL     1      45.100   4.841  10.060  0.00  0.00    +0.000 A 
ATOM     17  C   UNL     1      45.262   4.179   8.857  0.00  0.00    +0.000 A 
ATOM     18  C   UNL     1      44.714   2.921   8.760  0.00  0.00    +0.000 A 
ATOM     19  N   UNL     1      44.048   2.324   9.761  0.00  0.00    +0.000 NA
ATOM     20  C   UNL     1      43.932   3.049  10.879  0.00  0.00    +0.000 A 
ATOM     21  N   UNL     1      44.421   4.282  11.075  0.00  0.00    +0.000 NA
ATOM     22  H   UNL     1      46.605   6.151   9.942  0.00  0.00    +0.000 HD
ENDBRANCH  14  15
ENDBRANCH   3  14
TORSDOF 3
ENDMDL
MODEL 7
REMARK VINA RESULT:    -5.874      3.872      7.991
REMARK INTER + INTRA:          -7.398
REMARK INTER:                  -6.979
REMARK INTRA:                  -0.419
REMARK UNBOUND:                -0.494
REMARK  Name = 
REMARK  3 active torsions:
REMARK  status: ('A' for Active; 'I' for Inactive)
REMARK    1  A    between atoms: C_3  and  C_4
REMARK    2  A    between atoms: C_4  and  N_5
REMARK    3  A    between atoms: C_13  and  N_14
REMARK                            x       y       z     vdW  Elec       q    Type
REMARK                         _______ _______ _______ _____ _____    ______ ____
ROOT
ATOM      1  C   UNL     1      47.333   7.862  12.282  0.00  0.00    +0.000 A 
ATOM      2  C   UNL     1      46.538   8.999  12.154  0.00  0.00    +0.000 A 
ATOM      3  C   UNL     1      45.189   8.874  11.812  0.00  0.00    +0.000 A 
ATOM      4  C   UNL     1      44.667   7.591  11.578  0.00  0.00    +0.000 A 
ATOM      5  C   UNL     1      45.451   6.432  11.684  0.00  0.00    +0.000 A 
ATOM      6  C   UNL     1      46.793   6.592  12.048  0.00  0.00    +0.000 A 
ENDROOT
BRANCH   5   7
ATOM      7  N   UNL     1      44.883   5.203  11.371  0.00  0.00    +0.000 N 
ATOM      8  C   UNL     1      45.162   4.572  10.075  0.00  0.00    +0.000 C 
ATOM      9  C   UNL     1      44.030   3.564   9.755  0.00  0.00    +0.000 C 
ATOM     10  N   UNL     1      43.832   2.539  10.806  0.00  0.00    +0.000 NA
ATOM     11  C   UNL     1      43.616   3.220  12.103  0.00  0.00    +0.000 C 
ATOM     12  C   UNL     1      44.720   4.238  12.474  0.00  0.00    +0.000 C 
ATOM     13  H   UNL     1      44.690   1.995  10.878  0.00  0.00    +0.000 HD
ENDBRANCH   5   7
BRANCH   3  14
ATOM     14  C   UNL     1      44.300  10.088  11.687  0.00  0.00    +0.000 C 
BRANCH  14  15
ATOM     15  N   UNL     1      43.076   9.749  10.967  0.00  0.00    +0.000 N 
ATOM     16  C   UNL     1      42.006  10.622  11.244  0.00  0.00    +0.000 A 
ATOM     17  C   UNL     1      40.792  10.398  10.621  0.00  0.00    +0.000 A 
ATOM     18  C   UNL     1      39.780  11.290  10.892  0.00  0.00    +0.000 A 
ATOM     19  N   UNL     1      39.919  12.339  11.717  0.00  0.00    +0.000 NA
ATOM     20  C   UNL     1      41.133  12.479  12.261  0.00  0.00    +0.000 A 
ATOM     21  N   UNL     1      42.186  11.674  12.060  0.00  0.00    +0.000 NA
ATOM     22  H   UNL     1      42.794   8.788  11.139  0.00  0.00    +0.000 HD
ENDBRANCH  14  15
ENDBRANCH   3  14
TORSDOF 3
ENDMDL
MODEL 8
REMARK VINA RESULT:    -5.518      4.253      6.384
REMARK INTER + INTRA:          -6.979
REMARK INTER:                  -6.563
REMARK INTRA:                  -0.416
REMARK UNBOUND:                -0.494
REMARK  Name = 
REMARK  3 active torsions:
REMARK  status: ('A' for Active; 'I' for Inactive)
REMARK    1  A    between atoms: C_3  and  C_4
REMARK    2  A    between atoms: C_4  and  N_5
REMARK    3  A    between atoms: C_13  and  N_14
REMARK                            x       y       z     vdW  Elec       q    Type
REMARK                         _______ _______ _______ _____ _____    ______ ____
ROOT
ATOM      1  C   UNL     1      44.363   5.069  11.482  0.00  0.00    +0.000 A 
ATOM      2  C   UNL     1      45.138   4.333  12.376  0.00  0.00    +0.000 A 
ATOM      3  C   UNL     1      46.057   4.983  13.205  0.00  0.00    +0.000 A 
ATOM      4  C   UNL     1      46.198   6.377  13.095  0.00  0.00    +0.000 A 
ATOM      5  C   UNL     1      45.441   7.138  12.190  0.00  0.00    +0.000 A 
ATOM      6  C   UNL     1      44.516   6.457  11.391  0.00  0.00    +0.000 A 
ENDROOT
BRANCH   5   7
ATOM      7  N   UNL     1      45.684   8.502  12.090  0.00  0.00    +0.000 N 
ATOM      8  C   UNL     1      44.573   9.432  11.854  0.00  0.00    +0.000 C 
ATOM      9  C   UNL     1      45.134  10.740  11.243  0.00  0.00    +0.000 C 
ATOM     10  N   UNL     1      46.187  11.378  12.068  0.00  0.00    +0.000 NA
ATOM     11  C   UNL     1      47.254  10.387  12.331  0.00  0.00    +0.000 C 
ATOM     12  C   UNL     1      46.748   9.060  12.945  0.00  0.00    +0.000 C 
ATOM     13  H   UNL     1      45.770  11.634  12.962  0.00  0.00    +0.000 HD
ENDBRANCH   5   7
BRANCH   3  14
ATOM     14  C   UNL     1      46.895   4.213  14.197  0.00  0.00    +0.000 C 
BRANCH  14  15
ATOM     15  N   UNL     1      47.223   5.053  15.345  0.00  0.00    +0.000 N 
ATOM     16  C   UNL     1      48.010   4.396  16.310  0.00  0.00    +0.000 A 
ATOM     17  C   UNL     1      48.382   5.092  17.445  0.00  0.00    +0.000 A 
ATOM     18  C   UNL     1      49.177   4.427  18.350  0.00  0.00    +0.000 A 
ATOM     19  N   UNL     1      49.594   3.162  18.181  0.00  0.00    +0.000 NA
ATOM     20  C   UNL     1      49.193   2.578  17.046  0.00  0.00    +0.000 A 
ATOM     21  N   UNL     1      48.426   3.136  16.099  0.00  0.00    +0.000 NA
ATOM     22  H   UNL     1      46.389   5.436  15.779  0.00  0.00    +0.000 HD
ENDBRANCH  14  15
ENDBRANCH   3  14
TORSDOF 3
ENDMDL
MODEL 9
REMARK VINA RESULT:    -5.306      4.699      7.090
REMARK INTER + INTRA:          -6.730
REMARK INTER:                  -6.293
REMARK INTRA:                  -0.437
REMARK UNBOUND:                -0.494
REMARK  Name = 
REMARK  3 active torsions:
REMARK  status: ('A' for Active; 'I' for Inactive)
REMARK    1  A    between atoms: C_3  and  C_4
REMARK    2  A    between atoms: C_4  and  N_5
REMARK    3  A    between atoms: C_13  and  N_14
REMARK                            x       y       z     vdW  Elec       q    Type
REMARK                         _______ _______ _______ _____ _____    ______ ____
ROOT
ATOM      1  C   UNL     1      45.131  12.026  11.374  0.00  0.00    +0.000 A 
ATOM      2  C   UNL     1      45.494  10.713  11.664  0.00  0.00    +0.000 A 
ATOM      3  C   UNL     1      44.583   9.673  11.458  0.00  0.00    +0.000 A 
ATOM      4  C   UNL     1      43.298   9.985  10.984  0.00  0.00    +0.000 A 
ATOM      5  C   UNL     1      42.902  11.301  10.700  0.00  0.00    +0.000 A 
ATOM      6  C   UNL     1      43.847  12.315  10.898  0.00  0.00    +0.000 A 
ENDROOT
BRANCH   5   7
ATOM      7  N   UNL     1      41.594  11.540  10.298  0.00  0.00    +0.000 N 
ATOM      8  C   UNL     1      41.326  12.326   9.088  0.00  0.00    +0.000 C 
ATOM      9  C   UNL     1      39.892  12.904   9.172  0.00  0.00    +0.000 C 
ATOM     10  N   UNL     1      38.846  11.874   9.369  0.00  0.00    +0.000 NA
ATOM     11  C   UNL     1      39.189  11.067  10.563  0.00  0.00    +0.000 C 
ATOM     12  C   UNL     1      40.613  10.463  10.530  0.00  0.00    +0.000 C 
ATOM     13  H   UNL     1      38.861  11.255   8.560  0.00  0.00    +0.000 HD
ENDBRANCH   5   7
BRANCH   3  14
ATOM     14  C   UNL     1      44.957   8.239  11.745  0.00  0.00    +0.000 C 
BRANCH  14  15
ATOM     15  N   UNL     1      43.972   7.331  11.165  0.00  0.00    +0.000 N 
ATOM     16  C   UNL     1      44.006   6.039  11.725  0.00  0.00    +0.000 A 
ATOM     17  C   UNL     1      43.118   5.091  11.252  0.00  0.00    +0.000 A 
ATOM     18  C   UNL     1      43.159   3.850  11.846  0.00  0.00    +0.000 A 
ATOM     19  N   UNL     1      44.006   3.531  12.837  0.00  0.00    +0.000 NA
ATOM     20  C   UNL     1      44.815   4.519  13.234  0.00  0.00    +0.000 A 
ATOM     21  N   UNL     1      44.852   5.760  12.730  0.00  0.00    +0.000 NA
ATOM     22  H   UNL     1      44.063   7.274  10.155  0.00  0.00    +0.000 HD
ENDBRANCH  14  15
ENDBRANCH   3  14
TORSDOF 3
ENDMDL
