MODEL 1
REMARK VINA RESULT:    -7.919      0.000      0.000
REMARK INTER + INTRA:         -12.078
REMARK INTER:                 -11.392
REMARK INTRA:                  -0.686
REMARK UNBOUND:                -0.686
REMARK  Name = 
REMARK  9 active torsions:
REMARK  status: ('A' for Active; 'I' for Inactive)
REMARK    1  A    between atoms: C_1  and  O_2
REMARK    2  A    between atoms: O_2  and  C_3
REMARK    3  A    between atoms: C_6  and  C_7
REMARK    4  A    between atoms: C_8  and  C_9
REMARK    5  A    between atoms: C_9  and  O_10
REMARK    6  A    between atoms: O_10  and  C_11
REMARK    7  A    between atoms: C_14  and  C_15
REMARK    8  A    between atoms: C_21  and  C_22
REMARK    9  A    between atoms: C_22  and  N_23
REMARK                            x       y       z     vdW  Elec       q    Type
REMARK                         _______ _______ _______ _____ _____    ______ ____
ROOT
ATOM      1  C   UNL     1      45.700   4.146  12.641  0.00  0.00    +0.000 C 
ATOM      2  C   UNL     1      44.549   4.682  12.202  0.00  0.00    +0.000 C 
ENDROOT
BRANCH   1   6
ATOM      3  C   UNL     1      48.294   6.028  15.495  0.00  0.00    +0.000 A 
ATOM      4  C   UNL     1      48.177   6.543  14.200  0.00  0.00    +0.000 A 
ATOM      5  C   UNL     1      47.341   5.938  13.261  0.00  0.00    +0.000 A 
ATOM      6  C   UNL     1      46.601   4.803  13.594  0.00  0.00    +0.000 A 
ATOM      7  C   UNL     1      46.749   4.261  14.876  0.00  0.00    +0.000 A 
ATOM      8  C   UNL     1      47.580   4.867  15.842  0.00  0.00    +0.000 A 
BRANCH   3  10
ATOM      9  C   UNL     1      50.394   6.990  16.023  0.00  0.00    +0.000 C 
ATOM     10  O   UNL     1      49.103   6.575  16.455  0.00  0.00    +0.000 OA
ENDBRANCH   3  10
BRANCH   8  11
ATOM     11  C   UNL     1      47.674   4.238  17.212  0.00  0.00    +0.000 C 
BRANCH  11  12
ATOM     12  N   UNL     1      46.670   3.188  17.394  0.00  0.00    +0.000 NA
ATOM     13  H   UNL     1      46.201   3.349  18.284  0.00  0.00    +0.000 HD
ATOM     14  H   UNL     1      47.145   2.293  17.481  0.00  0.00    +0.000 HD
ENDBRANCH  11  12
ENDBRANCH   8  11
ENDBRANCH   1   6
BRANCH   2  15
ATOM     15  C   UNL     1      43.595   3.962  11.304  0.00  0.00    +0.000 C 
BRANCH  15  16
ATOM     16  O   UNL     1      43.683   4.536  10.002  0.00  0.00    +0.000 OA
BRANCH  16  17
ATOM     17  C   UNL     1      44.600   3.870   9.215  0.00  0.00    +0.000 A 
ATOM     18  C   UNL     1      44.686   2.497   9.367  0.00  0.00    +0.000 A 
ATOM     19  C   UNL     1      45.624   1.808   8.596  0.00  0.00    +0.000 A 
ATOM     20  C   UNL     1      46.443   2.508   7.704  0.00  0.00    +0.000 A 
ATOM     21  C   UNL     1      46.268   3.882   7.624  0.00  0.00    +0.000 A 
ATOM     22  N   UNL     1      45.371   4.576   8.360  0.00  0.00    +0.000 NA
BRANCH  20  23
ATOM     23  C   UNL     1      47.448   1.773   6.902  0.00  0.00    +0.000 C 
ATOM     24  N   UNL     1      48.559   2.437   6.455  0.00  0.00    +0.000 N 
ATOM     25  O   UNL     1      47.298   0.587   6.639  0.00  0.00    +0.000 OA
ATOM     26  H   UNL     1      48.784   3.404   6.612  0.00  0.00    +0.000 HD
ATOM     27  H   UNL     1      49.218   1.889   5.917  0.00  0.00    +0.000 HD
ENDBRANCH  20  23
ENDBRANCH  16  17
ENDBRANCH  15  16
ENDBRANCH   2  15
TORSDOF 8
ENDMDL
MODEL 2
REMARK VINA RESULT:    -7.347      1.785      2.207
REMARK INTER + INTRA:         -11.254
REMARK INTER:                 -10.416
REMARK INTRA:                  -0.838
REMARK UNBOUND:                -0.686
REMARK  Name = 
REMARK  9 active torsions:
REMARK  status: ('A' for Active; 'I' for Inactive)
REMARK    1  A    between atoms: C_1  and  O_2
REMARK    2  A    between atoms: O_2  and  C_3
REMARK    3  A    between atoms: C_6  and  C_7
REMARK    4  A    between atoms: C_8  and  C_9
REMARK    5  A    between atoms: C_9  and  O_10
REMARK    6  A    between atoms: O_10  and  C_11
REMARK    7  A    between atoms: C_14  and  C_15
REMARK    8  A    between atoms: C_21  and  C_22
REMARK    9  A    between atoms: C_22  and  N_23
REMARK                            x       y       z     vdW  Elec       q    Type
REMARK                         _______ _______ _______ _____ _____    ______ ____
ROOT
ATOM      1  C   UNL     1      45.173   5.125  12.199  0.00  0.00    +0.000 C 
ATOM      2  C   UNL     1      45.142   3.808  11.934  0.00  0.00    +0.000 C 
ENDROOT
BRANCH   1   6
ATOM      3  C   UNL     1      48.719   7.281  13.292  0.00  0.00    +0.000 A 
ATOM      4  C   UNL     1      48.193   7.395  12.001  0.00  0.00    +0.000 A 
ATOM      5  C   UNL     1      47.044   6.695  11.632  0.00  0.00    +0.000 A 
ATOM      6  C   UNL     1      46.392   5.865  12.543  0.00  0.00    +0.000 A 
ATOM      7  C   UNL     1      46.940   5.717  13.823  0.00  0.00    +0.000 A 
ATOM      8  C   UNL     1      48.095   6.427  14.217  0.00  0.00    +0.000 A 
BRANCH   3  10
ATOM      9  C   UNL     1      50.072   9.220  13.133  0.00  0.00    +0.000 C 
ATOM     10  O   UNL     1      49.846   7.938  13.709  0.00  0.00    +0.000 OA
ENDBRANCH   3  10
BRANCH   8  11
ATOM     11  C   UNL     1      48.617   6.232  15.621  0.00  0.00    +0.000 C 
BRANCH  11  12
ATOM     12  N   UNL     1      48.448   7.440  16.432  0.00  0.00    +0.000 NA
ATOM     13  H   UNL     1      48.710   7.216  17.391  0.00  0.00    +0.000 HD
ATOM     14  H   UNL     1      47.460   7.681  16.456  0.00  0.00    +0.000 HD
ENDBRANCH  11  12
ENDBRANCH   8  11
ENDBRANCH   1   6
BRANCH   2  15
ATOM     15  C   UNL     1      43.910   3.086  11.493  0.00  0.00    +0.000 C 
BRANCH  15  16
ATOM     16  O   UNL     1      43.591   3.509  10.169  0.00  0.00    +0.000 OA
BRANCH  16  17
ATOM     17  C   UNL     1      44.596   3.191   9.279  0.00  0.00    +0.000 A 
ATOM     18  C   UNL     1      45.137   4.227   8.537  0.00  0.00    +0.000 A 
ATOM     19  C   UNL     1      46.140   3.923   7.616  0.00  0.00    +0.000 A 
ATOM     20  C   UNL     1      46.569   2.600   7.464  0.00  0.00    +0.000 A 
ATOM     21  C   UNL     1      45.967   1.640   8.265  0.00  0.00    +0.000 A 
ATOM     22  N   UNL     1      44.991   1.905   9.162  0.00  0.00    +0.000 NA
BRANCH  20  23
ATOM     23  C   UNL     1      47.621   2.280   6.472  0.00  0.00    +0.000 C 
ATOM     24  N   UNL     1      47.724   3.042   5.340  0.00  0.00    +0.000 N 
ATOM     25  O   UNL     1      48.397   1.349   6.655  0.00  0.00    +0.000 OA
ATOM     26  H   UNL     1      47.146   3.825   5.090  0.00  0.00    +0.000 HD
ATOM     27  H   UNL     1      48.463   2.787   4.697  0.00  0.00    +0.000 HD
ENDBRANCH  20  23
ENDBRANCH  16  17
ENDBRANCH  15  16
ENDBRANCH   2  15
TORSDOF 8
ENDMDL
MODEL 3
REMARK VINA RESULT:    -7.228      1.506      2.053
REMARK INTER + INTRA:         -11.082
REMARK INTER:                 -10.266
REMARK INTRA:                  -0.816
REMARK UNBOUND:                -0.686
REMARK  Name = 
REMARK  9 active torsions:
REMARK  status: ('A' for Active; 'I' for Inactive)
REMARK    1  A    between atoms: C_1  and  O_2
REMARK    2  A    between atoms: O_2  and  C_3
REMARK    3  A    between atoms: C_6  and  C_7
REMARK    4  A    between atoms: C_8  and  C_9
REMARK    5  A    between atoms: C_9  and  O_10
REMARK    6  A    between atoms: O_10  and  C_11
REMARK    7  A    between atoms: C_14  and  C_15
REMARK    8  A    between atoms: C_21  and  C_22
REMARK    9  A    between atoms: C_22  and  N_23
REMARK                            x       y       z     vdW  Elec       q    Type
REMARK                         _______ _______ _______ _____ _____    ______ ____
ROOT
ATOM      1  C   UNL     1      45.773   4.158  12.442  0.00  0.00    +0.000 C 
ATOM      2  C   UNL     1      44.437   4.267  12.346  0.00  0.00    +0.000 C 
ENDROOT
BRANCH   1   6
ATOM      3  C   UNL     1      48.139   5.970  15.529  0.00  0.00    +0.000 A 
ATOM      4  C   UNL     1      47.655   4.666  15.684  0.00  0.00    +0.000 A 
ATOM      5  C   UNL     1      46.881   4.068  14.689  0.00  0.00    +0.000 A 
ATOM      6  C   UNL     1      46.571   4.758  13.517  0.00  0.00    +0.000 A 
ATOM      7  C   UNL     1      47.019   6.077  13.378  0.00  0.00    +0.000 A 
ATOM      8  C   UNL     1      47.813   6.693  14.369  0.00  0.00    +0.000 A 
BRANCH   3  10
ATOM      9  C   UNL     1      49.069   5.925  17.708  0.00  0.00    +0.000 C 
ATOM     10  O   UNL     1      48.897   6.611  16.473  0.00  0.00    +0.000 OA
ENDBRANCH   3  10
BRANCH   8  11
ATOM     11  C   UNL     1      48.278   8.113  14.141  0.00  0.00    +0.000 C 
BRANCH  11  12
ATOM     12  N   UNL     1      47.582   9.055  15.020  0.00  0.00    +0.000 NA
ATOM     13  H   UNL     1      48.253   9.404  15.704  0.00  0.00    +0.000 HD
ATOM     14  H   UNL     1      46.876   8.548  15.548  0.00  0.00    +0.000 HD
ENDBRANCH  11  12
ENDBRANCH   8  11
ENDBRANCH   1   6
BRANCH   2  15
ATOM     15  C   UNL     1      43.628   3.573  11.298  0.00  0.00    +0.000 C 
BRANCH  15  16
ATOM     16  O   UNL     1      43.725   4.321  10.087  0.00  0.00    +0.000 OA
BRANCH  16  17
ATOM     17  C   UNL     1      44.663   3.781   9.232  0.00  0.00    +0.000 A 
ATOM     18  C   UNL     1      44.847   2.409   9.277  0.00  0.00    +0.000 A 
ATOM     19  C   UNL     1      45.808   1.847   8.435  0.00  0.00    +0.000 A 
ATOM     20  C   UNL     1      46.552   2.668   7.581  0.00  0.00    +0.000 A 
ATOM     21  C   UNL     1      46.281   4.027   7.609  0.00  0.00    +0.000 A 
ATOM     22  N   UNL     1      45.360   4.601   8.416  0.00  0.00    +0.000 NA
BRANCH  20  23
ATOM     23  C   UNL     1      47.583   2.067   6.703  0.00  0.00    +0.000 C 
ATOM     24  N   UNL     1      48.076   2.798   5.656  0.00  0.00    +0.000 N 
ATOM     25  O   UNL     1      47.998   0.932   6.905  0.00  0.00    +0.000 OA
ATOM     26  H   UNL     1      47.810   3.732   5.399  0.00  0.00    +0.000 HD
ATOM     27  H   UNL     1      48.782   2.345   5.090  0.00  0.00    +0.000 HD
ENDBRANCH  20  23
ENDBRANCH  16  17
ENDBRANCH  15  16
ENDBRANCH   2  15
TORSDOF 8
ENDMDL
MODEL 4
REMARK VINA RESULT:    -7.081      2.973      3.589
REMARK INTER + INTRA:         -10.871
REMARK INTER:                 -10.162
REMARK INTRA:                  -0.709
REMARK UNBOUND:                -0.686
REMARK  Name = 
REMARK  9 active torsions:
REMARK  status: ('A' for Active; 'I' for Inactive)
REMARK    1  A    between atoms: C_1  and  O_2
REMARK    2  A    between atoms: O_2  and  C_3
REMARK    3  A    between atoms: C_6  and  C_7
REMARK    4  A    between atoms: C_8  and  C_9
REMARK    5  A    between atoms: C_9  and  O_10
REMARK    6  A    between atoms: O_10  and  C_11
REMARK    7  A    between atoms: C_14  and  C_15
REMARK    8  A    between atoms: C_21  and  C_22
REMARK    9  A    between atoms: C_22  and  N_23
REMARK                            x       y       z     vdW  Elec       q    Type
REMARK                         _______ _______ _______ _____ _____    ______ ____
ROOT
ATOM      1  C   UNL     1      46.085   5.751  11.736  0.00  0.00    +0.000 C 
ATOM      2  C   UNL     1      44.767   5.823  11.486  0.00  0.00    +0.000 C 
ENDROOT
BRANCH   1   6
ATOM      3  C   UNL     1      48.477   9.183  12.693  0.00  0.00    +0.000 A 
ATOM      4  C   UNL     1      48.988   7.894  12.874  0.00  0.00    +0.000 A 
ATOM      5  C   UNL     1      48.218   6.770  12.572  0.00  0.00    +0.000 A 
ATOM      6  C   UNL     1      46.920   6.907  12.081  0.00  0.00    +0.000 A 
ATOM      7  C   UNL     1      46.392   8.196  11.938  0.00  0.00    +0.000 A 
ATOM      8  C   UNL     1      47.160   9.344  12.228  0.00  0.00    +0.000 A 
BRANCH   3  10
ATOM      9  C   UNL     1      50.596  10.234  12.838  0.00  0.00    +0.000 C 
ATOM     10  O   UNL     1      49.182  10.322  12.979  0.00  0.00    +0.000 OA
ENDBRANCH   3  10
BRANCH   8  11
ATOM     11  C   UNL     1      46.530  10.702  12.031  0.00  0.00    +0.000 C 
BRANCH  11  12
ATOM     12  N   UNL     1      45.080  10.659  12.225  0.00  0.00    +0.000 NA
ATOM     13  H   UNL     1      44.673  11.470  11.762  0.00  0.00    +0.000 HD
ATOM     14  H   UNL     1      44.880  10.769  13.217  0.00  0.00    +0.000 HD
ENDBRANCH  11  12
ENDBRANCH   8  11
ENDBRANCH   1   6
BRANCH   2  15
ATOM     15  C   UNL     1      43.911   4.624  11.229  0.00  0.00    +0.000 C 
BRANCH  15  16
ATOM     16  O   UNL     1      43.579   4.599   9.842  0.00  0.00    +0.000 OA
BRANCH  16  17
ATOM     17  C   UNL     1      44.520   3.909   9.107  0.00  0.00    +0.000 A 
ATOM     18  C   UNL     1      44.630   2.548   9.337  0.00  0.00    +0.000 A 
ATOM     19  C   UNL     1      45.593   1.836   8.619  0.00  0.00    +0.000 A 
ATOM     20  C   UNL     1      46.411   2.502   7.701  0.00  0.00    +0.000 A 
ATOM     21  C   UNL     1      46.211   3.865   7.542  0.00  0.00    +0.000 A 
ATOM     22  N   UNL     1      45.290   4.582   8.225  0.00  0.00    +0.000 NA
BRANCH  20  23
ATOM     23  C   UNL     1      47.443   1.744   6.955  0.00  0.00    +0.000 C 
ATOM     24  N   UNL     1      48.525   2.412   6.449  0.00  0.00    +0.000 N 
ATOM     25  O   UNL     1      47.339   0.535   6.791  0.00  0.00    +0.000 OA
ATOM     26  H   UNL     1      48.712   3.396   6.524  0.00  0.00    +0.000 HD
ATOM     27  H   UNL     1      49.204   1.848   5.953  0.00  0.00    +0.000 HD
ENDBRANCH  20  23
ENDBRANCH  16  17
ENDBRANCH  15  16
ENDBRANCH   2  15
TORSDOF 8
ENDMDL
MODEL 5
REMARK VINA RESULT:    -7.053      2.253      2.917
REMARK INTER + INTRA:         -10.832
REMARK INTER:                 -10.311
REMARK INTRA:                  -0.521
REMARK UNBOUND:                -0.686
REMARK  Name = 
REMARK  9 active torsions:
REMARK  status: ('A' for Active; 'I' for Inactive)
REMARK    1  A    between atoms: C_1  and  O_2
REMARK    2  A    between atoms: O_2  and  C_3
REMARK    3  A    between atoms: C_6  and  C_7
REMARK    4  A    between atoms: C_8  and  C_9
REMARK    5  A    between atoms: C_9  and  O_10
REMARK    6  A    between atoms: O_10  and  C_11
REMARK    7  A    between atoms: C_14  and  C_15
REMARK    8  A    between atoms: C_21  and  C_22
REMARK    9  A    between atoms: C_22  and  N_23
REMARK                            x       y       z     vdW  Elec       q    Type
REMARK                         _______ _______ _______ _____ _____    ______ ____
ROOT
ATOM      1  C   UNL     1      45.713   5.609  11.622  0.00  0.00    +0.000 C 
ATOM      2  C   UNL     1      44.843   4.721  12.132  0.00  0.00    +0.000 C 
ENDROOT
BRANCH   1   6
ATOM      3  C   UNL     1      49.052   7.286  13.731  0.00  0.00    +0.000 A 
ATOM      4  C   UNL     1      48.128   6.476  14.401  0.00  0.00    +0.000 A 
ATOM      5  C   UNL     1      47.036   5.929  13.727  0.00  0.00    +0.000 A 
ATOM      6  C   UNL     1      46.839   6.177  12.369  0.00  0.00    +0.000 A 
ATOM      7  C   UNL     1      47.739   7.021  11.707  0.00  0.00    +0.000 A 
ATOM      8  C   UNL     1      48.857   7.573  12.369  0.00  0.00    +0.000 A 
BRANCH   3  10
ATOM      9  C   UNL     1      50.689   7.135  15.439  0.00  0.00    +0.000 C 
ATOM     10  O   UNL     1      50.138   7.855  14.341  0.00  0.00    +0.000 OA
ENDBRANCH   3  10
BRANCH   8  11
ATOM     11  C   UNL     1      49.796   8.459  11.585  0.00  0.00    +0.000 C 
BRANCH  11  12
ATOM     12  N   UNL     1      49.792   9.833  12.091  0.00  0.00    +0.000 NA
ATOM     13  H   UNL     1      50.734  10.209  11.992  0.00  0.00    +0.000 HD
ATOM     14  H   UNL     1      49.597   9.812  13.090  0.00  0.00    +0.000 HD
ENDBRANCH  11  12
ENDBRANCH   8  11
ENDBRANCH   1   6
BRANCH   2  15
ATOM     15  C   UNL     1      43.756   4.080  11.330  0.00  0.00    +0.000 C 
BRANCH  15  16
ATOM     16  O   UNL     1      43.798   4.612  10.008  0.00  0.00    +0.000 OA
BRANCH  16  17
ATOM     17  C   UNL     1      44.683   3.917   9.210  0.00  0.00    +0.000 A 
ATOM     18  C   UNL     1      44.702   2.538   9.337  0.00  0.00    +0.000 A 
ATOM     19  C   UNL     1      45.606   1.819   8.554  0.00  0.00    +0.000 A 
ATOM     20  C   UNL     1      46.458   2.495   7.674  0.00  0.00    +0.000 A 
ATOM     21  C   UNL     1      46.350   3.876   7.619  0.00  0.00    +0.000 A 
ATOM     22  N   UNL     1      45.487   4.600   8.367  0.00  0.00    +0.000 NA
BRANCH  20  23
ATOM     23  C   UNL     1      47.428   1.726   6.859  0.00  0.00    +0.000 C 
ATOM     24  N   UNL     1      48.514   2.371   6.331  0.00  0.00    +0.000 N 
ATOM     25  O   UNL     1      47.270   0.529   6.656  0.00  0.00    +0.000 OA
ATOM     26  H   UNL     1      48.742   3.344   6.434  0.00  0.00    +0.000 HD
ATOM     27  H   UNL     1      49.149   1.801   5.787  0.00  0.00    +0.000 HD
ENDBRANCH  20  23
ENDBRANCH  16  17
ENDBRANCH  15  16
ENDBRANCH   2  15
TORSDOF 8
ENDMDL
MODEL 6
REMARK VINA RESULT:    -6.344      3.063      8.330
REMARK INTER + INTRA:          -9.812
REMARK INTER:                  -9.058
REMARK INTRA:                  -0.754
REMARK UNBOUND:                -0.686
REMARK  Name = 
REMARK  9 active torsions:
REMARK  status: ('A' for Active; 'I' for Inactive)
REMARK    1  A    between atoms: C_1  and  O_2
REMARK    2  A    between atoms: O_2  and  C_3
REMARK    3  A    between atoms: C_6  and  C_7
REMARK    4  A    between atoms: C_8  and  C_9
REMARK    5  A    between atoms: C_9  and  O_10
REMARK    6  A    between atoms: O_10  and  C_11
REMARK    7  A    between atoms: C_14  and  C_15
REMARK    8  A    between atoms: C_21  and  C_22
REMARK    9  A    between atoms: C_22  and  N_23
REMARK                            x       y       z     vdW  Elec       q    Type
REMARK                         _______ _______ _______ _____ _____    ______ ____
ROOT
ATOM      1  C   UNL     1      47.519   6.206  13.715  0.00  0.00    +0.000 C 
ATOM      2  C   UNL     1      47.692   5.494  14.841  0.00  0.00    +0.000 C 
ENDROOT
BRANCH   1   6
ATOM      3  C   UNL     1      45.014   4.891  10.488  0.00  0.00    +0.000 A 
ATOM      4  C   UNL     1      45.813   6.031  10.343  0.00  0.00    +0.000 A 
ATOM      5  C   UNL     1      46.628   6.472  11.387  0.00  0.00    +0.000 A 
ATOM      6  C   UNL     1      46.664   5.784  12.600  0.00  0.00    +0.000 A 
ATOM      7  C   UNL     1      45.835   4.668  12.761  0.00  0.00    +0.000 A 
ATOM      8  C   UNL     1      45.014   4.201  11.713  0.00  0.00    +0.000 A 
BRANCH   3  10
ATOM      9  C   UNL     1      44.834   3.806   8.389  0.00  0.00    +0.000 C 
ATOM     10  O   UNL     1      44.191   4.416   9.502  0.00  0.00    +0.000 OA
ENDBRANCH   3  10
BRANCH   8  11
ATOM     11  C   UNL     1      44.161   2.978  11.953  0.00  0.00    +0.000 C 
BRANCH  11  12
ATOM     12  N   UNL     1      42.762   3.215  11.590  0.00  0.00    +0.000 NA
ATOM     13  H   UNL     1      42.359   3.848  12.280  0.00  0.00    +0.000 HD
ATOM     14  H   UNL     1      42.250   2.340  11.675  0.00  0.00    +0.000 HD
ENDBRANCH  11  12
ENDBRANCH   8  11
ENDBRANCH   1   6
BRANCH   2  15
ATOM     15  C   UNL     1      48.491   5.980  16.007  0.00  0.00    +0.000 C 
BRANCH  15  16
ATOM     16  O   UNL     1      48.235   5.121  17.117  0.00  0.00    +0.000 OA
BRANCH  16  17
ATOM     17  C   UNL     1      49.234   4.183  17.272  0.00  0.00    +0.000 A 
ATOM     18  C   UNL     1      50.436   4.619  17.803  0.00  0.00    +0.000 A 
ATOM     19  C   UNL     1      51.467   3.689  17.947  0.00  0.00    +0.000 A 
ATOM     20  C   UNL     1      51.266   2.360  17.558  0.00  0.00    +0.000 A 
ATOM     21  C   UNL     1      50.021   2.028  17.047  0.00  0.00    +0.000 A 
ATOM     22  N   UNL     1      49.005   2.907  16.891  0.00  0.00    +0.000 NA
BRANCH  20  23
ATOM     23  C   UNL     1      52.370   1.382  17.697  0.00  0.00    +0.000 C 
ATOM     24  N   UNL     1      52.105   0.149  18.229  0.00  0.00    +0.000 N 
ATOM     25  O   UNL     1      53.508   1.662  17.340  0.00  0.00    +0.000 OA
ATOM     26  H   UNL     1      51.215  -0.186  18.551  0.00  0.00    +0.000 HD
ATOM     27  H   UNL     1      52.891  -0.485  18.297  0.00  0.00    +0.000 HD
ENDBRANCH  20  23
ENDBRANCH  16  17
ENDBRANCH  15  16
ENDBRANCH   2  15
TORSDOF 8
ENDMDL
MODEL 7
REMARK VINA RESULT:    -6.119      4.186      8.643
REMARK INTER + INTRA:          -9.487
REMARK INTER:                  -8.718
REMARK INTRA:                  -0.769
REMARK UNBOUND:                -0.686
REMARK  Name = 
REMARK  9 active torsions:
REMARK  status: ('A' for Active; 'I' for Inactive)
REMARK    1  A    between atoms: C_1  and  O_2
REMARK    2  A    between atoms: O_2  and  C_3
REMARK    3  A    between atoms: C_6  and  C_7
REMARK    4  A    between atoms: C_8  and  C_9
REMARK    5  A    between atoms: C_9  and  O_10
REMARK    6  A    between atoms: O_10  and  C_11
REMARK    7  A    between atoms: C_14  and  C_15
REMARK    8  A    between atoms: C_21  and  C_22
REMARK    9  A    between atoms: C_22  and  N_23
REMARK                            x       y       z     vdW  Elec       q    Type
REMARK                         _______ _______ _______ _____ _____    ______ ____
ROOT
ATOM      1  C   UNL     1      47.186   3.969  14.763  0.00  0.00    +0.000 C 
ATOM      2  C   UNL     1      47.230   4.132  16.096  0.00  0.00    +0.000 C 
ENDROOT
BRANCH   1   6
ATOM      3  C   UNL     1      45.509   6.808  12.016  0.00  0.00    +0.000 A 
ATOM      4  C   UNL     1      46.822   6.960  12.475  0.00  0.00    +0.000 A 
ATOM      5  C   UNL     1      47.377   6.046  13.372  0.00  0.00    +0.000 A 
ATOM      6  C   UNL     1      46.634   4.959  13.833  0.00  0.00    +0.000 A 
ATOM      7  C   UNL     1      45.307   4.829  13.407  0.00  0.00    +0.000 A 
ATOM      8  C   UNL     1      44.733   5.736  12.491  0.00  0.00    +0.000 A 
BRANCH   3  10
ATOM      9  C   UNL     1      44.725   9.007  11.610  0.00  0.00    +0.000 C 
ATOM     10  O   UNL     1      44.910   7.675  11.142  0.00  0.00    +0.000 OA
ENDBRANCH   3  10
BRANCH   8  11
ATOM     11  C   UNL     1      43.301   5.520  12.061  0.00  0.00    +0.000 C 
BRANCH  11  12
ATOM     12  N   UNL     1      43.173   5.498  10.603  0.00  0.00    +0.000 NA
ATOM     13  H   UNL     1      42.947   4.545  10.320  0.00  0.00    +0.000 HD
ATOM     14  H   UNL     1      44.079   5.709  10.192  0.00  0.00    +0.000 HD
ENDBRANCH  11  12
ENDBRANCH   8  11
ENDBRANCH   1   6
BRANCH   2  15
ATOM     15  C   UNL     1      47.881   3.156  17.024  0.00  0.00    +0.000 C 
BRANCH  15  16
ATOM     16  O   UNL     1      48.840   2.404  16.284  0.00  0.00    +0.000 OA
BRANCH  16  17
ATOM     17  C   UNL     1      50.068   2.391  16.912  0.00  0.00    +0.000 A 
ATOM     18  C   UNL     1      50.499   3.576  17.485  0.00  0.00    +0.000 A 
ATOM     19  C   UNL     1      51.748   3.590  18.105  0.00  0.00    +0.000 A 
ATOM     20  C   UNL     1      52.525   2.427  18.134  0.00  0.00    +0.000 A 
ATOM     21  C   UNL     1      51.995   1.292  17.538  0.00  0.00    +0.000 A 
ATOM     22  N   UNL     1      50.790   1.250  16.926  0.00  0.00    +0.000 NA
BRANCH  20  23
ATOM     23  C   UNL     1      53.859   2.452  18.779  0.00  0.00    +0.000 C 
ATOM     24  N   UNL     1      54.784   3.370  18.361  0.00  0.00    +0.000 N 
ATOM     25  O   UNL     1      54.138   1.668  19.677  0.00  0.00    +0.000 OA
ATOM     26  H   UNL     1      54.663   4.057  17.638  0.00  0.00    +0.000 HD
ATOM     27  H   UNL     1      55.677   3.350  18.837  0.00  0.00    +0.000 HD
ENDBRANCH  20  23
ENDBRANCH  16  17
ENDBRANCH  15  16
ENDBRANCH   2  15
TORSDOF 8
ENDMDL
MODEL 8
REMARK VINA RESULT:    -6.012      2.949      8.806
REMARK INTER + INTRA:          -9.334
REMARK INTER:                  -8.373
REMARK INTRA:                  -0.961
REMARK UNBOUND:                -0.686
REMARK  Name = 
REMARK  9 active torsions:
REMARK  status: ('A' for Active; 'I' for Inactive)
REMARK    1  A    between atoms: C_1  and  O_2
REMARK    2  A    between atoms: O_2  and  C_3
REMARK    3  A    between atoms: C_6  and  C_7
REMARK    4  A    between atoms: C_8  and  C_9
REMARK    5  A    between atoms: C_9  and  O_10
REMARK    6  A    between atoms: O_10  and  C_11
REMARK    7  A    between atoms: C_14  and  C_15
REMARK    8  A    between atoms: C_21  and  C_22
REMARK    9  A    between atoms: C_22  and  N_23
REMARK                            x       y       z     vdW  Elec       q    Type
REMARK                         _______ _______ _______ _____ _____    ______ ____
ROOT
ATOM      1  C   UNL     1      47.293   6.993  13.702  0.00  0.00    +0.000 C 
ATOM      2  C   UNL     1      48.613   7.172  13.528  0.00  0.00    +0.000 C 
ENDROOT
BRANCH   1   6
ATOM      3  C   UNL     1      44.729   4.929  10.949  0.00  0.00    +0.000 A 
ATOM      4  C   UNL     1      45.716   5.801  10.476  0.00  0.00    +0.000 A 
ATOM      5  C   UNL     1      46.553   6.482  11.362  0.00  0.00    +0.000 A 
ATOM      6  C   UNL     1      46.424   6.308  12.740  0.00  0.00    +0.000 A 
ATOM      7  C   UNL     1      45.409   5.468  13.215  0.00  0.00    +0.000 A 
ATOM      8  C   UNL     1      44.562   4.763  12.334  0.00  0.00    +0.000 A 
BRANCH   3  10
ATOM      9  C   UNL     1      44.484   3.357   9.192  0.00  0.00    +0.000 C 
ATOM     10  O   UNL     1      43.876   4.240  10.129  0.00  0.00    +0.000 OA
ENDBRANCH   3  10
BRANCH   8  11
ATOM     11  C   UNL     1      43.503   3.859  12.920  0.00  0.00    +0.000 C 
BRANCH  11  12
ATOM     12  N   UNL     1      43.740   2.456  12.575  0.00  0.00    +0.000 NA
ATOM     13  H   UNL     1      44.188   2.426  11.661  0.00  0.00    +0.000 HD
ATOM     14  H   UNL     1      42.841   1.990  12.467  0.00  0.00    +0.000 HD
ENDBRANCH  11  12
ENDBRANCH   8  11
ENDBRANCH   1   6
BRANCH   2  15
ATOM     15  C   UNL     1      49.503   7.789  14.560  0.00  0.00    +0.000 C 
BRANCH  15  16
ATOM     16  O   UNL     1      50.279   6.754  15.160  0.00  0.00    +0.000 OA
BRANCH  16  17
ATOM     17  C   UNL     1      49.750   6.360  16.371  0.00  0.00    +0.000 A 
ATOM     18  C   UNL     1      49.437   7.357  17.280  0.00  0.00    +0.000 A 
ATOM     19  C   UNL     1      48.921   6.978  18.520  0.00  0.00    +0.000 A 
ATOM     20  C   UNL     1      48.734   5.622  18.812  0.00  0.00    +0.000 A 
ATOM     21  C   UNL     1      49.071   4.707  17.827  0.00  0.00    +0.000 A 
ATOM     22  N   UNL     1      49.577   5.044  16.619  0.00  0.00    +0.000 NA
BRANCH  20  23
ATOM     23  C   UNL     1      48.202   5.225  20.137  0.00  0.00    +0.000 C 
ATOM     24  N   UNL     1      48.574   4.021  20.671  0.00  0.00    +0.000 N 
ATOM     25  O   UNL     1      47.441   5.960  20.755  0.00  0.00    +0.000 OA
ATOM     26  H   UNL     1      49.189   3.345  20.254  0.00  0.00    +0.000 HD
ATOM     27  H   UNL     1      48.187   3.799  21.579  0.00  0.00    +0.000 HD
ENDBRANCH  20  23
ENDBRANCH  16  17
ENDBRANCH  15  16
ENDBRANCH   2  15
TORSDOF 8
ENDMDL
MODEL 9
REMARK VINA RESULT:    -5.990      4.085      6.313
REMARK INTER + INTRA:          -9.302
REMARK INTER:                  -8.602
REMARK INTRA:                  -0.700
REMARK UNBOUND:                -0.686
REMARK  Name = 
REMARK  9 active torsions:
REMARK  status: ('A' for Active; 'I' for Inactive)
REMARK    1  A    between atoms: C_1  and  O_2
REMARK    2  A    between atoms: O_2  and  C_3
REMARK    3  A    between atoms: C_6  and  C_7
REMARK    4  A    between atoms: C_8  and  C_9
REMARK    5  A    between atoms: C_9  and  O_10
REMARK    6  A    between atoms: O_10  and  C_11
REMARK    7  A    between atoms: C_14  and  C_15
REMARK    8  A    between atoms: C_21  and  C_22
REMARK    9  A    between atoms: C_22  and  N_23
REMARK                            x       y       z     vdW  Elec       q    Type
REMARK                         _______ _______ _______ _____ _____    ______ ____
ROOT
ATOM      1  C   UNL     1      49.636   4.251  17.195  0.00  0.00    +0.000 C 
ATOM      2  C   UNL     1      48.565   3.472  16.973  0.00  0.00    +0.000 C 
ENDROOT
BRANCH   1   6
ATOM      3  C   UNL     1      53.280   2.774  18.914  0.00  0.00    +0.000 A 
ATOM      4  C   UNL     1      52.779   4.026  19.289  0.00  0.00    +0.000 A 
ATOM      5  C   UNL     1      51.598   4.519  18.733  0.00  0.00    +0.000 A 
ATOM      6  C   UNL     1      50.889   3.775  17.791  0.00  0.00    +0.000 A 
ATOM      7  C   UNL     1      51.411   2.541  17.384  0.00  0.00    +0.000 A 
ATOM      8  C   UNL     1      52.597   2.021  17.944  0.00  0.00    +0.000 A 
BRANCH   3  10
ATOM      9  C   UNL     1      54.702   2.512  20.792  0.00  0.00    +0.000 C 
ATOM     10  O   UNL     1      54.436   2.242  19.420  0.00  0.00    +0.000 OA
ENDBRANCH   3  10
BRANCH   8  11
ATOM     11  C   UNL     1      53.089   0.673  17.470  0.00  0.00    +0.000 C 
BRANCH  11  12
ATOM     12  N   UNL     1      52.828  -0.375  18.459  0.00  0.00    +0.000 NA
ATOM     13  H   UNL     1      53.719  -0.653  18.868  0.00  0.00    +0.000 HD
ATOM     14  H   UNL     1      52.468  -1.195  17.977  0.00  0.00    +0.000 HD
ENDBRANCH  11  12
ENDBRANCH   8  11
ENDBRANCH   1   6
BRANCH   2  15
ATOM     15  C   UNL     1      47.329   3.950  16.280  0.00  0.00    +0.000 C 
BRANCH  15  16
ATOM     16  O   UNL     1      47.719   4.668  15.111  0.00  0.00    +0.000 OA
BRANCH  16  17
ATOM     17  C   UNL     1      46.800   4.516  14.093  0.00  0.00    +0.000 A 
ATOM     18  C   UNL     1      46.181   5.662  13.622  0.00  0.00    +0.000 A 
ATOM     19  C   UNL     1      45.232   5.526  12.608  0.00  0.00    +0.000 A 
ATOM     20  C   UNL     1      44.931   4.258  12.099  0.00  0.00    +0.000 A 
ATOM     21  C   UNL     1      45.616   3.178  12.636  0.00  0.00    +0.000 A 
ATOM     22  N   UNL     1      46.537   3.278  13.621  0.00  0.00    +0.000 NA
BRANCH  20  23
ATOM     23  C   UNL     1      43.910   4.119  11.035  0.00  0.00    +0.000 C 
ATOM     24  N   UNL     1      43.851   5.057  10.040  0.00  0.00    +0.000 N 
ATOM     25  O   UNL     1      43.125   3.178  11.036  0.00  0.00    +0.000 OA
ATOM     26  H   UNL     1      44.442   5.863   9.941  0.00  0.00    +0.000 HD
ATOM     27  H   UNL     1      43.140   4.914   9.334  0.00  0.00    +0.000 HD
ENDBRANCH  20  23
ENDBRANCH  16  17
ENDBRANCH  15  16
ENDBRANCH   2  15
TORSDOF 8
ENDMDL
