MODEL 1
REMARK VINA RESULT:    -8.374      0.000      0.000
REMARK INTER + INTRA:         -13.026
REMARK INTER:                 -11.801
REMARK INTRA:                  -1.225
REMARK UNBOUND:                -1.225
REMARK  Name = 
REMARK  7 active torsions:
REMARK  status: ('A' for Active; 'I' for Inactive)
REMARK    1  A    between atoms: C_2  and  C_20
REMARK    2  A    between atoms: N_3  and  C_4
REMARK    3  A    between atoms: C_4  and  C_5
REMARK    4  A    between atoms: C_8  and  C_9
REMARK    5  A    between atoms: C_9  and  N_10
REMARK    6  A    between atoms: N_10  and  C_11
REMARK    7  A    between atoms: C_11  and  C_12
REMARK                            x       y       z     vdW  Elec       q    Type
REMARK                         _______ _______ _______ _____ _____    ______ ____
ROOT
ATOM      1  C   UNL     1      47.198   7.323  13.134  0.00  0.00    +0.000 C 
ENDROOT
BRANCH   1   2
ATOM      2  C   UNL     1      46.271   6.301  12.529  0.00  0.00    +0.000 A 
ATOM      3  C   UNL     1      46.088   6.259  11.141  0.00  0.00    +0.000 A 
ATOM      4  C   UNL     1      45.237   5.314  10.562  0.00  0.00    +0.000 A 
ATOM      5  C   UNL     1      44.549   4.387  11.357  0.00  0.00    +0.000 A 
ATOM      6  C   UNL     1      44.718   4.441  12.748  0.00  0.00    +0.000 A 
ATOM      7  C   UNL     1      45.563   5.394  13.329  0.00  0.00    +0.000 A 
BRANCH   5   8
ATOM      8  C   UNL     1      43.616   3.374  10.730  0.00  0.00    +0.000 C 
BRANCH   8   9
ATOM      9  N   UNL     1      43.995   3.088   9.346  0.00  0.00    +0.000 NA
ATOM     10  H   UNL     1      44.508   3.889   8.978  0.00  0.00    +0.000 HD
BRANCH   9  11
ATOM     11  C   UNL     1      44.857   1.902   9.261  0.00  0.00    +0.000 C 
BRANCH  11  12
ATOM     12  C   UNL     1      45.915   2.046   8.189  0.00  0.00    +0.000 A 
ATOM     13  C   UNL     1      46.036   3.223   7.457  0.00  0.00    +0.000 A 
ATOM     14  C   UNL     1      47.023   3.307   6.485  0.00  0.00    +0.000 A 
ATOM     15  C   UNL     1      47.836   2.210   6.292  0.00  0.00    +0.000 A 
ATOM     16  N   UNL     1      47.704   1.075   7.006  0.00  0.00    +0.000 NA
ATOM     17  N   UNL     1      46.735   0.993   7.965  0.00  0.00    +0.000 NA
ENDBRANCH  11  12
ENDBRANCH   9  11
ENDBRANCH   8   9
ENDBRANCH   5   8
ENDBRANCH   1   2
BRANCH   1  20
ATOM     18  O   UNL     1      49.849   7.063  14.087  0.00  0.00    +0.000 OA
ATOM     19  C   UNL     1      48.910   6.916  14.863  0.00  0.00    +0.000 C 
ATOM     20  N   UNL     1      47.598   6.960  14.468  0.00  0.00    +0.000 N 
ATOM     21  H   UNL     1      46.876   7.029  15.176  0.00  0.00    +0.000 HD
BRANCH  19  22
ATOM     22  C   UNL     1      49.129   6.611  16.281  0.00  0.00    +0.000 A 
ATOM     23  C   UNL     1      49.732   7.542  17.116  0.00  0.00    +0.000 A 
ATOM     24  S   UNL     1      49.941   6.983  18.714  0.00  0.00    +0.000 S 
ATOM     25  C   UNL     1      49.187   5.500  18.353  0.00  0.00    +0.000 A 
ATOM     26  N   UNL     1      49.025   4.541  19.309  0.00  0.00    +0.000 NA
ATOM     27  C   UNL     1      48.407   3.486  18.899  0.00  0.00    +0.000 A 
ATOM     28  N   UNL     1      47.936   3.296  17.627  0.00  0.00    +0.000 N 
ATOM     29  C   UNL     1      48.136   4.203  16.616  0.00  0.00    +0.000 A 
ATOM     30  O   UNL     1      47.811   3.942  15.463  0.00  0.00    +0.000 OA
ATOM     31  C   UNL     1      48.798   5.424  17.029  0.00  0.00    +0.000 A 
ATOM     32  H   UNL     1      47.481   2.432  17.368  0.00  0.00    +0.000 HD
ENDBRANCH  19  22
ENDBRANCH   1  20
TORSDOF 7
ENDMDL
MODEL 2
REMARK VINA RESULT:    -7.916      1.830      2.542
REMARK INTER + INTRA:         -12.380
REMARK INTER:                 -11.285
REMARK INTRA:                  -1.095
REMARK UNBOUND:                -1.225
REMARK  Name = 
REMARK  7 active torsions:
REMARK  status: ('A' for Active; 'I' for Inactive)
REMARK    1  A    between atoms: C_2  and  C_20
REMARK    2  A    between atoms: N_3  and  C_4
REMARK    3  A    between atoms: C_4  and  C_5
REMARK    4  A    between atoms: C_8  and  C_9
REMARK    5  A    between atoms: C_9  and  N_10
REMARK    6  A    between atoms: N_10  and  C_11
REMARK    7  A    between atoms: C_11  and  C_12
REMARK                            x       y       z     vdW  Elec       q    Type
REMARK                         _______ _______ _______ _____ _____    ______ ____
ROOT
ATOM      1  C   UNL     1      47.815   7.029  13.509  0.00  0.00    +0.000 C 
ENDROOT
BRANCH   1   2
ATOM      2  C   UNL     1      46.736   6.274  12.775  0.00  0.00    +0.000 A 
ATOM      3  C   UNL     1      45.969   5.318  13.452  0.00  0.00    +0.000 A 
ATOM      4  C   UNL     1      44.961   4.613  12.788  0.00  0.00    +0.000 A 
ATOM      5  C   UNL     1      44.696   4.848  11.432  0.00  0.00    +0.000 A 
ATOM      6  C   UNL     1      45.478   5.791  10.750  0.00  0.00    +0.000 A 
ATOM      7  C   UNL     1      46.494   6.491  11.412  0.00  0.00    +0.000 A 
BRANCH   5   8
ATOM      8  C   UNL     1      43.615   4.073  10.711  0.00  0.00    +0.000 C 
BRANCH   8   9
ATOM      9  N   UNL     1      44.048   3.676   9.372  0.00  0.00    +0.000 NA
ATOM     10  H   UNL     1      44.729   4.358   9.035  0.00  0.00    +0.000 HD
BRANCH   9  11
ATOM     11  C   UNL     1      44.684   2.352   9.384  0.00  0.00    +0.000 C 
BRANCH  11  12
ATOM     12  C   UNL     1      45.767   2.232   8.335  0.00  0.00    +0.000 A 
ATOM     13  C   UNL     1      46.155   3.333   7.579  0.00  0.00    +0.000 A 
ATOM     14  C   UNL     1      47.155   3.174   6.630  0.00  0.00    +0.000 A 
ATOM     15  C   UNL     1      47.714   1.921   6.483  0.00  0.00    +0.000 A 
ATOM     16  N   UNL     1      47.325   0.863   7.221  0.00  0.00    +0.000 NA
ATOM     17  N   UNL     1      46.343   1.020   8.158  0.00  0.00    +0.000 NA
ENDBRANCH  11  12
ENDBRANCH   9  11
ENDBRANCH   8   9
ENDBRANCH   5   8
ENDBRANCH   1   2
BRANCH   1  20
ATOM     18  O   UNL     1      50.053   6.602  15.186  0.00  0.00    +0.000 OA
ATOM     19  C   UNL     1      48.928   6.625  15.674  0.00  0.00    +0.000 C 
ATOM     20  N   UNL     1      47.789   6.760  14.922  0.00  0.00    +0.000 N 
ATOM     21  H   UNL     1      46.916   6.969  15.392  0.00  0.00    +0.000 HD
BRANCH  19  22
ATOM     22  C   UNL     1      48.714   6.441  17.113  0.00  0.00    +0.000 A 
ATOM     23  C   UNL     1      48.966   5.214  17.710  0.00  0.00    +0.000 A 
ATOM     24  S   UNL     1      48.610   5.187  19.379  0.00  0.00    +0.000 S 
ATOM     25  C   UNL     1      48.158   6.828  19.364  0.00  0.00    +0.000 A 
ATOM     26  N   UNL     1      47.747   7.456  20.504  0.00  0.00    +0.000 NA
ATOM     27  C   UNL     1      47.470   8.706  20.348  0.00  0.00    +0.000 A 
ATOM     28  N   UNL     1      47.563   9.389  19.164  0.00  0.00    +0.000 N 
ATOM     29  C   UNL     1      47.904   8.784  17.980  0.00  0.00    +0.000 A 
ATOM     30  O   UNL     1      47.853   9.400  16.921  0.00  0.00    +0.000 OA
ATOM     31  C   UNL     1      48.257   7.384  18.103  0.00  0.00    +0.000 A 
ATOM     32  H   UNL     1      47.306  10.365  19.109  0.00  0.00    +0.000 HD
ENDBRANCH  19  22
ENDBRANCH   1  20
TORSDOF 7
ENDMDL
MODEL 3
REMARK VINA RESULT:    -7.582      1.786      2.220
REMARK INTER + INTRA:         -11.909
REMARK INTER:                 -10.908
REMARK INTRA:                  -1.001
REMARK UNBOUND:                -1.225
REMARK  Name = 
REMARK  7 active torsions:
REMARK  status: ('A' for Active; 'I' for Inactive)
REMARK    1  A    between atoms: C_2  and  C_20
REMARK    2  A    between atoms: N_3  and  C_4
REMARK    3  A    between atoms: C_4  and  C_5
REMARK    4  A    between atoms: C_8  and  C_9
REMARK    5  A    between atoms: C_9  and  N_10
REMARK    6  A    between atoms: N_10  and  C_11
REMARK    7  A    between atoms: C_11  and  C_12
REMARK                            x       y       z     vdW  Elec       q    Type
REMARK                         _______ _______ _______ _____ _____    ______ ____
ROOT
ATOM      1  C   UNL     1      48.234   6.972  13.854  0.00  0.00    +0.000 C 
ENDROOT
BRANCH   1   2
ATOM      2  C   UNL     1      47.092   6.071  13.458  0.00  0.00    +0.000 A 
ATOM      3  C   UNL     1      47.211   4.684  13.612  0.00  0.00    +0.000 A 
ATOM      4  C   UNL     1      46.161   3.834  13.255  0.00  0.00    +0.000 A 
ATOM      5  C   UNL     1      44.966   4.351  12.735  0.00  0.00    +0.000 A 
ATOM      6  C   UNL     1      44.855   5.738  12.562  0.00  0.00    +0.000 A 
ATOM      7  C   UNL     1      45.911   6.589  12.911  0.00  0.00    +0.000 A 
BRANCH   5   8
ATOM      8  C   UNL     1      43.836   3.429  12.334  0.00  0.00    +0.000 C 
BRANCH   8   9
ATOM      9  N   UNL     1      44.165   2.680  11.121  0.00  0.00    +0.000 NA
ATOM     10  H   UNL     1      43.538   1.876  11.056  0.00  0.00    +0.000 HD
BRANCH   9  11
ATOM     11  C   UNL     1      43.992   3.504   9.919  0.00  0.00    +0.000 C 
BRANCH  11  12
ATOM     12  C   UNL     1      45.086   3.261   8.902  0.00  0.00    +0.000 A 
ATOM     13  C   UNL     1      45.597   1.985   8.693  0.00  0.00    +0.000 A 
ATOM     14  C   UNL     1      46.599   1.812   7.748  0.00  0.00    +0.000 A 
ATOM     15  C   UNL     1      47.041   2.926   7.063  0.00  0.00    +0.000 A 
ATOM     16  N   UNL     1      46.537   4.157   7.279  0.00  0.00    +0.000 NA
ATOM     17  N   UNL     1      45.549   4.326   8.207  0.00  0.00    +0.000 NA
ENDBRANCH  11  12
ENDBRANCH   9  11
ENDBRANCH   8   9
ENDBRANCH   5   8
ENDBRANCH   1   2
BRANCH   1  20
ATOM     18  O   UNL     1      50.373   6.518  15.649  0.00  0.00    +0.000 OA
ATOM     19  C   UNL     1      49.343   7.045  16.057  0.00  0.00    +0.000 C 
ATOM     20  N   UNL     1      48.239   7.239  15.268  0.00  0.00    +0.000 N 
ATOM     21  H   UNL     1      47.502   7.849  15.601  0.00  0.00    +0.000 HD
BRANCH  19  22
ATOM     22  C   UNL     1      49.194   7.452  17.458  0.00  0.00    +0.000 A 
ATOM     23  C   UNL     1      49.841   8.584  17.934  0.00  0.00    +0.000 A 
ATOM     24  S   UNL     1      49.582   8.863  19.597  0.00  0.00    +0.000 S 
ATOM     25  C   UNL     1      48.558   7.509  19.721  0.00  0.00    +0.000 A 
ATOM     26  N   UNL     1      47.971   7.175  20.906  0.00  0.00    +0.000 NA
ATOM     27  C   UNL     1      47.195   6.147  20.841  0.00  0.00    +0.000 A 
ATOM     28  N   UNL     1      46.949   5.420  19.706  0.00  0.00    +0.000 N 
ATOM     29  C   UNL     1      47.570   5.676  18.508  0.00  0.00    +0.000 A 
ATOM     30  O   UNL     1      47.421   4.927  17.550  0.00  0.00    +0.000 OA
ATOM     31  C   UNL     1      48.430   6.842  18.517  0.00  0.00    +0.000 A 
ATOM     32  H   UNL     1      46.347   4.609  19.732  0.00  0.00    +0.000 HD
ENDBRANCH  19  22
ENDBRANCH   1  20
TORSDOF 7
ENDMDL
MODEL 4
REMARK VINA RESULT:    -7.482      3.398      5.330
REMARK INTER + INTRA:         -11.768
REMARK INTER:                 -11.045
REMARK INTRA:                  -0.723
REMARK UNBOUND:                -1.225
REMARK  Name = 
REMARK  7 active torsions:
REMARK  status: ('A' for Active; 'I' for Inactive)
REMARK    1  A    between atoms: C_2  and  C_20
REMARK    2  A    between atoms: N_3  and  C_4
REMARK    3  A    between atoms: C_4  and  C_5
REMARK    4  A    between atoms: C_8  and  C_9
REMARK    5  A    between atoms: C_9  and  N_10
REMARK    6  A    between atoms: N_10  and  C_11
REMARK    7  A    between atoms: C_11  and  C_12
REMARK                            x       y       z     vdW  Elec       q    Type
REMARK                         _______ _______ _______ _____ _____    ______ ____
ROOT
ATOM      1  C   UNL     1      47.866   6.299  14.120  0.00  0.00    +0.000 C 
ENDROOT
BRANCH   1   2
ATOM      2  C   UNL     1      46.764   5.425  13.577  0.00  0.00    +0.000 A 
ATOM      3  C   UNL     1      45.523   5.987  13.252  0.00  0.00    +0.000 A 
ATOM      4  C   UNL     1      44.492   5.193  12.742  0.00  0.00    +0.000 A 
ATOM      5  C   UNL     1      44.678   3.819  12.545  0.00  0.00    +0.000 A 
ATOM      6  C   UNL     1      45.913   3.252  12.889  0.00  0.00    +0.000 A 
ATOM      7  C   UNL     1      46.943   4.046  13.408  0.00  0.00    +0.000 A 
BRANCH   5   8
ATOM      8  C   UNL     1      43.555   2.957  12.007  0.00  0.00    +0.000 C 
BRANCH   8   9
ATOM      9  N   UNL     1      43.894   2.400  10.698  0.00  0.00    +0.000 NA
ATOM     10  H   UNL     1      43.147   1.766  10.413  0.00  0.00    +0.000 HD
BRANCH   9  11
ATOM     11  C   UNL     1      44.022   3.454   9.684  0.00  0.00    +0.000 C 
BRANCH  11  12
ATOM     12  C   UNL     1      45.155   3.179   8.720  0.00  0.00    +0.000 A 
ATOM     13  C   UNL     1      45.686   1.901   8.586  0.00  0.00    +0.000 A 
ATOM     14  C   UNL     1      46.724   1.698   7.687  0.00  0.00    +0.000 A 
ATOM     15  C   UNL     1      47.181   2.785   6.971  0.00  0.00    +0.000 A 
ATOM     16  N   UNL     1      46.659   4.019   7.115  0.00  0.00    +0.000 NA
ATOM     17  N   UNL     1      45.635   4.218   7.997  0.00  0.00    +0.000 NA
ENDBRANCH  11  12
ENDBRANCH   9  11
ENDBRANCH   8   9
ENDBRANCH   5   8
ENDBRANCH   1   2
BRANCH   1  20
ATOM     18  O   UNL     1      49.168   7.167  11.763  0.00  0.00    +0.000 OA
ATOM     19  C   UNL     1      48.440   7.944  12.373  0.00  0.00    +0.000 C 
ATOM     20  N   UNL     1      47.827   7.622  13.557  0.00  0.00    +0.000 N 
ATOM     21  H   UNL     1      47.092   8.225  13.906  0.00  0.00    +0.000 HD
BRANCH  19  22
ATOM     22  C   UNL     1      48.224   9.317  11.906  0.00  0.00    +0.000 A 
ATOM     23  C   UNL     1      49.274  10.053  11.374  0.00  0.00    +0.000 A 
ATOM     24  S   UNL     1      48.832  11.641  10.934  0.00  0.00    +0.000 S 
ATOM     25  C   UNL     1      47.215  11.378  11.393  0.00  0.00    +0.000 A 
ATOM     26  N   UNL     1      46.276  12.359  11.261  0.00  0.00    +0.000 NA
ATOM     27  C   UNL     1      45.089  12.005  11.616  0.00  0.00    +0.000 A 
ATOM     28  N   UNL     1      44.747  10.766  12.091  0.00  0.00    +0.000 N 
ATOM     29  C   UNL     1      45.668   9.771  12.306  0.00  0.00    +0.000 A 
ATOM     30  O   UNL     1      45.346   8.721  12.850  0.00  0.00    +0.000 OA
ATOM     31  C   UNL     1      47.017  10.105  11.893  0.00  0.00    +0.000 A 
ATOM     32  H   UNL     1      43.798  10.565  12.375  0.00  0.00    +0.000 HD
ENDBRANCH  19  22
ENDBRANCH   1  20
TORSDOF 7
ENDMDL
MODEL 5
REMARK VINA RESULT:    -7.337      1.957      3.140
REMARK INTER + INTRA:         -11.564
REMARK INTER:                 -10.588
REMARK INTRA:                  -0.975
REMARK UNBOUND:                -1.225
REMARK  Name = 
REMARK  7 active torsions:
REMARK  status: ('A' for Active; 'I' for Inactive)
REMARK    1  A    between atoms: C_2  and  C_20
REMARK    2  A    between atoms: N_3  and  C_4
REMARK    3  A    between atoms: C_4  and  C_5
REMARK    4  A    between atoms: C_8  and  C_9
REMARK    5  A    between atoms: C_9  and  N_10
REMARK    6  A    between atoms: N_10  and  C_11
REMARK    7  A    between atoms: C_11  and  C_12
REMARK                            x       y       z     vdW  Elec       q    Type
REMARK                         _______ _______ _______ _____ _____    ______ ____
ROOT
ATOM      1  C   UNL     1      47.409   3.809  15.140  0.00  0.00    +0.000 C 
ENDROOT
BRANCH   1   2
ATOM      2  C   UNL     1      46.727   4.293  13.886  0.00  0.00    +0.000 A 
ATOM      3  C   UNL     1      46.930   5.605  13.443  0.00  0.00    +0.000 A 
ATOM      4  C   UNL     1      46.309   6.069  12.279  0.00  0.00    +0.000 A 
ATOM      5  C   UNL     1      45.472   5.230  11.531  0.00  0.00    +0.000 A 
ATOM      6  C   UNL     1      45.254   3.922  11.986  0.00  0.00    +0.000 A 
ATOM      7  C   UNL     1      45.868   3.461  13.156  0.00  0.00    +0.000 A 
BRANCH   5   8
ATOM      8  C   UNL     1      44.789   5.738  10.280  0.00  0.00    +0.000 C 
BRANCH   8   9
ATOM      9  N   UNL     1      45.473   5.272   9.074  0.00  0.00    +0.000 NA
ATOM     10  H   UNL     1      46.404   4.944   9.335  0.00  0.00    +0.000 HD
BRANCH   9  11
ATOM     11  C   UNL     1      44.749   4.161   8.443  0.00  0.00    +0.000 C 
BRANCH  11  12
ATOM     12  C   UNL     1      45.684   3.071   7.967  0.00  0.00    +0.000 A 
ATOM     13  C   UNL     1      46.614   3.316   6.963  0.00  0.00    +0.000 A 
ATOM     14  C   UNL     1      47.452   2.284   6.562  0.00  0.00    +0.000 A 
ATOM     15  C   UNL     1      47.314   1.060   7.183  0.00  0.00    +0.000 A 
ATOM     16  N   UNL     1      46.405   0.838   8.153  0.00  0.00    +0.000 NA
ATOM     17  N   UNL     1      45.583   1.854   8.550  0.00  0.00    +0.000 NA
ENDBRANCH  11  12
ENDBRANCH   9  11
ENDBRANCH   8   9
ENDBRANCH   5   8
ENDBRANCH   1   2
BRANCH   1  20
ATOM     18  O   UNL     1      49.449   4.240  17.053  0.00  0.00    +0.000 OA
ATOM     19  C   UNL     1      48.485   4.997  17.016  0.00  0.00    +0.000 C 
ATOM     20  N   UNL     1      47.425   4.819  16.165  0.00  0.00    +0.000 N 
ATOM     21  H   UNL     1      46.763   5.576  16.043  0.00  0.00    +0.000 HD
BRANCH  19  22
ATOM     22  C   UNL     1      48.364   6.130  17.941  0.00  0.00    +0.000 A 
ATOM     23  C   UNL     1      48.139   5.912  19.293  0.00  0.00    +0.000 A 
ATOM     24  S   UNL     1      47.982   7.354  20.193  0.00  0.00    +0.000 S 
ATOM     25  C   UNL     1      48.261   8.310  18.813  0.00  0.00    +0.000 A 
ATOM     26  N   UNL     1      48.273   9.672  18.891  0.00  0.00    +0.000 NA
ATOM     27  C   UNL     1      48.531  10.263  17.774  0.00  0.00    +0.000 A 
ATOM     28  N   UNL     1      48.778   9.625  16.587  0.00  0.00    +0.000 N 
ATOM     29  C   UNL     1      48.708   8.261  16.446  0.00  0.00    +0.000 A 
ATOM     30  O   UNL     1      48.809   7.736  15.343  0.00  0.00    +0.000 OA
ATOM     31  C   UNL     1      48.452   7.544  17.679  0.00  0.00    +0.000 A 
ATOM     32  H   UNL     1      48.949  10.153  15.742  0.00  0.00    +0.000 HD
ENDBRANCH  19  22
ENDBRANCH   1  20
TORSDOF 7
ENDMDL
MODEL 6
REMARK VINA RESULT:    -7.292      2.068      2.659
REMARK INTER + INTRA:         -11.500
REMARK INTER:                 -10.699
REMARK INTRA:                  -0.801
REMARK UNBOUND:                -1.225
REMARK  Name = 
REMARK  7 active torsions:
REMARK  status: ('A' for Active; 'I' for Inactive)
REMARK    1  A    between atoms: C_2  and  C_20
REMARK    2  A    between atoms: N_3  and  C_4
REMARK    3  A    between atoms: C_4  and  C_5
REMARK    4  A    between atoms: C_8  and  C_9
REMARK    5  A    between atoms: C_9  and  N_10
REMARK    6  A    between atoms: N_10  and  C_11
REMARK    7  A    between atoms: C_11  and  C_12
REMARK                            x       y       z     vdW  Elec       q    Type
REMARK                         _______ _______ _______ _____ _____    ______ ____
ROOT
ATOM      1  C   UNL     1      47.357   4.148  14.704  0.00  0.00    +0.000 C 
ENDROOT
BRANCH   1   2
ATOM      2  C   UNL     1      46.401   4.348  13.556  0.00  0.00    +0.000 A 
ATOM      3  C   UNL     1      46.083   5.643  13.129  0.00  0.00    +0.000 A 
ATOM      4  C   UNL     1      45.203   5.847  12.063  0.00  0.00    +0.000 A 
ATOM      5  C   UNL     1      44.620   4.760  11.398  0.00  0.00    +0.000 A 
ATOM      6  C   UNL     1      44.923   3.464  11.838  0.00  0.00    +0.000 A 
ATOM      7  C   UNL     1      45.797   3.260  12.912  0.00  0.00    +0.000 A 
BRANCH   5   8
ATOM      8  C   UNL     1      43.656   4.983  10.253  0.00  0.00    +0.000 C 
BRANCH   8   9
ATOM      9  N   UNL     1      43.963   4.109   9.121  0.00  0.00    +0.000 NA
ATOM     10  H   UNL     1      43.245   4.237   8.408  0.00  0.00    +0.000 HD
BRANCH   9  11
ATOM     11  C   UNL     1      45.268   4.434   8.532  0.00  0.00    +0.000 C 
BRANCH  11  12
ATOM     12  C   UNL     1      45.983   3.203   8.022  0.00  0.00    +0.000 A 
ATOM     13  C   UNL     1      46.920   3.293   6.998  0.00  0.00    +0.000 A 
ATOM     14  C   UNL     1      47.552   2.135   6.565  0.00  0.00    +0.000 A 
ATOM     15  C   UNL     1      47.212   0.946   7.176  0.00  0.00    +0.000 A 
ATOM     16  N   UNL     1      46.299   0.874   8.165  0.00  0.00    +0.000 NA
ATOM     17  N   UNL     1      45.680   2.014   8.593  0.00  0.00    +0.000 NA
ENDBRANCH  11  12
ENDBRANCH   9  11
ENDBRANCH   8   9
ENDBRANCH   5   8
ENDBRANCH   1   2
BRANCH   1  20
ATOM     18  O   UNL     1      49.342   4.676  16.649  0.00  0.00    +0.000 OA
ATOM     19  C   UNL     1      48.493   5.528  16.405  0.00  0.00    +0.000 C 
ATOM     20  N   UNL     1      47.461   5.324  15.525  0.00  0.00    +0.000 N 
ATOM     21  H   UNL     1      46.915   6.122  15.220  0.00  0.00    +0.000 HD
BRANCH  19  22
ATOM     22  C   UNL     1      48.485   6.822  17.095  0.00  0.00    +0.000 A 
ATOM     23  C   UNL     1      48.789   7.988  16.407  0.00  0.00    +0.000 A 
ATOM     24  S   UNL     1      48.773   9.380  17.395  0.00  0.00    +0.000 S 
ATOM     25  C   UNL     1      48.310   8.473  18.759  0.00  0.00    +0.000 A 
ATOM     26  N   UNL     1      48.107   9.073  19.968  0.00  0.00    +0.000 NA
ATOM     27  C   UNL     1      47.727   8.268  20.900  0.00  0.00    +0.000 A 
ATOM     28  N   UNL     1      47.530   6.921  20.742  0.00  0.00    +0.000 N 
ATOM     29  C   UNL     1      47.788   6.264  19.565  0.00  0.00    +0.000 A 
ATOM     30  O   UNL     1      47.722   5.041  19.499  0.00  0.00    +0.000 OA
ATOM     31  C   UNL     1      48.188   7.127  18.473  0.00  0.00    +0.000 A 
ATOM     32  H   UNL     1      47.255   6.344  21.525  0.00  0.00    +0.000 HD
ENDBRANCH  19  22
ENDBRANCH   1  20
TORSDOF 7
ENDMDL
MODEL 7
REMARK VINA RESULT:    -7.265      1.988      3.022
REMARK INTER + INTRA:         -11.463
REMARK INTER:                 -10.475
REMARK INTRA:                  -0.988
REMARK UNBOUND:                -1.225
REMARK  Name = 
REMARK  7 active torsions:
REMARK  status: ('A' for Active; 'I' for Inactive)
REMARK    1  A    between atoms: C_2  and  C_20
REMARK    2  A    between atoms: N_3  and  C_4
REMARK    3  A    between atoms: C_4  and  C_5
REMARK    4  A    between atoms: C_8  and  C_9
REMARK    5  A    between atoms: C_9  and  N_10
REMARK    6  A    between atoms: N_10  and  C_11
REMARK    7  A    between atoms: C_11  and  C_12
REMARK                            x       y       z     vdW  Elec       q    Type
REMARK                         _______ _______ _______ _____ _____    ______ ____
ROOT
ATOM      1  C   UNL     1      47.465   3.451  15.035  0.00  0.00    +0.000 C 
ENDROOT
BRANCH   1   2
ATOM      2  C   UNL     1      46.748   4.040  13.848  0.00  0.00    +0.000 A 
ATOM      3  C   UNL     1      45.926   3.230  13.055  0.00  0.00    +0.000 A 
ATOM      4  C   UNL     1      45.248   3.761  11.954  0.00  0.00    +0.000 A 
ATOM      5  C   UNL     1      45.377   5.116  11.620  0.00  0.00    +0.000 A 
ATOM      6  C   UNL     1      46.215   5.923  12.402  0.00  0.00    +0.000 A 
ATOM      7  C   UNL     1      46.901   5.389  13.499  0.00  0.00    +0.000 A 
BRANCH   5   8
ATOM      8  C   UNL     1      44.655   5.686  10.419  0.00  0.00    +0.000 C 
BRANCH   8   9
ATOM      9  N   UNL     1      45.339   5.341   9.173  0.00  0.00    +0.000 NA
ATOM     10  H   UNL     1      46.304   5.088   9.393  0.00  0.00    +0.000 HD
BRANCH   9  11
ATOM     11  C   UNL     1      44.699   4.199   8.508  0.00  0.00    +0.000 C 
BRANCH  11  12
ATOM     12  C   UNL     1      45.711   3.261   7.889  0.00  0.00    +0.000 A 
ATOM     13  C   UNL     1      45.848   1.954   8.346  0.00  0.00    +0.000 A 
ATOM     14  C   UNL     1      46.790   1.131   7.744  0.00  0.00    +0.000 A 
ATOM     15  C   UNL     1      47.549   1.657   6.720  0.00  0.00    +0.000 A 
ATOM     16  N   UNL     1      47.407   2.927   6.291  0.00  0.00    +0.000 NA
ATOM     17  N   UNL     1      46.478   3.736   6.880  0.00  0.00    +0.000 NA
ENDBRANCH  11  12
ENDBRANCH   9  11
ENDBRANCH   8   9
ENDBRANCH   5   8
ENDBRANCH   1   2
BRANCH   1  20
ATOM     18  O   UNL     1      46.907   3.286  17.803  0.00  0.00    +0.000 OA
ATOM     19  C   UNL     1      47.511   4.260  17.365  0.00  0.00    +0.000 C 
ATOM     20  N   UNL     1      47.762   4.446  16.030  0.00  0.00    +0.000 N 
ATOM     21  H   UNL     1      48.428   5.158  15.753  0.00  0.00    +0.000 HD
BRANCH  19  22
ATOM     22  C   UNL     1      47.957   5.345  18.246  0.00  0.00    +0.000 A 
ATOM     23  C   UNL     1      47.047   6.016  19.051  0.00  0.00    +0.000 A 
ATOM     24  S   UNL     1      47.752   7.273  19.965  0.00  0.00    +0.000 S 
ATOM     25  C   UNL     1      49.301   6.925  19.352  0.00  0.00    +0.000 A 
ATOM     26  N   UNL     1      50.392   7.644  19.746  0.00  0.00    +0.000 NA
ATOM     27  C   UNL     1      51.502   7.245  19.225  0.00  0.00    +0.000 A 
ATOM     28  N   UNL     1      51.628   6.200  18.348  0.00  0.00    +0.000 N 
ATOM     29  C   UNL     1      50.552   5.494  17.871  0.00  0.00    +0.000 A 
ATOM     30  O   UNL     1      50.691   4.650  16.993  0.00  0.00    +0.000 OA
ATOM     31  C   UNL     1      49.280   5.879  18.449  0.00  0.00    +0.000 A 
ATOM     32  H   UNL     1      52.529   5.957  17.960  0.00  0.00    +0.000 HD
ENDBRANCH  19  22
ENDBRANCH   1  20
TORSDOF 7
ENDMDL
MODEL 8
REMARK VINA RESULT:    -7.151      1.968      3.461
REMARK INTER + INTRA:         -11.302
REMARK INTER:                 -10.194
REMARK INTRA:                  -1.108
REMARK UNBOUND:                -1.225
REMARK  Name = 
REMARK  7 active torsions:
REMARK  status: ('A' for Active; 'I' for Inactive)
REMARK    1  A    between atoms: C_2  and  C_20
REMARK    2  A    between atoms: N_3  and  C_4
REMARK    3  A    between atoms: C_4  and  C_5
REMARK    4  A    between atoms: C_8  and  C_9
REMARK    5  A    between atoms: C_9  and  N_10
REMARK    6  A    between atoms: N_10  and  C_11
REMARK    7  A    between atoms: C_11  and  C_12
REMARK                            x       y       z     vdW  Elec       q    Type
REMARK                         _______ _______ _______ _____ _____    ______ ____
ROOT
ATOM      1  C   UNL     1      47.508   4.464  14.888  0.00  0.00    +0.000 C 
ENDROOT
BRANCH   1   2
ATOM      2  C   UNL     1      46.504   4.540  13.767  0.00  0.00    +0.000 A 
ATOM      3  C   UNL     1      46.043   3.365  13.162  0.00  0.00    +0.000 A 
ATOM      4  C   UNL     1      45.107   3.416  12.124  0.00  0.00    +0.000 A 
ATOM      5  C   UNL     1      44.611   4.644  11.668  0.00  0.00    +0.000 A 
ATOM      6  C   UNL     1      45.088   5.822  12.260  0.00  0.00    +0.000 A 
ATOM      7  C   UNL     1      46.032   5.771  13.293  0.00  0.00    +0.000 A 
BRANCH   5   8
ATOM      8  C   UNL     1      43.610   4.699  10.534  0.00  0.00    +0.000 C 
BRANCH   8   9
ATOM      9  N   UNL     1      43.781   3.571   9.619  0.00  0.00    +0.000 NA
ATOM     10  H   UNL     1      42.857   3.237   9.340  0.00  0.00    +0.000 HD
BRANCH   9  11
ATOM     11  C   UNL     1      44.516   3.967   8.411  0.00  0.00    +0.000 C 
BRANCH  11  12
ATOM     12  C   UNL     1      45.532   2.925   7.999  0.00  0.00    +0.000 A 
ATOM     13  C   UNL     1      46.562   3.240   7.118  0.00  0.00    +0.000 A 
ATOM     14  C   UNL     1      47.471   2.250   6.770  0.00  0.00    +0.000 A 
ATOM     15  C   UNL     1      47.302   0.995   7.318  0.00  0.00    +0.000 A 
ATOM     16  N   UNL     1      46.297   0.705   8.168  0.00  0.00    +0.000 NA
ATOM     17  N   UNL     1      45.404   1.679   8.513  0.00  0.00    +0.000 NA
ENDBRANCH  11  12
ENDBRANCH   9  11
ENDBRANCH   8   9
ENDBRANCH   5   8
ENDBRANCH   1   2
BRANCH   1  20
ATOM     18  O   UNL     1      49.693   5.225  16.517  0.00  0.00    +0.000 OA
ATOM     19  C   UNL     1      48.825   6.049  16.246  0.00  0.00    +0.000 C 
ATOM     20  N   UNL     1      47.703   5.742  15.519  0.00  0.00    +0.000 N 
ATOM     21  H   UNL     1      47.129   6.498  15.164  0.00  0.00    +0.000 HD
BRANCH  19  22
ATOM     22  C   UNL     1      48.894   7.426  16.745  0.00  0.00    +0.000 A 
ATOM     23  C   UNL     1      48.886   7.682  18.109  0.00  0.00    +0.000 A 
ATOM     24  S   UNL     1      48.925   9.345  18.486  0.00  0.00    +0.000 S 
ATOM     25  C   UNL     1      49.005   9.773  16.840  0.00  0.00    +0.000 A 
ATOM     26  N   UNL     1      49.074  11.080  16.454  0.00  0.00    +0.000 NA
ATOM     27  C   UNL     1      49.164  11.249  15.179  0.00  0.00    +0.000 A 
ATOM     28  N   UNL     1      49.192  10.241  14.252  0.00  0.00    +0.000 N 
ATOM     29  C   UNL     1      49.056   8.917  14.588  0.00  0.00    +0.000 A 
ATOM     30  O   UNL     1      48.959   8.054  13.723  0.00  0.00    +0.000 OA
ATOM     31  C   UNL     1      48.983   8.666  16.014  0.00  0.00    +0.000 A 
ATOM     32  H   UNL     1      49.240  10.448  13.265  0.00  0.00    +0.000 HD
ENDBRANCH  19  22
ENDBRANCH   1  20
TORSDOF 7
ENDMDL
MODEL 9
REMARK VINA RESULT:    -7.043      3.380      8.118
REMARK INTER + INTRA:         -11.150
REMARK INTER:                  -9.834
REMARK INTRA:                  -1.317
REMARK UNBOUND:                -1.225
REMARK  Name = 
REMARK  7 active torsions:
REMARK  status: ('A' for Active; 'I' for Inactive)
REMARK    1  A    between atoms: C_2  and  C_20
REMARK    2  A    between atoms: N_3  and  C_4
REMARK    3  A    between atoms: C_4  and  C_5
REMARK    4  A    between atoms: C_8  and  C_9
REMARK    5  A    between atoms: C_9  and  N_10
REMARK    6  A    between atoms: N_10  and  C_11
REMARK    7  A    between atoms: C_11  and  C_12
REMARK                            x       y       z     vdW  Elec       q    Type
REMARK                         _______ _______ _______ _____ _____    ______ ____
ROOT
ATOM      1  C   UNL     1      48.240   8.026  12.137  0.00  0.00    +0.000 C 
ENDROOT
BRANCH   1   2
ATOM      2  C   UNL     1      49.011   7.686  13.386  0.00  0.00    +0.000 A 
ATOM      3  C   UNL     1      48.412   6.912  14.387  0.00  0.00    +0.000 A 
ATOM      4  C   UNL     1      49.114   6.582  15.550  0.00  0.00    +0.000 A 
ATOM      5  C   UNL     1      50.432   7.019  15.739  0.00  0.00    +0.000 A 
ATOM      6  C   UNL     1      51.025   7.811  14.745  0.00  0.00    +0.000 A 
ATOM      7  C   UNL     1      50.318   8.149  13.585  0.00  0.00    +0.000 A 
BRANCH   5   8
ATOM      8  C   UNL     1      51.185   6.674  17.005  0.00  0.00    +0.000 C 
BRANCH   8   9
ATOM      9  N   UNL     1      50.272   6.276  18.076  0.00  0.00    +0.000 NA
ATOM     10  H   UNL     1      49.317   6.307  17.716  0.00  0.00    +0.000 HD
BRANCH   9  11
ATOM     11  C   UNL     1      50.552   4.911  18.538  0.00  0.00    +0.000 C 
BRANCH  11  12
ATOM     12  C   UNL     1      49.763   3.877  17.765  0.00  0.00    +0.000 A 
ATOM     13  C   UNL     1      48.374   3.843  17.827  0.00  0.00    +0.000 A 
ATOM     14  C   UNL     1      47.695   2.876  17.098  0.00  0.00    +0.000 A 
ATOM     15  C   UNL     1      48.440   1.991  16.347  0.00  0.00    +0.000 A 
ATOM     16  N   UNL     1      49.786   2.034  16.299  0.00  0.00    +0.000 NA
ATOM     17  N   UNL     1      50.455   2.987  17.014  0.00  0.00    +0.000 NA
ENDBRANCH  11  12
ENDBRANCH   9  11
ENDBRANCH   8   9
ENDBRANCH   5   8
ENDBRANCH   1   2
BRANCH   1  20
ATOM     18  O   UNL     1      45.465   7.933  11.593  0.00  0.00    +0.000 OA
ATOM     19  C   UNL     1      46.163   6.955  11.344  0.00  0.00    +0.000 C 
ATOM     20  N   UNL     1      47.501   6.897  11.639  0.00  0.00    +0.000 N 
ATOM     21  H   UNL     1      48.058   6.152  11.235  0.00  0.00    +0.000 HD
BRANCH  19  22
ATOM     22  C   UNL     1      45.593   5.734  10.765  0.00  0.00    +0.000 A 
ATOM     23  C   UNL     1      45.778   5.440   9.421  0.00  0.00    +0.000 A 
ATOM     24  S   UNL     1      44.998   4.005   8.929  0.00  0.00    +0.000 S 
ATOM     25  C   UNL     1      44.433   3.705  10.506  0.00  0.00    +0.000 A 
ATOM     26  N   UNL     1      43.687   2.599  10.789  0.00  0.00    +0.000 NA
ATOM     27  C   UNL     1      43.359   2.486  12.031  0.00  0.00    +0.000 A 
ATOM     28  N   UNL     1      43.704   3.372  13.018  0.00  0.00    +0.000 N 
ATOM     29  C   UNL     1      44.393   4.533  12.769  0.00  0.00    +0.000 A 
ATOM     30  O   UNL     1      44.573   5.360  13.655  0.00  0.00    +0.000 OA
ATOM     31  C   UNL     1      44.815   4.694  11.392  0.00  0.00    +0.000 A 
ATOM     32  H   UNL     1      43.391   3.234  13.968  0.00  0.00    +0.000 HD
ENDBRANCH  19  22
ENDBRANCH   1  20
TORSDOF 7
ENDMDL
