MODEL 1
REMARK VINA RESULT:    -7.254      0.000      0.000
REMARK INTER + INTRA:          -9.394
REMARK INTER:                  -9.375
REMARK INTRA:                  -0.019
REMARK UNBOUND:                -0.019
REMARK  Name = 
REMARK  5 active torsions:
REMARK  status: ('A' for Active; 'I' for Inactive)
REMARK    1  A    between atoms: C_2  and  C_4
REMARK    2  A    between atoms: C_8  and  C_9
REMARK    3  A    between atoms: C_9  and  O_10
REMARK    4  A    between atoms: O_10  and  C_11
REMARK    5  A    between atoms: C_15  and  C_16
REMARK                            x       y       z     vdW  Elec       q    Type
REMARK                         _______ _______ _______ _____ _____    ______ ____
ROOT
ATOM      1  O   UNL     1      47.307   3.775  14.617  0.00  0.00    +0.000 OA
ENDROOT
BRANCH   1   2
ATOM      2  C   UNL     1      46.884   4.645  13.652  0.00  0.00    +0.000 A 
ATOM      3  C   UNL     1      47.707   5.741  13.414  0.00  0.00    +0.000 A 
ATOM      4  C   UNL     1      47.313   6.710  12.497  0.00  0.00    +0.000 A 
ATOM      5  C   UNL     1      46.122   6.558  11.782  0.00  0.00    +0.000 A 
ATOM      6  C   UNL     1      45.333   5.410  11.931  0.00  0.00    +0.000 A 
ATOM      7  C   UNL     1      45.718   4.478  12.907  0.00  0.00    +0.000 A 
BRANCH   6   8
ATOM      8  C   UNL     1      44.092   5.099  11.098  0.00  0.00    +0.000 C 
ATOM      9  C   UNL     1      43.054   4.283  11.902  0.00  0.00    +0.000 C 
ATOM     10  C   UNL     1      43.490   2.829  12.066  0.00  0.00    +0.000 C 
ATOM     11  N   UNL     1      43.685   2.177  10.771  0.00  0.00    +0.000 NA
ATOM     12  C   UNL     1      44.669   2.887   9.954  0.00  0.00    +0.000 C 
ATOM     13  C   UNL     1      44.328   4.370   9.764  0.00  0.00    +0.000 C 
ATOM     14  H   UNL     1      42.795   2.151  10.274  0.00  0.00    +0.000 HD
ENDBRANCH   6   8
ENDBRANCH   1   2
BRANCH   1  15
ATOM     15  C   UNL     1      46.995   4.179  15.952  0.00  0.00    +0.000 C 
BRANCH  15  20
ATOM     16  C   UNL     1      50.303   3.222  17.566  0.00  0.00    +0.000 A 
ATOM     17  C   UNL     1      50.609   4.381  18.293  0.00  0.00    +0.000 A 
ATOM     18  C   UNL     1      49.731   5.464  18.282  0.00  0.00    +0.000 A 
ATOM     19  C   UNL     1      48.556   5.401  17.532  0.00  0.00    +0.000 A 
ATOM     20  C   UNL     1      48.260   4.267  16.767  0.00  0.00    +0.000 A 
ATOM     21  C   UNL     1      49.131   3.171  16.806  0.00  0.00    +0.000 A 
BRANCH  16  23
ATOM     22  N   UNL     1      52.266   2.048  18.407  0.00  0.00    +0.000 N 
ATOM     23  C   UNL     1      51.206   2.041  17.542  0.00  0.00    +0.000 C 
ATOM     24  O   UNL     1      50.994   1.081  16.813  0.00  0.00    +0.000 OA
ATOM     25  H   UNL     1      52.812   1.197  18.444  0.00  0.00    +0.000 HD
ATOM     26  H   UNL     1      52.336   2.690  19.182  0.00  0.00    +0.000 HD
ENDBRANCH  16  23
ENDBRANCH  15  20
ENDBRANCH   1  15
TORSDOF 5
ENDMDL
MODEL 2
REMARK VINA RESULT:    -7.196      2.222      2.692
REMARK INTER + INTRA:          -9.318
REMARK INTER:                  -8.638
REMARK INTRA:                  -0.680
REMARK UNBOUND:                -0.019
REMARK  Name = 
REMARK  5 active torsions:
REMARK  status: ('A' for Active; 'I' for Inactive)
REMARK    1  A    between atoms: C_2  and  C_4
REMARK    2  A    between atoms: C_8  and  C_9
REMARK    3  A    between atoms: C_9  and  O_10
REMARK    4  A    between atoms: O_10  and  C_11
REMARK    5  A    between atoms: C_15  and  C_16
REMARK                            x       y       z     vdW  Elec       q    Type
REMARK                         _______ _______ _______ _____ _____    ______ ____
ROOT
ATOM      1  O   UNL     1      48.760   6.496  13.450  0.00  0.00    +0.000 OA
ENDROOT
BRANCH   1   2
ATOM      2  C   UNL     1      47.553   6.899  12.953  0.00  0.00    +0.000 A 
ATOM      3  C   UNL     1      47.257   8.251  13.089  0.00  0.00    +0.000 A 
ATOM      4  C   UNL     1      46.019   8.729  12.671  0.00  0.00    +0.000 A 
ATOM      5  C   UNL     1      45.098   7.865  12.073  0.00  0.00    +0.000 A 
ATOM      6  C   UNL     1      45.419   6.523  11.831  0.00  0.00    +0.000 A 
ATOM      7  C   UNL     1      46.648   6.050  12.318  0.00  0.00    +0.000 A 
BRANCH   6   8
ATOM      8  C   UNL     1      44.531   5.545  11.066  0.00  0.00    +0.000 C 
ATOM      9  C   UNL     1      43.107   5.481  11.663  0.00  0.00    +0.000 C 
ATOM     10  C   UNL     1      43.084   4.703  12.978  0.00  0.00    +0.000 C 
ATOM     11  N   UNL     1      43.572   3.335  12.799  0.00  0.00    +0.000 NA
ATOM     12  C   UNL     1      44.927   3.314  12.248  0.00  0.00    +0.000 C 
ATOM     13  C   UNL     1      45.051   4.103  10.940  0.00  0.00    +0.000 C 
ATOM     14  H   UNL     1      42.946   2.839  12.166  0.00  0.00    +0.000 HD
ENDBRANCH   6   8
ENDBRANCH   1   2
BRANCH   1  15
ATOM     15  C   UNL     1      49.251   7.297  14.528  0.00  0.00    +0.000 C 
BRANCH  15  20
ATOM     16  C   UNL     1      48.007   4.779  17.092  0.00  0.00    +0.000 A 
ATOM     17  C   UNL     1      48.013   5.544  18.266  0.00  0.00    +0.000 A 
ATOM     18  C   UNL     1      48.396   6.884  18.224  0.00  0.00    +0.000 A 
ATOM     19  C   UNL     1      48.791   7.458  17.015  0.00  0.00    +0.000 A 
ATOM     20  C   UNL     1      48.831   6.694  15.844  0.00  0.00    +0.000 A 
ATOM     21  C   UNL     1      48.416   5.357  15.886  0.00  0.00    +0.000 A 
BRANCH  16  23
ATOM     22  N   UNL     1      48.566   2.436  16.720  0.00  0.00    +0.000 N 
ATOM     23  C   UNL     1      47.610   3.346  17.082  0.00  0.00    +0.000 C 
ATOM     24  O   UNL     1      46.492   2.984  17.421  0.00  0.00    +0.000 OA
ATOM     25  H   UNL     1      48.306   1.462  16.813  0.00  0.00    +0.000 HD
ATOM     26  H   UNL     1      49.548   2.662  16.675  0.00  0.00    +0.000 HD
ENDBRANCH  16  23
ENDBRANCH  15  20
ENDBRANCH   1  15
TORSDOF 5
ENDMDL
MODEL 3
REMARK VINA RESULT:    -7.190      1.630      2.209
REMARK INTER + INTRA:          -9.311
REMARK INTER:                  -8.788
REMARK INTRA:                  -0.523
REMARK UNBOUND:                -0.019
REMARK  Name = 
REMARK  5 active torsions:
REMARK  status: ('A' for Active; 'I' for Inactive)
REMARK    1  A    between atoms: C_2  and  C_4
REMARK    2  A    between atoms: C_8  and  C_9
REMARK    3  A    between atoms: C_9  and  O_10
REMARK    4  A    between atoms: O_10  and  C_11
REMARK    5  A    between atoms: C_15  and  C_16
REMARK                            x       y       z     vdW  Elec       q    Type
REMARK                         _______ _______ _______ _____ _____    ______ ____
ROOT
ATOM      1  O   UNL     1      48.986   6.469  14.743  0.00  0.00    +0.000 OA
ENDROOT
BRANCH   1   2
ATOM      2  C   UNL     1      47.840   6.676  14.031  0.00  0.00    +0.000 A 
ATOM      3  C   UNL     1      47.689   7.939  13.468  0.00  0.00    +0.000 A 
ATOM      4  C   UNL     1      46.518   8.253  12.786  0.00  0.00    +0.000 A 
ATOM      5  C   UNL     1      45.519   7.289  12.625  0.00  0.00    +0.000 A 
ATOM      6  C   UNL     1      45.697   5.980  13.094  0.00  0.00    +0.000 A 
ATOM      7  C   UNL     1      46.858   5.706  13.832  0.00  0.00    +0.000 A 
BRANCH   6   8
ATOM      8  C   UNL     1      44.721   4.833  12.845  0.00  0.00    +0.000 C 
ATOM      9  C   UNL     1      45.126   3.997  11.610  0.00  0.00    +0.000 C 
ATOM     10  C   UNL     1      44.820   4.736  10.309  0.00  0.00    +0.000 C 
ATOM     11  N   UNL     1      43.397   5.061  10.199  0.00  0.00    +0.000 NA
ATOM     12  C   UNL     1      42.941   5.867  11.331  0.00  0.00    +0.000 C 
ATOM     13  C   UNL     1      43.240   5.216  12.686  0.00  0.00    +0.000 C 
ATOM     14  H   UNL     1      42.860   4.196  10.166  0.00  0.00    +0.000 HD
ENDBRANCH   6   8
ENDBRANCH   1   2
BRANCH   1  15
ATOM     15  C   UNL     1      48.948   6.969  16.082  0.00  0.00    +0.000 C 
BRANCH  15  20
ATOM     16  C   UNL     1      49.383   3.485  17.545  0.00  0.00    +0.000 A 
ATOM     17  C   UNL     1      48.833   3.644  18.824  0.00  0.00    +0.000 A 
ATOM     18  C   UNL     1      48.297   4.874  19.205  0.00  0.00    +0.000 A 
ATOM     19  C   UNL     1      48.325   5.951  18.319  0.00  0.00    +0.000 A 
ATOM     20  C   UNL     1      48.910   5.818  17.055  0.00  0.00    +0.000 A 
ATOM     21  C   UNL     1      49.420   4.572  16.666  0.00  0.00    +0.000 A 
BRANCH  16  23
ATOM     22  N   UNL     1      50.920   1.626  17.891  0.00  0.00    +0.000 N 
ATOM     23  C   UNL     1      49.969   2.196  17.090  0.00  0.00    +0.000 C 
ATOM     24  O   UNL     1      49.594   1.643  16.065  0.00  0.00    +0.000 OA
ATOM     25  H   UNL     1      51.236   0.705  17.615  0.00  0.00    +0.000 HD
ATOM     26  H   UNL     1      51.077   1.914  18.845  0.00  0.00    +0.000 HD
ENDBRANCH  16  23
ENDBRANCH  15  20
ENDBRANCH   1  15
TORSDOF 5
ENDMDL
MODEL 4
REMARK VINA RESULT:    -7.185      4.246      8.308
REMARK INTER + INTRA:          -9.305
REMARK INTER:                  -8.772
REMARK INTRA:                  -0.533
REMARK UNBOUND:                -0.019
REMARK  Name = 
REMARK  5 active torsions:
REMARK  status: ('A' for Active; 'I' for Inactive)
REMARK    1  A    between atoms: C_2  and  C_4
REMARK    2  A    between atoms: C_8  and  C_9
REMARK    3  A    between atoms: C_9  and  O_10
REMARK    4  A    between atoms: O_10  and  C_11
REMARK    5  A    between atoms: C_15  and  C_16
REMARK                            x       y       z     vdW  Elec       q    Type
REMARK                         _______ _______ _______ _____ _____    ______ ____
ROOT
ATOM      1  O   UNL     1      45.447   5.440  11.040  0.00  0.00    +0.000 OA
ENDROOT
BRANCH   1   2
ATOM      2  C   UNL     1      45.852   6.672  11.467  0.00  0.00    +0.000 A 
ATOM      3  C   UNL     1      44.851   7.623  11.629  0.00  0.00    +0.000 A 
ATOM      4  C   UNL     1      45.189   8.923  11.994  0.00  0.00    +0.000 A 
ATOM      5  C   UNL     1      46.522   9.257  12.244  0.00  0.00    +0.000 A 
ATOM      6  C   UNL     1      47.532   8.288  12.189  0.00  0.00    +0.000 A 
ATOM      7  C   UNL     1      47.175   7.001  11.758  0.00  0.00    +0.000 A 
BRANCH   6   8
ATOM      8  C   UNL     1      48.988   8.533  12.577  0.00  0.00    +0.000 C 
ATOM      9  C   UNL     1      49.582   7.334  13.350  0.00  0.00    +0.000 C 
ATOM     10  C   UNL     1      49.056   7.274  14.783  0.00  0.00    +0.000 C 
ATOM     11  N   UNL     1      49.369   8.499  15.520  0.00  0.00    +0.000 NA
ATOM     12  C   UNL     1      48.825   9.682  14.854  0.00  0.00    +0.000 C 
ATOM     13  C   UNL     1      49.275   9.805  13.394  0.00  0.00    +0.000 C 
ATOM     14  H   UNL     1      50.381   8.593  15.594  0.00  0.00    +0.000 HD
ENDBRANCH   6   8
ENDBRANCH   1   2
BRANCH   1  15
ATOM     15  C   UNL     1      45.086   5.384   9.657  0.00  0.00    +0.000 C 
BRANCH  15  20
ATOM     16  C   UNL     1      46.455   2.539   7.536  0.00  0.00    +0.000 A 
ATOM     17  C   UNL     1      45.789   1.434   8.082  0.00  0.00    +0.000 A 
ATOM     18  C   UNL     1      44.877   1.611   9.120  0.00  0.00    +0.000 A 
ATOM     19  C   UNL     1      44.640   2.888   9.630  0.00  0.00    +0.000 A 
ATOM     20  C   UNL     1      45.330   3.995   9.123  0.00  0.00    +0.000 A 
ATOM     21  C   UNL     1      46.223   3.815   8.059  0.00  0.00    +0.000 A 
BRANCH  16  23
ATOM     22  N   UNL     1      47.282   3.231   5.350  0.00  0.00    +0.000 N 
ATOM     23  C   UNL     1      47.439   2.404   6.429  0.00  0.00    +0.000 C 
ATOM     24  O   UNL     1      48.376   1.620   6.491  0.00  0.00    +0.000 OA
ATOM     25  H   UNL     1      48.014   3.192   4.653  0.00  0.00    +0.000 HD
ATOM     26  H   UNL     1      46.686   4.045   5.366  0.00  0.00    +0.000 HD
ENDBRANCH  16  23
ENDBRANCH  15  20
ENDBRANCH   1  15
TORSDOF 5
ENDMDL
MODEL 5
REMARK VINA RESULT:    -6.911      2.449      8.374
REMARK INTER + INTRA:          -8.950
REMARK INTER:                  -8.396
REMARK INTRA:                  -0.553
REMARK UNBOUND:                -0.019
REMARK  Name = 
REMARK  5 active torsions:
REMARK  status: ('A' for Active; 'I' for Inactive)
REMARK    1  A    between atoms: C_2  and  C_4
REMARK    2  A    between atoms: C_8  and  C_9
REMARK    3  A    between atoms: C_9  and  O_10
REMARK    4  A    between atoms: O_10  and  C_11
REMARK    5  A    between atoms: C_15  and  C_16
REMARK                            x       y       z     vdW  Elec       q    Type
REMARK                         _______ _______ _______ _____ _____    ______ ____
ROOT
ATOM      1  O   UNL     1      46.728   3.961  15.453  0.00  0.00    +0.000 OA
ENDROOT
BRANCH   1   2
ATOM      2  C   UNL     1      47.755   3.844  16.346  0.00  0.00    +0.000 A 
ATOM      3  C   UNL     1      48.490   2.665  16.282  0.00  0.00    +0.000 A 
ATOM      4  C   UNL     1      49.508   2.439  17.202  0.00  0.00    +0.000 A 
ATOM      5  C   UNL     1      49.824   3.413  18.154  0.00  0.00    +0.000 A 
ATOM      6  C   UNL     1      49.166   4.649  18.166  0.00  0.00    +0.000 A 
ATOM      7  C   UNL     1      48.101   4.829  17.270  0.00  0.00    +0.000 A 
BRANCH   6   8
ATOM      8  C   UNL     1      49.535   5.816  19.078  0.00  0.00    +0.000 C 
ATOM      9  C   UNL     1      50.070   5.327  20.444  0.00  0.00    +0.000 C 
ATOM     10  C   UNL     1      48.944   4.797  21.329  0.00  0.00    +0.000 C 
ATOM     11  N   UNL     1      47.927   5.821  21.573  0.00  0.00    +0.000 NA
ATOM     12  C   UNL     1      47.361   6.326  20.322  0.00  0.00    +0.000 C 
ATOM     13  C   UNL     1      48.428   6.848  19.353  0.00  0.00    +0.000 C 
ATOM     14  H   UNL     1      48.350   6.594  22.085  0.00  0.00    +0.000 HD
ENDBRANCH   6   8
ENDBRANCH   1   2
BRANCH   1  15
ATOM     15  C   UNL     1      47.109   3.774  14.088  0.00  0.00    +0.000 C 
BRANCH  15  20
ATOM     16  C   UNL     1      44.424   5.455  11.984  0.00  0.00    +0.000 A 
ATOM     17  C   UNL     1      45.074   6.629  11.580  0.00  0.00    +0.000 A 
ATOM     18  C   UNL     1      46.392   6.865  11.968  0.00  0.00    +0.000 A 
ATOM     19  C   UNL     1      47.058   5.942  12.774  0.00  0.00    +0.000 A 
ATOM     20  C   UNL     1      46.406   4.786  13.219  0.00  0.00    +0.000 A 
ATOM     21  C   UNL     1      45.092   4.539  12.802  0.00  0.00    +0.000 A 
BRANCH  16  23
ATOM     22  N   UNL     1      42.106   6.167  11.734  0.00  0.00    +0.000 N 
ATOM     23  C   UNL     1      43.018   5.156  11.600  0.00  0.00    +0.000 C 
ATOM     24  O   UNL     1      42.691   4.069  11.145  0.00  0.00    +0.000 OA
ATOM     25  H   UNL     1      41.179   5.975  11.379  0.00  0.00    +0.000 HD
ATOM     26  H   UNL     1      42.372   7.131  11.867  0.00  0.00    +0.000 HD
ENDBRANCH  16  23
ENDBRANCH  15  20
ENDBRANCH   1  15
TORSDOF 5
ENDMDL
MODEL 6
REMARK VINA RESULT:    -6.873      2.314      6.743
REMARK INTER + INTRA:          -8.900
REMARK INTER:                  -7.798
REMARK INTRA:                  -1.103
REMARK UNBOUND:                -0.019
REMARK  Name = 
REMARK  5 active torsions:
REMARK  status: ('A' for Active; 'I' for Inactive)
REMARK    1  A    between atoms: C_2  and  C_4
REMARK    2  A    between atoms: C_8  and  C_9
REMARK    3  A    between atoms: C_9  and  O_10
REMARK    4  A    between atoms: O_10  and  C_11
REMARK    5  A    between atoms: C_15  and  C_16
REMARK                            x       y       z     vdW  Elec       q    Type
REMARK                         _______ _______ _______ _____ _____    ______ ____
ROOT
ATOM      1  O   UNL     1      48.669   8.481  14.598  0.00  0.00    +0.000 OA
ENDROOT
BRANCH   1   2
ATOM      2  C   UNL     1      49.422   7.667  15.394  0.00  0.00    +0.000 A 
ATOM      3  C   UNL     1      50.799   7.742  15.217  0.00  0.00    +0.000 A 
ATOM      4  C   UNL     1      51.633   6.896  15.941  0.00  0.00    +0.000 A 
ATOM      5  C   UNL     1      51.093   6.009  16.877  0.00  0.00    +0.000 A 
ATOM      6  C   UNL     1      49.718   5.993  17.145  0.00  0.00    +0.000 A 
ATOM      7  C   UNL     1      48.892   6.811  16.358  0.00  0.00    +0.000 A 
BRANCH   6   8
ATOM      8  C   UNL     1      49.060   5.158  18.240  0.00  0.00    +0.000 C 
ATOM      9  C   UNL     1      49.566   3.697  18.225  0.00  0.00    +0.000 C 
ATOM     10  C   UNL     1      48.970   2.910  17.060  0.00  0.00    +0.000 C 
ATOM     11  N   UNL     1      47.508   2.891  17.118  0.00  0.00    +0.000 NA
ATOM     12  C   UNL     1      46.951   4.243  17.122  0.00  0.00    +0.000 C 
ATOM     13  C   UNL     1      47.522   5.120  18.243  0.00  0.00    +0.000 C 
ATOM     14  H   UNL     1      47.215   2.407  17.966  0.00  0.00    +0.000 HD
ENDBRANCH   6   8
ENDBRANCH   1   2
BRANCH   1  15
ATOM     15  C   UNL     1      48.564   8.045  13.240  0.00  0.00    +0.000 C 
BRANCH  15  20
ATOM     16  C   UNL     1      46.233   5.046  13.040  0.00  0.00    +0.000 A 
ATOM     17  C   UNL     1      45.014   5.656  12.716  0.00  0.00    +0.000 A 
ATOM     18  C   UNL     1      44.951   7.038  12.537  0.00  0.00    +0.000 A 
ATOM     19  C   UNL     1      46.098   7.815  12.699  0.00  0.00    +0.000 A 
ATOM     20  C   UNL     1      47.312   7.223  13.064  0.00  0.00    +0.000 A 
ATOM     21  C   UNL     1      47.377   5.832  13.212  0.00  0.00    +0.000 A 
BRANCH  16  23
ATOM     22  N   UNL     1      45.474   2.779  12.567  0.00  0.00    +0.000 N 
ATOM     23  C   UNL     1      46.355   3.578  13.243  0.00  0.00    +0.000 C 
ATOM     24  O   UNL     1      47.228   3.095  13.951  0.00  0.00    +0.000 OA
ATOM     25  H   UNL     1      45.633   1.783  12.642  0.00  0.00    +0.000 HD
ATOM     26  H   UNL     1      44.912   3.112  11.798  0.00  0.00    +0.000 HD
ENDBRANCH  16  23
ENDBRANCH  15  20
ENDBRANCH   1  15
TORSDOF 5
ENDMDL
MODEL 7
REMARK VINA RESULT:    -6.804      2.215      2.818
REMARK INTER + INTRA:          -8.812
REMARK INTER:                  -8.875
REMARK INTRA:                   0.063
REMARK UNBOUND:                -0.019
REMARK  Name = 
REMARK  5 active torsions:
REMARK  status: ('A' for Active; 'I' for Inactive)
REMARK    1  A    between atoms: C_2  and  C_4
REMARK    2  A    between atoms: C_8  and  C_9
REMARK    3  A    between atoms: C_9  and  O_10
REMARK    4  A    between atoms: O_10  and  C_11
REMARK    5  A    between atoms: C_15  and  C_16
REMARK                            x       y       z     vdW  Elec       q    Type
REMARK                         _______ _______ _______ _____ _____    ______ ____
ROOT
ATOM      1  O   UNL     1      47.772   4.774  13.986  0.00  0.00    +0.000 OA
ENDROOT
BRANCH   1   2
ATOM      2  C   UNL     1      46.995   5.523  13.149  0.00  0.00    +0.000 A 
ATOM      3  C   UNL     1      47.460   6.801  12.862  0.00  0.00    +0.000 A 
ATOM      4  C   UNL     1      46.693   7.652  12.072  0.00  0.00    +0.000 A 
ATOM      5  C   UNL     1      45.484   7.206  11.530  0.00  0.00    +0.000 A 
ATOM      6  C   UNL     1      45.050   5.888  11.720  0.00  0.00    +0.000 A 
ATOM      7  C   UNL     1      45.809   5.070  12.571  0.00  0.00    +0.000 A 
BRANCH   6   8
ATOM      8  C   UNL     1      43.817   5.279  11.058  0.00  0.00    +0.000 C 
ATOM      9  C   UNL     1      42.950   4.500  12.073  0.00  0.00    +0.000 C 
ATOM     10  C   UNL     1      43.590   3.166  12.449  0.00  0.00    +0.000 C 
ATOM     11  N   UNL     1      43.796   2.319  11.273  0.00  0.00    +0.000 NA
ATOM     12  C   UNL     1      44.623   2.986  10.268  0.00  0.00    +0.000 C 
ATOM     13  C   UNL     1      44.072   4.355   9.855  0.00  0.00    +0.000 C 
ATOM     14  H   UNL     1      42.890   2.093  10.864  0.00  0.00    +0.000 HD
ENDBRANCH   6   8
ENDBRANCH   1   2
BRANCH   1  15
ATOM     15  C   UNL     1      47.045   3.836  14.783  0.00  0.00    +0.000 C 
BRANCH  15  20
ATOM     16  C   UNL     1      47.808   4.913  18.350  0.00  0.00    +0.000 A 
ATOM     17  C   UNL     1      48.620   3.861  18.795  0.00  0.00    +0.000 A 
ATOM     18  C   UNL     1      48.942   2.815  17.933  0.00  0.00    +0.000 A 
ATOM     19  C   UNL     1      48.441   2.805  16.631  0.00  0.00    +0.000 A 
ATOM     20  C   UNL     1      47.594   3.827  16.187  0.00  0.00    +0.000 A 
ATOM     21  C   UNL     1      47.299   4.891  17.048  0.00  0.00    +0.000 A 
BRANCH  16  23
ATOM     22  N   UNL     1      47.247   7.268  18.632  0.00  0.00    +0.000 N 
ATOM     23  C   UNL     1      47.433   6.051  19.230  0.00  0.00    +0.000 C 
ATOM     24  O   UNL     1      47.257   5.907  20.432  0.00  0.00    +0.000 OA
ATOM     25  H   UNL     1      46.900   8.006  19.230  0.00  0.00    +0.000 HD
ATOM     26  H   UNL     1      47.141   7.377  17.634  0.00  0.00    +0.000 HD
ENDBRANCH  16  23
ENDBRANCH  15  20
ENDBRANCH   1  15
TORSDOF 5
ENDMDL
MODEL 8
REMARK VINA RESULT:    -6.747      2.268      8.202
REMARK INTER + INTRA:          -8.737
REMARK INTER:                  -8.185
REMARK INTRA:                  -0.552
REMARK UNBOUND:                -0.019
REMARK  Name = 
REMARK  5 active torsions:
REMARK  status: ('A' for Active; 'I' for Inactive)
REMARK    1  A    between atoms: C_2  and  C_4
REMARK    2  A    between atoms: C_8  and  C_9
REMARK    3  A    between atoms: C_9  and  O_10
REMARK    4  A    between atoms: O_10  and  C_11
REMARK    5  A    between atoms: C_15  and  C_16
REMARK                            x       y       z     vdW  Elec       q    Type
REMARK                         _______ _______ _______ _____ _____    ______ ____
ROOT
ATOM      1  O   UNL     1      47.025   3.945  15.138  0.00  0.00    +0.000 OA
ENDROOT
BRANCH   1   2
ATOM      2  C   UNL     1      47.567   3.934  16.392  0.00  0.00    +0.000 A 
ATOM      3  C   UNL     1      48.504   2.937  16.644  0.00  0.00    +0.000 A 
ATOM      4  C   UNL     1      49.052   2.814  17.917  0.00  0.00    +0.000 A 
ATOM      5  C   UNL     1      48.700   3.718  18.923  0.00  0.00    +0.000 A 
ATOM      6  C   UNL     1      47.839   4.791  18.660  0.00  0.00    +0.000 A 
ATOM      7  C   UNL     1      47.251   4.857  17.388  0.00  0.00    +0.000 A 
BRANCH   6   8
ATOM      8  C   UNL     1      47.507   5.898  19.658  0.00  0.00    +0.000 C 
ATOM      9  C   UNL     1      47.635   7.300  19.018  0.00  0.00    +0.000 C 
ATOM     10  C   UNL     1      49.097   7.700  18.833  0.00  0.00    +0.000 C 
ATOM     11  N   UNL     1      49.816   7.708  20.108  0.00  0.00    +0.000 NA
ATOM     12  C   UNL     1      49.752   6.405  20.770  0.00  0.00    +0.000 C 
ATOM     13  C   UNL     1      48.316   5.906  20.966  0.00  0.00    +0.000 C 
ATOM     14  H   UNL     1      49.404   8.413  20.718  0.00  0.00    +0.000 HD
ENDBRANCH   6   8
ENDBRANCH   1   2
BRANCH   1  15
ATOM     15  C   UNL     1      47.266   5.148  14.403  0.00  0.00    +0.000 C 
BRANCH  15  20
ATOM     16  C   UNL     1      44.904   3.989  11.656  0.00  0.00    +0.000 A 
ATOM     17  C   UNL     1      45.013   5.035  10.730  0.00  0.00    +0.000 A 
ATOM     18  C   UNL     1      45.870   6.105  10.982  0.00  0.00    +0.000 A 
ATOM     19  C   UNL     1      46.608   6.143  12.166  0.00  0.00    +0.000 A 
ATOM     20  C   UNL     1      46.476   5.127  13.119  0.00  0.00    +0.000 A 
ATOM     21  C   UNL     1      45.636   4.039  12.846  0.00  0.00    +0.000 A 
BRANCH  16  23
ATOM     22  N   UNL     1      44.110   2.172  10.240  0.00  0.00    +0.000 N 
ATOM     23  C   UNL     1      44.003   2.827  11.436  0.00  0.00    +0.000 C 
ATOM     24  O   UNL     1      43.225   2.441  12.299  0.00  0.00    +0.000 OA
ATOM     25  H   UNL     1      43.559   1.328  10.147  0.00  0.00    +0.000 HD
ATOM     26  H   UNL     1      44.891   2.298   9.614  0.00  0.00    +0.000 HD
ENDBRANCH  16  23
ENDBRANCH  15  20
ENDBRANCH   1  15
TORSDOF 5
ENDMDL
MODEL 9
REMARK VINA RESULT:    -6.675      2.750      7.365
REMARK INTER + INTRA:          -8.645
REMARK INTER:                  -7.859
REMARK INTRA:                  -0.786
REMARK UNBOUND:                -0.019
REMARK  Name = 
REMARK  5 active torsions:
REMARK  status: ('A' for Active; 'I' for Inactive)
REMARK    1  A    between atoms: C_2  and  C_4
REMARK    2  A    between atoms: C_8  and  C_9
REMARK    3  A    between atoms: C_9  and  O_10
REMARK    4  A    between atoms: O_10  and  C_11
REMARK    5  A    between atoms: C_15  and  C_16
REMARK                            x       y       z     vdW  Elec       q    Type
REMARK                         _______ _______ _______ _____ _____    ______ ____
ROOT
ATOM      1  O   UNL     1      48.435   7.856  13.183  0.00  0.00    +0.000 OA
ENDROOT
BRANCH   1   2
ATOM      2  C   UNL     1      48.503   8.003  14.539  0.00  0.00    +0.000 A 
ATOM      3  C   UNL     1      48.186   9.262  15.035  0.00  0.00    +0.000 A 
ATOM      4  C   UNL     1      48.298   9.513  16.399  0.00  0.00    +0.000 A 
ATOM      5  C   UNL     1      48.679   8.490  17.272  0.00  0.00    +0.000 A 
ATOM      6  C   UNL     1      48.900   7.188  16.805  0.00  0.00    +0.000 A 
ATOM      7  C   UNL     1      48.842   6.976  15.419  0.00  0.00    +0.000 A 
BRANCH   6   8
ATOM      8  C   UNL     1      49.186   5.985  17.700  0.00  0.00    +0.000 C 
ATOM      9  C   UNL     1      48.852   4.653  16.991  0.00  0.00    +0.000 C 
ATOM     10  C   UNL     1      47.344   4.423  16.912  0.00  0.00    +0.000 C 
ATOM     11  N   UNL     1      46.734   4.402  18.242  0.00  0.00    +0.000 NA
ATOM     12  C   UNL     1      46.996   5.642  18.974  0.00  0.00    +0.000 C 
ATOM     13  C   UNL     1      48.490   5.971  19.072  0.00  0.00    +0.000 C 
ATOM     14  H   UNL     1      47.113   3.616  18.769  0.00  0.00    +0.000 HD
ENDBRANCH   6   8
ENDBRANCH   1   2
BRANCH   1  15
ATOM     15  C   UNL     1      48.151   6.524  12.748  0.00  0.00    +0.000 C 
BRANCH  15  20
ATOM     16  C   UNL     1      44.757   5.052  11.866  0.00  0.00    +0.000 A 
ATOM     17  C   UNL     1      44.041   6.196  11.491  0.00  0.00    +0.000 A 
ATOM     18  C   UNL     1      44.664   7.443  11.498  0.00  0.00    +0.000 A 
ATOM     19  C   UNL     1      45.996   7.555  11.897  0.00  0.00    +0.000 A 
ATOM     20  C   UNL     1      46.710   6.426  12.316  0.00  0.00    +0.000 A 
ATOM     21  C   UNL     1      46.088   5.171  12.277  0.00  0.00    +0.000 A 
BRANCH  16  23
ATOM     22  N   UNL     1      44.859   2.689  12.457  0.00  0.00    +0.000 N 
ATOM     23  C   UNL     1      44.139   3.699  11.878  0.00  0.00    +0.000 C 
ATOM     24  O   UNL     1      43.019   3.497  11.428  0.00  0.00    +0.000 OA
ATOM     25  H   UNL     1      44.383   1.800  12.541  0.00  0.00    +0.000 HD
ATOM     26  H   UNL     1      45.659   2.856  13.048  0.00  0.00    +0.000 HD
ENDBRANCH  16  23
ENDBRANCH  15  20
ENDBRANCH   1  15
TORSDOF 5
ENDMDL
