MODEL 1
REMARK VINA RESULT:    -8.317      0.000      0.000
REMARK INTER + INTRA:         -12.645
REMARK INTER:                 -11.720
REMARK INTRA:                  -0.924
REMARK UNBOUND:                -0.924
REMARK  Name = 
REMARK  7 active torsions:
REMARK  status: ('A' for Active; 'I' for Inactive)
REMARK    1  A    between atoms: C_2  and  C_20
REMARK    2  A    between atoms: N_3  and  C_4
REMARK    3  A    between atoms: C_4  and  C_5
REMARK    4  A    between atoms: C_8  and  C_9
REMARK    5  A    between atoms: C_9  and  O_10
REMARK    6  A    between atoms: O_10  and  C_11
REMARK    7  A    between atoms: C_11  and  C_12
REMARK                            x       y       z     vdW  Elec       q    Type
REMARK                         _______ _______ _______ _____ _____    ______ ____
ROOT
ATOM      1  C   UNL     1      46.915   6.025  13.041  0.00  0.00    +0.000 A 
ATOM      2  C   UNL     1      46.030   5.053  13.530  0.00  0.00    +0.000 A 
ATOM      3  C   UNL     1      44.938   4.629  12.761  0.00  0.00    +0.000 A 
ATOM      4  C   UNL     1      44.713   5.158  11.482  0.00  0.00    +0.000 A 
ATOM      5  C   UNL     1      45.612   6.109  10.985  0.00  0.00    +0.000 A 
ATOM      6  C   UNL     1      46.705   6.531  11.753  0.00  0.00    +0.000 A 
ENDROOT
BRANCH   1   7
ATOM      7  C   UNL     1      48.046   6.544  13.891  0.00  0.00    +0.000 C 
BRANCH   7  10
ATOM      8  O   UNL     1      50.157   6.491  15.656  0.00  0.00    +0.000 OA
ATOM      9  C   UNL     1      49.060   6.141  16.095  0.00  0.00    +0.000 C 
ATOM     10  N   UNL     1      47.951   6.125  15.268  0.00  0.00    +0.000 N 
ATOM     11  H   UNL     1      47.067   5.799  15.632  0.00  0.00    +0.000 HD
BRANCH   9  12
ATOM     12  C   UNL     1      48.841   5.730  17.483  0.00  0.00    +0.000 A 
ATOM     13  S   UNL     1      49.148   4.087  17.954  0.00  0.00    +0.000 S 
ATOM     14  C   UNL     1      48.658   4.349  19.568  0.00  0.00    +0.000 A 
ATOM     15  C   UNL     1      48.274   5.647  19.760  0.00  0.00    +0.000 A 
ATOM     16  N   UNL     1      47.829   6.114  20.954  0.00  0.00    +0.000 NA
ATOM     17  C   UNL     1      47.505   7.439  20.890  0.00  0.00    +0.000 A 
ATOM     18  C   UNL     1      47.598   8.290  19.770  0.00  0.00    +0.000 A 
ATOM     19  C   UNL     1      48.057   7.823  18.528  0.00  0.00    +0.000 A 
ATOM     20  C   UNL     1      48.387   6.460  18.572  0.00  0.00    +0.000 A 
ENDBRANCH   9  12
ENDBRANCH   7  10
ENDBRANCH   1   7
BRANCH   4  21
ATOM     21  C   UNL     1      43.532   4.710  10.654  0.00  0.00    +0.000 C 
BRANCH  21  22
ATOM     22  O   UNL     1      43.998   4.229   9.396  0.00  0.00    +0.000 OA
BRANCH  22  23
ATOM     23  C   UNL     1      44.431   2.870   9.466  0.00  0.00    +0.000 C 
BRANCH  23  24
ATOM     24  C   UNL     1      45.510   2.611   8.441  0.00  0.00    +0.000 A 
ATOM     25  C   UNL     1      46.087   1.339   8.304  0.00  0.00    +0.000 A 
ATOM     26  C   UNL     1      47.050   1.091   7.325  0.00  0.00    +0.000 A 
ATOM     27  C   UNL     1      47.441   2.110   6.460  0.00  0.00    +0.000 A 
ATOM     28  C   UNL     1      46.873   3.378   6.577  0.00  0.00    +0.000 A 
ATOM     29  C   UNL     1      45.911   3.626   7.560  0.00  0.00    +0.000 A 
ENDBRANCH  23  24
ENDBRANCH  22  23
ENDBRANCH  21  22
ENDBRANCH   4  21
TORSDOF 7
ENDMDL
MODEL 2
REMARK VINA RESULT:    -8.074      1.557      2.221
REMARK INTER + INTRA:         -12.303
REMARK INTER:                 -11.315
REMARK INTRA:                  -0.988
REMARK UNBOUND:                -0.924
REMARK  Name = 
REMARK  7 active torsions:
REMARK  status: ('A' for Active; 'I' for Inactive)
REMARK    1  A    between atoms: C_2  and  C_20
REMARK    2  A    between atoms: N_3  and  C_4
REMARK    3  A    between atoms: C_4  and  C_5
REMARK    4  A    between atoms: C_8  and  C_9
REMARK    5  A    between atoms: C_9  and  O_10
REMARK    6  A    between atoms: O_10  and  C_11
REMARK    7  A    between atoms: C_11  and  C_12
REMARK                            x       y       z     vdW  Elec       q    Type
REMARK                         _______ _______ _______ _____ _____    ______ ____
ROOT
ATOM      1  C   UNL     1      46.303   6.568  12.724  0.00  0.00    +0.000 A 
ATOM      2  C   UNL     1      45.789   6.810  11.442  0.00  0.00    +0.000 A 
ATOM      3  C   UNL     1      44.921   5.894  10.835  0.00  0.00    +0.000 A 
ATOM      4  C   UNL     1      44.538   4.719  11.500  0.00  0.00    +0.000 A 
ATOM      5  C   UNL     1      45.031   4.492  12.790  0.00  0.00    +0.000 A 
ATOM      6  C   UNL     1      45.898   5.410  13.398  0.00  0.00    +0.000 A 
ENDROOT
BRANCH   1   7
ATOM      7  C   UNL     1      47.299   7.509  13.353  0.00  0.00    +0.000 C 
BRANCH   7  10
ATOM      8  O   UNL     1      49.869   6.950  14.161  0.00  0.00    +0.000 OA
ATOM      9  C   UNL     1      48.989   6.870  15.020  0.00  0.00    +0.000 C 
ATOM     10  N   UNL     1      47.669   7.121  14.691  0.00  0.00    +0.000 N 
ATOM     11  H   UNL     1      46.954   7.013  15.398  0.00  0.00    +0.000 HD
BRANCH   9  12
ATOM     12  C   UNL     1      49.256   6.519  16.417  0.00  0.00    +0.000 A 
ATOM     13  S   UNL     1      50.197   7.589  17.410  0.00  0.00    +0.000 S 
ATOM     14  C   UNL     1      50.121   6.560  18.770  0.00  0.00    +0.000 A 
ATOM     15  C   UNL     1      49.398   5.433  18.493  0.00  0.00    +0.000 A 
ATOM     16  N   UNL     1      49.195   4.447  19.404  0.00  0.00    +0.000 NA
ATOM     17  C   UNL     1      48.446   3.429  18.888  0.00  0.00    +0.000 A 
ATOM     18  C   UNL     1      47.905   3.337  17.589  0.00  0.00    +0.000 A 
ATOM     19  C   UNL     1      48.104   4.348  16.637  0.00  0.00    +0.000 A 
ATOM     20  C   UNL     1      48.880   5.400  17.146  0.00  0.00    +0.000 A 
ENDBRANCH   9  12
ENDBRANCH   7  10
ENDBRANCH   1   7
BRANCH   4  21
ATOM     21  C   UNL     1      43.609   3.725  10.845  0.00  0.00    +0.000 C 
BRANCH  21  22
ATOM     22  O   UNL     1      44.056   3.470   9.517  0.00  0.00    +0.000 OA
BRANCH  22  23
ATOM     23  C   UNL     1      44.806   2.258   9.424  0.00  0.00    +0.000 C 
BRANCH  23  24
ATOM     24  C   UNL     1      45.790   2.339   8.281  0.00  0.00    +0.000 A 
ATOM     25  C   UNL     1      46.562   1.226   7.913  0.00  0.00    +0.000 A 
ATOM     26  C   UNL     1      47.435   1.289   6.826  0.00  0.00    +0.000 A 
ATOM     27  C   UNL     1      47.541   2.463   6.084  0.00  0.00    +0.000 A 
ATOM     28  C   UNL     1      46.776   3.576   6.433  0.00  0.00    +0.000 A 
ATOM     29  C   UNL     1      45.903   3.513   7.522  0.00  0.00    +0.000 A 
ENDBRANCH  23  24
ENDBRANCH  22  23
ENDBRANCH  21  22
ENDBRANCH   4  21
TORSDOF 7
ENDMDL
MODEL 3
REMARK VINA RESULT:    -7.643      1.487      2.256
REMARK INTER + INTRA:         -11.695
REMARK INTER:                 -10.792
REMARK INTRA:                  -0.903
REMARK UNBOUND:                -0.924
REMARK  Name = 
REMARK  7 active torsions:
REMARK  status: ('A' for Active; 'I' for Inactive)
REMARK    1  A    between atoms: C_2  and  C_20
REMARK    2  A    between atoms: N_3  and  C_4
REMARK    3  A    between atoms: C_4  and  C_5
REMARK    4  A    between atoms: C_8  and  C_9
REMARK    5  A    between atoms: C_9  and  O_10
REMARK    6  A    between atoms: O_10  and  C_11
REMARK    7  A    between atoms: C_11  and  C_12
REMARK                            x       y       z     vdW  Elec       q    Type
REMARK                         _______ _______ _______ _____ _____    ______ ____
ROOT
ATOM      1  C   UNL     1      46.505   6.716  12.494  0.00  0.00    +0.000 A 
ATOM      2  C   UNL     1      45.877   5.821  13.373  0.00  0.00    +0.000 A 
ATOM      3  C   UNL     1      45.072   4.784  12.883  0.00  0.00    +0.000 A 
ATOM      4  C   UNL     1      44.886   4.612  11.503  0.00  0.00    +0.000 A 
ATOM      5  C   UNL     1      45.534   5.491  10.627  0.00  0.00    +0.000 A 
ATOM      6  C   UNL     1      46.341   6.526  11.117  0.00  0.00    +0.000 A 
ENDROOT
BRANCH   1   7
ATOM      7  C   UNL     1      47.308   7.881  13.014  0.00  0.00    +0.000 C 
BRANCH   7  10
ATOM      8  O   UNL     1      49.458   6.656  14.216  0.00  0.00    +0.000 OA
ATOM      9  C   UNL     1      48.641   7.197  14.964  0.00  0.00    +0.000 C 
ATOM     10  N   UNL     1      47.524   7.822  14.438  0.00  0.00    +0.000 N 
ATOM     11  H   UNL     1      46.843   8.227  15.066  0.00  0.00    +0.000 HD
BRANCH   9  12
ATOM     12  C   UNL     1      48.778   7.229  16.422  0.00  0.00    +0.000 A 
ATOM     13  S   UNL     1      48.884   8.755  17.244  0.00  0.00    +0.000 S 
ATOM     14  C   UNL     1      49.061   8.031  18.780  0.00  0.00    +0.000 A 
ATOM     15  C   UNL     1      49.036   6.667  18.686  0.00  0.00    +0.000 A 
ATOM     16  N   UNL     1      49.168   5.853  19.764  0.00  0.00    +0.000 NA
ATOM     17  C   UNL     1      49.113   4.535  19.412  0.00  0.00    +0.000 A 
ATOM     18  C   UNL     1      48.936   4.001  18.119  0.00  0.00    +0.000 A 
ATOM     19  C   UNL     1      48.797   4.829  16.994  0.00  0.00    +0.000 A 
ATOM     20  C   UNL     1      48.859   6.188  17.335  0.00  0.00    +0.000 A 
ENDBRANCH   9  12
ENDBRANCH   7  10
ENDBRANCH   1   7
BRANCH   4  21
ATOM     21  C   UNL     1      44.013   3.501  10.971  0.00  0.00    +0.000 C 
BRANCH  21  22
ATOM     22  O   UNL     1      44.839   2.446  10.487  0.00  0.00    +0.000 OA
BRANCH  22  23
ATOM     23  C   UNL     1      44.441   2.002   9.189  0.00  0.00    +0.000 C 
BRANCH  23  24
ATOM     24  C   UNL     1      45.571   2.186   8.204  0.00  0.00    +0.000 A 
ATOM     25  C   UNL     1      45.780   3.419   7.566  0.00  0.00    +0.000 A 
ATOM     26  C   UNL     1      46.854   3.599   6.692  0.00  0.00    +0.000 A 
ATOM     27  C   UNL     1      47.741   2.553   6.454  0.00  0.00    +0.000 A 
ATOM     28  C   UNL     1      47.552   1.324   7.085  0.00  0.00    +0.000 A 
ATOM     29  C   UNL     1      46.476   1.143   7.958  0.00  0.00    +0.000 A 
ENDBRANCH  23  24
ENDBRANCH  22  23
ENDBRANCH  21  22
ENDBRANCH   4  21
TORSDOF 7
ENDMDL
MODEL 4
REMARK VINA RESULT:    -7.563      4.024      6.364
REMARK INTER + INTRA:         -11.582
REMARK INTER:                 -10.577
REMARK INTRA:                  -1.005
REMARK UNBOUND:                -0.924
REMARK  Name = 
REMARK  7 active torsions:
REMARK  status: ('A' for Active; 'I' for Inactive)
REMARK    1  A    between atoms: C_2  and  C_20
REMARK    2  A    between atoms: N_3  and  C_4
REMARK    3  A    between atoms: C_4  and  C_5
REMARK    4  A    between atoms: C_8  and  C_9
REMARK    5  A    between atoms: C_9  and  O_10
REMARK    6  A    between atoms: O_10  and  C_11
REMARK    7  A    between atoms: C_11  and  C_12
REMARK                            x       y       z     vdW  Elec       q    Type
REMARK                         _______ _______ _______ _____ _____    ______ ____
ROOT
ATOM      1  C   UNL     1      47.235   6.080  12.748  0.00  0.00    +0.000 A 
ATOM      2  C   UNL     1      46.570   5.029  13.395  0.00  0.00    +0.000 A 
ATOM      3  C   UNL     1      45.422   4.455  12.833  0.00  0.00    +0.000 A 
ATOM      4  C   UNL     1      44.919   4.912  11.606  0.00  0.00    +0.000 A 
ATOM      5  C   UNL     1      45.599   5.944  10.949  0.00  0.00    +0.000 A 
ATOM      6  C   UNL     1      46.748   6.516  11.510  0.00  0.00    +0.000 A 
ENDROOT
BRANCH   1   7
ATOM      7  C   UNL     1      48.424   6.755  13.383  0.00  0.00    +0.000 C 
BRANCH   7  10
ATOM      8  O   UNL     1      50.825   7.974  13.949  0.00  0.00    +0.000 OA
ATOM      9  C   UNL     1      50.370   8.147  12.816  0.00  0.00    +0.000 C 
ATOM     10  N   UNL     1      49.160   7.580  12.458  0.00  0.00    +0.000 N 
ATOM     11  H   UNL     1      48.782   7.762  11.538  0.00  0.00    +0.000 HD
BRANCH   9  12
ATOM     12  C   UNL     1      51.049   8.935  11.786  0.00  0.00    +0.000 A 
ATOM     13  S   UNL     1      51.033  10.670  11.877  0.00  0.00    +0.000 S 
ATOM     14  C   UNL     1      51.912  10.857  10.427  0.00  0.00    +0.000 A 
ATOM     15  C   UNL     1      52.222   9.643   9.880  0.00  0.00    +0.000 A 
ATOM     16  N   UNL     1      52.910   9.514   8.717  0.00  0.00    +0.000 NA
ATOM     17  C   UNL     1      53.092   8.204   8.379  0.00  0.00    +0.000 A 
ATOM     18  C   UNL     1      52.660   7.067   9.095  0.00  0.00    +0.000 A 
ATOM     19  C   UNL     1      51.949   7.184  10.299  0.00  0.00    +0.000 A 
ATOM     20  C   UNL     1      51.745   8.525  10.658  0.00  0.00    +0.000 A 
ENDBRANCH   9  12
ENDBRANCH   7  10
ENDBRANCH   1   7
BRANCH   4  21
ATOM     21  C   UNL     1      43.677   4.303  11.001  0.00  0.00    +0.000 C 
BRANCH  21  22
ATOM     22  O   UNL     1      43.952   3.914   9.658  0.00  0.00    +0.000 OA
BRANCH  22  23
ATOM     23  C   UNL     1      44.476   2.588   9.577  0.00  0.00    +0.000 C 
BRANCH  23  24
ATOM     24  C   UNL     1      45.480   2.490   8.452  0.00  0.00    +0.000 A 
ATOM     25  C   UNL     1      45.779   3.604   7.653  0.00  0.00    +0.000 A 
ATOM     26  C   UNL     1      46.742   3.523   6.645  0.00  0.00    +0.000 A 
ATOM     27  C   UNL     1      47.427   2.330   6.431  0.00  0.00    +0.000 A 
ATOM     28  C   UNL     1      47.146   1.216   7.222  0.00  0.00    +0.000 A 
ATOM     29  C   UNL     1      46.181   1.296   8.229  0.00  0.00    +0.000 A 
ENDBRANCH  23  24
ENDBRANCH  22  23
ENDBRANCH  21  22
ENDBRANCH   4  21
TORSDOF 7
ENDMDL
MODEL 5
REMARK VINA RESULT:    -6.993      2.978      9.146
REMARK INTER + INTRA:         -10.778
REMARK INTER:                  -9.459
REMARK INTRA:                  -1.319
REMARK UNBOUND:                -0.924
REMARK  Name = 
REMARK  7 active torsions:
REMARK  status: ('A' for Active; 'I' for Inactive)
REMARK    1  A    between atoms: C_2  and  C_20
REMARK    2  A    between atoms: N_3  and  C_4
REMARK    3  A    between atoms: C_4  and  C_5
REMARK    4  A    between atoms: C_8  and  C_9
REMARK    5  A    between atoms: C_9  and  O_10
REMARK    6  A    between atoms: O_10  and  C_11
REMARK    7  A    between atoms: C_11  and  C_12
REMARK                            x       y       z     vdW  Elec       q    Type
REMARK                         _______ _______ _______ _____ _____    ______ ____
ROOT
ATOM      1  C   UNL     1      47.834   7.924  13.535  0.00  0.00    +0.000 A 
ATOM      2  C   UNL     1      48.096   9.125  14.208  0.00  0.00    +0.000 A 
ATOM      3  C   UNL     1      48.679   9.119  15.482  0.00  0.00    +0.000 A 
ATOM      4  C   UNL     1      49.023   7.911  16.107  0.00  0.00    +0.000 A 
ATOM      5  C   UNL     1      48.784   6.714  15.422  0.00  0.00    +0.000 A 
ATOM      6  C   UNL     1      48.203   6.721  14.148  0.00  0.00    +0.000 A 
ENDROOT
BRANCH   1   7
ATOM      7  C   UNL     1      47.135   7.918  12.198  0.00  0.00    +0.000 C 
BRANCH   7  10
ATOM      8  O   UNL     1      44.536   7.583  11.360  0.00  0.00    +0.000 OA
ATOM      9  C   UNL     1      45.222   6.563  11.457  0.00  0.00    +0.000 C 
ATOM     10  N   UNL     1      46.535   6.645  11.886  0.00  0.00    +0.000 N 
ATOM     11  H   UNL     1      47.072   5.796  11.997  0.00  0.00    +0.000 HD
BRANCH   9  12
ATOM     12  C   UNL     1      44.726   5.224  11.132  0.00  0.00    +0.000 A 
ATOM     13  S   UNL     1      43.702   4.388  12.259  0.00  0.00    +0.000 S 
ATOM     14  C   UNL     1      43.588   2.995  11.279  0.00  0.00    +0.000 A 
ATOM     15  C   UNL     1      44.299   3.149  10.122  0.00  0.00    +0.000 A 
ATOM     16  N   UNL     1      44.380   2.181   9.173  0.00  0.00    +0.000 NA
ATOM     17  C   UNL     1      45.148   2.573   8.115  0.00  0.00    +0.000 A 
ATOM     18  C   UNL     1      45.803   3.810   7.944  0.00  0.00    +0.000 A 
ATOM     19  C   UNL     1      45.727   4.822   8.914  0.00  0.00    +0.000 A 
ATOM     20  C   UNL     1      44.949   4.434  10.014  0.00  0.00    +0.000 A 
ENDBRANCH   9  12
ENDBRANCH   7  10
ENDBRANCH   1   7
BRANCH   4  21
ATOM     21  C   UNL     1      49.644   7.899  17.483  0.00  0.00    +0.000 C 
BRANCH  21  22
ATOM     22  O   UNL     1      48.657   7.524  18.440  0.00  0.00    +0.000 OA
BRANCH  22  23
ATOM     23  C   UNL     1      49.056   6.389  19.208  0.00  0.00    +0.000 C 
BRANCH  23  24
ATOM     24  C   UNL     1      48.716   5.114  18.472  0.00  0.00    +0.000 A 
ATOM     25  C   UNL     1      47.402   4.848  18.058  0.00  0.00    +0.000 A 
ATOM     26  C   UNL     1      47.100   3.692  17.337  0.00  0.00    +0.000 A 
ATOM     27  C   UNL     1      48.110   2.791  17.009  0.00  0.00    +0.000 A 
ATOM     28  C   UNL     1      49.422   3.044  17.407  0.00  0.00    +0.000 A 
ATOM     29  C   UNL     1      49.724   4.200  18.132  0.00  0.00    +0.000 A 
ENDBRANCH  23  24
ENDBRANCH  22  23
ENDBRANCH  21  22
ENDBRANCH   4  21
TORSDOF 7
ENDMDL
MODEL 6
REMARK VINA RESULT:    -6.881      4.359      6.214
REMARK INTER + INTRA:         -10.622
REMARK INTER:                  -9.832
REMARK INTRA:                  -0.789
REMARK UNBOUND:                -0.924
REMARK  Name = 
REMARK  7 active torsions:
REMARK  status: ('A' for Active; 'I' for Inactive)
REMARK    1  A    between atoms: C_2  and  C_20
REMARK    2  A    between atoms: N_3  and  C_4
REMARK    3  A    between atoms: C_4  and  C_5
REMARK    4  A    between atoms: C_8  and  C_9
REMARK    5  A    between atoms: C_9  and  O_10
REMARK    6  A    between atoms: O_10  and  C_11
REMARK    7  A    between atoms: C_11  and  C_12
REMARK                            x       y       z     vdW  Elec       q    Type
REMARK                         _______ _______ _______ _____ _____    ______ ____
ROOT
ATOM      1  C   UNL     1      45.764   7.269  12.486  0.00  0.00    +0.000 A 
ATOM      2  C   UNL     1      44.593   7.286  11.714  0.00  0.00    +0.000 A 
ATOM      3  C   UNL     1      43.987   6.090  11.306  0.00  0.00    +0.000 A 
ATOM      4  C   UNL     1      44.532   4.849  11.670  0.00  0.00    +0.000 A 
ATOM      5  C   UNL     1      45.686   4.835  12.463  0.00  0.00    +0.000 A 
ATOM      6  C   UNL     1      46.290   6.030  12.872  0.00  0.00    +0.000 A 
ENDROOT
BRANCH   1   7
ATOM      7  C   UNL     1      46.466   8.549  12.862  0.00  0.00    +0.000 C 
BRANCH   7  10
ATOM      8  O   UNL     1      48.539  10.131  13.738  0.00  0.00    +0.000 OA
ATOM      9  C   UNL     1      48.707   9.540  12.670  0.00  0.00    +0.000 C 
ATOM     10  N   UNL     1      47.707   8.737  12.153  0.00  0.00    +0.000 N 
ATOM     11  H   UNL     1      47.845   8.290  11.257  0.00  0.00    +0.000 HD
BRANCH   9  12
ATOM     12  C   UNL     1      49.940   9.630  11.884  0.00  0.00    +0.000 A 
ATOM     13  S   UNL     1      51.275   8.582  12.252  0.00  0.00    +0.000 S 
ATOM     14  C   UNL     1      52.273   9.260  11.044  0.00  0.00    +0.000 A 
ATOM     15  C   UNL     1      51.620  10.252  10.368  0.00  0.00    +0.000 A 
ATOM     16  N   UNL     1      52.197  10.960   9.363  0.00  0.00    +0.000 NA
ATOM     17  C   UNL     1      51.345  11.895   8.849  0.00  0.00    +0.000 A 
ATOM     18  C   UNL     1      50.016  12.153   9.247  0.00  0.00    +0.000 A 
ATOM     19  C   UNL     1      49.406  11.429  10.283  0.00  0.00    +0.000 A 
ATOM     20  C   UNL     1      50.270  10.469  10.829  0.00  0.00    +0.000 A 
ENDBRANCH   9  12
ENDBRANCH   7  10
ENDBRANCH   1   7
BRANCH   4  21
ATOM     21  C   UNL     1      43.887   3.559  11.226  0.00  0.00    +0.000 C 
BRANCH  21  22
ATOM     22  O   UNL     1      44.047   3.415   9.818  0.00  0.00    +0.000 OA
BRANCH  22  23
ATOM     23  C   UNL     1      44.553   2.127   9.462  0.00  0.00    +0.000 C 
BRANCH  23  24
ATOM     24  C   UNL     1      45.620   2.260   8.401  0.00  0.00    +0.000 A 
ATOM     25  C   UNL     1      46.441   1.173   8.063  0.00  0.00    +0.000 A 
ATOM     26  C   UNL     1      47.394   1.284   7.049  0.00  0.00    +0.000 A 
ATOM     27  C   UNL     1      47.530   2.480   6.350  0.00  0.00    +0.000 A 
ATOM     28  C   UNL     1      46.717   3.568   6.668  0.00  0.00    +0.000 A 
ATOM     29  C   UNL     1      45.765   3.457   7.685  0.00  0.00    +0.000 A 
ENDBRANCH  23  24
ENDBRANCH  22  23
ENDBRANCH  21  22
ENDBRANCH   4  21
TORSDOF 7
ENDMDL
MODEL 7
REMARK VINA RESULT:    -6.753      1.925      2.551
REMARK INTER + INTRA:         -10.440
REMARK INTER:                  -9.661
REMARK INTRA:                  -0.779
REMARK UNBOUND:                -0.924
REMARK  Name = 
REMARK  7 active torsions:
REMARK  status: ('A' for Active; 'I' for Inactive)
REMARK    1  A    between atoms: C_2  and  C_20
REMARK    2  A    between atoms: N_3  and  C_4
REMARK    3  A    between atoms: C_4  and  C_5
REMARK    4  A    between atoms: C_8  and  C_9
REMARK    5  A    between atoms: C_9  and  O_10
REMARK    6  A    between atoms: O_10  and  C_11
REMARK    7  A    between atoms: C_11  and  C_12
REMARK                            x       y       z     vdW  Elec       q    Type
REMARK                         _______ _______ _______ _____ _____    ______ ____
ROOT
ATOM      1  C   UNL     1      46.016   6.716  12.671  0.00  0.00    +0.000 A 
ATOM      2  C   UNL     1      44.623   6.809  12.802  0.00  0.00    +0.000 A 
ATOM      3  C   UNL     1      43.786   5.826  12.258  0.00  0.00    +0.000 A 
ATOM      4  C   UNL     1      44.324   4.721  11.581  0.00  0.00    +0.000 A 
ATOM      5  C   UNL     1      45.716   4.617  11.474  0.00  0.00    +0.000 A 
ATOM      6  C   UNL     1      46.552   5.599  12.020  0.00  0.00    +0.000 A 
ENDROOT
BRANCH   1   7
ATOM      7  C   UNL     1      46.920   7.809  13.184  0.00  0.00    +0.000 C 
BRANCH   7  10
ATOM      8  O   UNL     1      49.476   6.839  13.491  0.00  0.00    +0.000 OA
ATOM      9  C   UNL     1      48.824   7.015  14.522  0.00  0.00    +0.000 C 
ATOM     10  N   UNL     1      47.525   7.486  14.452  0.00  0.00    +0.000 N 
ATOM     11  H   UNL     1      46.990   7.589  15.303  0.00  0.00    +0.000 HD
BRANCH   9  12
ATOM     12  C   UNL     1      49.350   6.755  15.864  0.00  0.00    +0.000 A 
ATOM     13  S   UNL     1      48.602   5.548  16.863  0.00  0.00    +0.000 S 
ATOM     14  C   UNL     1      49.653   5.836  18.177  0.00  0.00    +0.000 A 
ATOM     15  C   UNL     1      50.557   6.817  17.876  0.00  0.00    +0.000 A 
ATOM     16  N   UNL     1      51.499   7.244  18.755  0.00  0.00    +0.000 NA
ATOM     17  C   UNL     1      52.279   8.230  18.221  0.00  0.00    +0.000 A 
ATOM     18  C   UNL     1      52.190   8.786  16.928  0.00  0.00    +0.000 A 
ATOM     19  C   UNL     1      51.222   8.355  16.008  0.00  0.00    +0.000 A 
ATOM     20  C   UNL     1      50.405   7.347  16.542  0.00  0.00    +0.000 A 
ENDBRANCH   9  12
ENDBRANCH   7  10
ENDBRANCH   1   7
BRANCH   4  21
ATOM     21  C   UNL     1      43.425   3.663  10.986  0.00  0.00    +0.000 C 
BRANCH  21  22
ATOM     22  O   UNL     1      43.812   3.424   9.636  0.00  0.00    +0.000 OA
BRANCH  22  23
ATOM     23  C   UNL     1      44.489   2.176   9.483  0.00  0.00    +0.000 C 
BRANCH  23  24
ATOM     24  C   UNL     1      45.539   2.281   8.401  0.00  0.00    +0.000 A 
ATOM     25  C   UNL     1      45.754   3.488   7.718  0.00  0.00    +0.000 A 
ATOM     26  C   UNL     1      46.757   3.594   6.753  0.00  0.00    +0.000 A 
ATOM     27  C   UNL     1      47.567   2.499   6.466  0.00  0.00    +0.000 A 
ATOM     28  C   UNL     1      47.371   1.294   7.142  0.00  0.00    +0.000 A 
ATOM     29  C   UNL     1      46.365   1.187   8.106  0.00  0.00    +0.000 A 
ENDBRANCH  23  24
ENDBRANCH  22  23
ENDBRANCH  21  22
ENDBRANCH   4  21
TORSDOF 7
ENDMDL
MODEL 8
REMARK VINA RESULT:    -6.441      4.968      8.358
REMARK INTER + INTRA:         -10.001
REMARK INTER:                  -9.207
REMARK INTRA:                  -0.795
REMARK UNBOUND:                -0.924
REMARK  Name = 
REMARK  7 active torsions:
REMARK  status: ('A' for Active; 'I' for Inactive)
REMARK    1  A    between atoms: C_2  and  C_20
REMARK    2  A    between atoms: N_3  and  C_4
REMARK    3  A    between atoms: C_4  and  C_5
REMARK    4  A    between atoms: C_8  and  C_9
REMARK    5  A    between atoms: C_9  and  O_10
REMARK    6  A    between atoms: O_10  and  C_11
REMARK    7  A    between atoms: C_11  and  C_12
REMARK                            x       y       z     vdW  Elec       q    Type
REMARK                         _______ _______ _______ _____ _____    ______ ____
ROOT
ATOM      1  C   UNL     1      47.742   8.602  12.263  0.00  0.00    +0.000 A 
ATOM      2  C   UNL     1      48.304   9.884  12.202  0.00  0.00    +0.000 A 
ATOM      3  C   UNL     1      49.624  10.067  11.767  0.00  0.00    +0.000 A 
ATOM      4  C   UNL     1      50.407   8.971  11.373  0.00  0.00    +0.000 A 
ATOM      5  C   UNL     1      49.834   7.694  11.409  0.00  0.00    +0.000 A 
ATOM      6  C   UNL     1      48.514   7.513  11.842  0.00  0.00    +0.000 A 
ENDROOT
BRANCH   1   7
ATOM      7  C   UNL     1      46.351   8.388  12.804  0.00  0.00    +0.000 C 
BRANCH   7  10
ATOM      8  O   UNL     1      44.161   7.908  11.209  0.00  0.00    +0.000 OA
ATOM      9  C   UNL     1      44.728   6.921  11.681  0.00  0.00    +0.000 C 
ATOM     10  N   UNL     1      45.828   7.078  12.505  0.00  0.00    +0.000 N 
ATOM     11  H   UNL     1      46.259   6.260  12.915  0.00  0.00    +0.000 HD
BRANCH   9  12
ATOM     12  C   UNL     1      44.306   5.544  11.415  0.00  0.00    +0.000 A 
ATOM     13  S   UNL     1      43.250   4.736  12.532  0.00  0.00    +0.000 S 
ATOM     14  C   UNL     1      43.250   3.282  11.639  0.00  0.00    +0.000 A 
ATOM     15  C   UNL     1      44.021   3.394  10.516  0.00  0.00    +0.000 A 
ATOM     16  N   UNL     1      44.197   2.374   9.638  0.00  0.00    +0.000 NA
ATOM     17  C   UNL     1      45.011   2.733   8.603  0.00  0.00    +0.000 A 
ATOM     18  C   UNL     1      45.626   3.984   8.390  0.00  0.00    +0.000 A 
ATOM     19  C   UNL     1      45.453   5.050   9.288  0.00  0.00    +0.000 A 
ATOM     20  C   UNL     1      44.626   4.697  10.364  0.00  0.00    +0.000 A 
ENDBRANCH   9  12
ENDBRANCH   7  10
ENDBRANCH   1   7
BRANCH   4  21
ATOM     21  C   UNL     1      51.831   9.163  10.911  0.00  0.00    +0.000 C 
BRANCH  21  22
ATOM     22  O   UNL     1      52.280   7.973  10.269  0.00  0.00    +0.000 OA
BRANCH  22  23
ATOM     23  C   UNL     1      53.001   8.248   9.067  0.00  0.00    +0.000 C 
BRANCH  23  24
ATOM     24  C   UNL     1      53.447   6.959   8.418  0.00  0.00    +0.000 A 
ATOM     25  C   UNL     1      54.639   6.329   8.807  0.00  0.00    +0.000 A 
ATOM     26  C   UNL     1      55.025   5.114   8.240  0.00  0.00    +0.000 A 
ATOM     27  C   UNL     1      54.218   4.505   7.282  0.00  0.00    +0.000 A 
ATOM     28  C   UNL     1      53.026   5.115   6.889  0.00  0.00    +0.000 A 
ATOM     29  C   UNL     1      52.641   6.333   7.456  0.00  0.00    +0.000 A 
ENDBRANCH  23  24
ENDBRANCH  22  23
ENDBRANCH  21  22
ENDBRANCH   4  21
TORSDOF 7
ENDMDL
MODEL 9
REMARK VINA RESULT:    -6.224      6.957     10.722
REMARK INTER + INTRA:          -9.695
REMARK INTER:                  -9.217
REMARK INTRA:                  -0.478
REMARK UNBOUND:                -0.924
REMARK  Name = 
REMARK  7 active torsions:
REMARK  status: ('A' for Active; 'I' for Inactive)
REMARK    1  A    between atoms: C_2  and  C_20
REMARK    2  A    between atoms: N_3  and  C_4
REMARK    3  A    between atoms: C_4  and  C_5
REMARK    4  A    between atoms: C_8  and  C_9
REMARK    5  A    between atoms: C_9  and  O_10
REMARK    6  A    between atoms: O_10  and  C_11
REMARK    7  A    between atoms: C_11  and  C_12
REMARK                            x       y       z     vdW  Elec       q    Type
REMARK                         _______ _______ _______ _____ _____    ______ ____
ROOT
ATOM      1  C   UNL     1      43.078  10.277  11.063  0.00  0.00    +0.000 A 
ATOM      2  C   UNL     1      41.812   9.745  10.780  0.00  0.00    +0.000 A 
ATOM      3  C   UNL     1      40.655  10.513  10.968  0.00  0.00    +0.000 A 
ATOM      4  C   UNL     1      40.739  11.835  11.431  0.00  0.00    +0.000 A 
ATOM      5  C   UNL     1      42.006  12.373  11.687  0.00  0.00    +0.000 A 
ATOM      6  C   UNL     1      43.162  11.605  11.498  0.00  0.00    +0.000 A 
ENDROOT
BRANCH   1   7
ATOM      7  C   UNL     1      44.321   9.433  10.939  0.00  0.00    +0.000 C 
BRANCH   7  10
ATOM      8  O   UNL     1      45.791   7.500  12.233  0.00  0.00    +0.000 OA
ATOM      9  C   UNL     1      44.819   7.113  11.582  0.00  0.00    +0.000 C 
ATOM     10  N   UNL     1      44.037   8.020  10.890  0.00  0.00    +0.000 N 
ATOM     11  H   UNL     1      43.266   7.683  10.330  0.00  0.00    +0.000 HD
BRANCH   9  12
ATOM     12  C   UNL     1      44.417   5.707  11.491  0.00  0.00    +0.000 A 
ATOM     13  S   UNL     1      43.472   4.997  12.764  0.00  0.00    +0.000 S 
ATOM     14  C   UNL     1      43.447   3.458  12.027  0.00  0.00    +0.000 A 
ATOM     15  C   UNL     1      44.129   3.470  10.842  0.00  0.00    +0.000 A 
ATOM     16  N   UNL     1      44.268   2.368  10.061  0.00  0.00    +0.000 NA
ATOM     17  C   UNL     1      44.991   2.634   8.934  0.00  0.00    +0.000 A 
ATOM     18  C   UNL     1      45.551   3.870   8.548  0.00  0.00    +0.000 A 
ATOM     19  C   UNL     1      45.415   5.018   9.343  0.00  0.00    +0.000 A 
ATOM     20  C   UNL     1      44.682   4.762  10.511  0.00  0.00    +0.000 A 
ENDBRANCH   9  12
ENDBRANCH   7  10
ENDBRANCH   1   7
BRANCH   4  21
ATOM     21  C   UNL     1      39.495  12.663  11.642  0.00  0.00    +0.000 C 
BRANCH  21  22
ATOM     22  O   UNL     1      38.958  12.384  12.932  0.00  0.00    +0.000 OA
BRANCH  22  23
ATOM     23  C   UNL     1      39.777  12.904  13.980  0.00  0.00    +0.000 C 
BRANCH  23  24
ATOM     24  C   UNL     1      39.155  12.608  15.325  0.00  0.00    +0.000 A 
ATOM     25  C   UNL     1      39.951  12.259  16.427  0.00  0.00    +0.000 A 
ATOM     26  C   UNL     1      39.378  12.033  17.679  0.00  0.00    +0.000 A 
ATOM     27  C   UNL     1      38.003  12.164  17.850  0.00  0.00    +0.000 A 
ATOM     28  C   UNL     1      37.198  12.517  16.767  0.00  0.00    +0.000 A 
ATOM     29  C   UNL     1      37.772  12.741  15.512  0.00  0.00    +0.000 A 
ENDBRANCH  23  24
ENDBRANCH  22  23
ENDBRANCH  21  22
ENDBRANCH   4  21
TORSDOF 7
ENDMDL
