MODEL 1
REMARK VINA RESULT:    -9.083      0.000      0.000
REMARK INTER + INTRA:         -12.778
REMARK INTER:                 -11.738
REMARK INTRA:                  -1.040
REMARK UNBOUND:                -1.040
REMARK  Name = 
REMARK  6 active torsions:
REMARK  status: ('A' for Active; 'I' for Inactive)
REMARK    1  A    between atoms: C_1  and  C_2
REMARK    2  A    between atoms: C_5  and  C_6
REMARK    3  A    between atoms: C_6  and  N_7
REMARK    4  A    between atoms: C_8  and  C_10
REMARK    5  A    between atoms: C_21  and  C_22
REMARK    6  A    between atoms: C_22  and  N_23
REMARK                            x       y       z     vdW  Elec       q    Type
REMARK                         _______ _______ _______ _____ _____    ______ ____
ROOT
ATOM      1  C   UNL     1      44.702   8.018  11.367  0.00  0.00    +0.000 C 
ATOM      2  C   UNL     1      45.259   6.840  12.120  0.00  0.00    +0.000 A 
ATOM      3  C   UNL     1      46.408   7.030  12.904  0.00  0.00    +0.000 A 
ATOM      4  C   UNL     1      46.965   5.978  13.639  0.00  0.00    +0.000 A 
ATOM      5  C   UNL     1      46.378   4.711  13.618  0.00  0.00    +0.000 A 
ATOM      6  C   UNL     1      45.235   4.515  12.825  0.00  0.00    +0.000 A 
ATOM      7  C   UNL     1      44.676   5.556  12.052  0.00  0.00    +0.000 A 
ENDROOT
BRANCH   5   8
ATOM      8  C   UNL     1      46.939   3.596  14.466  0.00  0.00    +0.000 C 
BRANCH   8   9
ATOM      9  N   UNL     1      47.733   4.097  15.563  0.00  0.00    +0.000 N 
ATOM     10  C   UNL     1      47.424   3.844  16.874  0.00  0.00    +0.000 C 
ATOM     11  O   UNL     1      46.461   3.157  17.199  0.00  0.00    +0.000 OA
ATOM     12  H   UNL     1      48.462   4.764  15.332  0.00  0.00    +0.000 HD
BRANCH  10  13
ATOM     13  C   UNL     1      48.339   4.390  17.884  0.00  0.00    +0.000 A 
ATOM     14  C   UNL     1      47.899   5.407  18.722  0.00  0.00    +0.000 A 
ATOM     15  S   UNL     1      49.057   5.903  19.868  0.00  0.00    +0.000 S 
ATOM     16  C   UNL     1      50.210   4.814  19.252  0.00  0.00    +0.000 A 
ATOM     17  N   UNL     1      51.461   4.750  19.783  0.00  0.00    +0.000 NA
ATOM     18  C   UNL     1      52.248   3.913  19.193  0.00  0.00    +0.000 A 
ATOM     19  N   UNL     1      51.894   3.127  18.127  0.00  0.00    +0.000 N 
ATOM     20  C   UNL     1      50.627   3.120  17.591  0.00  0.00    +0.000 A 
ATOM     21  O   UNL     1      50.319   2.345  16.690  0.00  0.00    +0.000 OA
ATOM     22  C   UNL     1      49.710   4.067  18.199  0.00  0.00    +0.000 A 
ATOM     23  H   UNL     1      52.554   2.480  17.723  0.00  0.00    +0.000 HD
ENDBRANCH  10  13
ENDBRANCH   8   9
ENDBRANCH   5   8
BRANCH   7  24
ATOM     24  C   UNL     1      43.462   5.249  11.188  0.00  0.00    +0.000 C 
BRANCH  24  25
ATOM     25  N   UNL     1      43.848   5.159   9.797  0.00  0.00    +0.000 N 
ATOM     26  C   UNL     1      44.526   4.066   9.289  0.00  0.00    +0.000 A 
ATOM     27  C   UNL     1      44.344   2.760   9.751  0.00  0.00    +0.000 A 
ATOM     28  C   UNL     1      44.998   1.700   9.123  0.00  0.00    +0.000 A 
ATOM     29  C   UNL     1      45.809   1.962   8.033  0.00  0.00    +0.000 A 
ATOM     30  C   UNL     1      45.933   3.283   7.639  0.00  0.00    +0.000 A 
ATOM     31 CL   UNL     1      46.895   3.700   6.279  0.00  0.00    +0.000 Cl
ATOM     32  N   UNL     1      45.326   4.331   8.239  0.00  0.00    +0.000 NA
ATOM     33  H   UNL     1      44.240   6.004   9.392  0.00  0.00    +0.000 HD
ENDBRANCH  24  25
ENDBRANCH   7  24
TORSDOF 5
ENDMDL
MODEL 2
REMARK VINA RESULT:    -8.560      1.249      2.077
REMARK INTER + INTRA:         -12.102
REMARK INTER:                 -11.105
REMARK INTRA:                  -0.997
REMARK UNBOUND:                -1.040
REMARK  Name = 
REMARK  6 active torsions:
REMARK  status: ('A' for Active; 'I' for Inactive)
REMARK    1  A    between atoms: C_1  and  C_2
REMARK    2  A    between atoms: C_5  and  C_6
REMARK    3  A    between atoms: C_6  and  N_7
REMARK    4  A    between atoms: C_8  and  C_10
REMARK    5  A    between atoms: C_21  and  C_22
REMARK    6  A    between atoms: C_22  and  N_23
REMARK                            x       y       z     vdW  Elec       q    Type
REMARK                         _______ _______ _______ _____ _____    ______ ____
ROOT
ATOM      1  C   UNL     1      44.825   7.824  11.414  0.00  0.00    +0.000 C 
ATOM      2  C   UNL     1      45.386   6.632  12.139  0.00  0.00    +0.000 A 
ATOM      3  C   UNL     1      46.538   6.805  12.922  0.00  0.00    +0.000 A 
ATOM      4  C   UNL     1      47.099   5.739  13.632  0.00  0.00    +0.000 A 
ATOM      5  C   UNL     1      46.512   4.472  13.588  0.00  0.00    +0.000 A 
ATOM      6  C   UNL     1      45.366   4.292  12.796  0.00  0.00    +0.000 A 
ATOM      7  C   UNL     1      44.803   5.349  12.048  0.00  0.00    +0.000 A 
ENDROOT
BRANCH   5   8
ATOM      8  C   UNL     1      47.077   3.340  14.410  0.00  0.00    +0.000 C 
BRANCH   8   9
ATOM      9  N   UNL     1      47.793   3.817  15.570  0.00  0.00    +0.000 N 
ATOM     10  C   UNL     1      48.710   3.050  16.238  0.00  0.00    +0.000 C 
ATOM     11  O   UNL     1      48.997   1.911  15.882  0.00  0.00    +0.000 OA
ATOM     12  H   UNL     1      47.492   4.704  15.959  0.00  0.00    +0.000 HD
BRANCH  10  13
ATOM     13  C   UNL     1      49.385   3.675  17.382  0.00  0.00    +0.000 A 
ATOM     14  C   UNL     1      50.749   3.475  17.561  0.00  0.00    +0.000 A 
ATOM     15  S   UNL     1      51.393   4.299  18.904  0.00  0.00    +0.000 S 
ATOM     16  C   UNL     1      49.864   4.911  19.330  0.00  0.00    +0.000 A 
ATOM     17  N   UNL     1      49.710   5.693  20.432  0.00  0.00    +0.000 NA
ATOM     18  C   UNL     1      48.491   6.053  20.664  0.00  0.00    +0.000 A 
ATOM     19  N   UNL     1      47.415   5.709  19.886  0.00  0.00    +0.000 N 
ATOM     20  C   UNL     1      47.531   4.965  18.736  0.00  0.00    +0.000 A 
ATOM     21  O   UNL     1      46.560   4.744  18.018  0.00  0.00    +0.000 OA
ATOM     22  C   UNL     1      48.878   4.509  18.446  0.00  0.00    +0.000 A 
ATOM     23  H   UNL     1      46.489   6.039  20.115  0.00  0.00    +0.000 HD
ENDBRANCH  10  13
ENDBRANCH   8   9
ENDBRANCH   5   8
BRANCH   7  24
ATOM     24  C   UNL     1      43.585   5.060  11.183  0.00  0.00    +0.000 C 
BRANCH  24  25
ATOM     25  N   UNL     1      43.958   5.034   9.786  0.00  0.00    +0.000 N 
ATOM     26  C   UNL     1      44.651   3.975   9.227  0.00  0.00    +0.000 A 
ATOM     27  C   UNL     1      44.499   2.649   9.637  0.00  0.00    +0.000 A 
ATOM     28  C   UNL     1      45.166   1.628   8.959  0.00  0.00    +0.000 A 
ATOM     29  C   UNL     1      45.960   1.950   7.874  0.00  0.00    +0.000 A 
ATOM     30  C   UNL     1      46.055   3.288   7.533  0.00  0.00    +0.000 A 
ATOM     31 CL   UNL     1      46.996   3.778   6.182  0.00  0.00    +0.000 Cl
ATOM     32  N   UNL     1      45.436   4.298   8.182  0.00  0.00    +0.000 NA
ATOM     33  H   UNL     1      44.329   5.902   9.412  0.00  0.00    +0.000 HD
ENDBRANCH  24  25
ENDBRANCH   7  24
TORSDOF 5
ENDMDL
MODEL 3
REMARK VINA RESULT:    -8.534      1.687      2.033
REMARK INTER + INTRA:         -12.069
REMARK INTER:                 -11.122
REMARK INTRA:                  -0.947
REMARK UNBOUND:                -1.040
REMARK  Name = 
REMARK  6 active torsions:
REMARK  status: ('A' for Active; 'I' for Inactive)
REMARK    1  A    between atoms: C_1  and  C_2
REMARK    2  A    between atoms: C_5  and  C_6
REMARK    3  A    between atoms: C_6  and  N_7
REMARK    4  A    between atoms: C_8  and  C_10
REMARK    5  A    between atoms: C_21  and  C_22
REMARK    6  A    between atoms: C_22  and  N_23
REMARK                            x       y       z     vdW  Elec       q    Type
REMARK                         _______ _______ _______ _____ _____    ______ ____
ROOT
ATOM      1  C   UNL     1      44.232   8.289  11.112  0.00  0.00    +0.000 C 
ATOM      2  C   UNL     1      45.007   7.292  11.929  0.00  0.00    +0.000 A 
ATOM      3  C   UNL     1      46.131   7.739  12.642  0.00  0.00    +0.000 A 
ATOM      4  C   UNL     1      46.884   6.865  13.431  0.00  0.00    +0.000 A 
ATOM      5  C   UNL     1      46.523   5.520  13.539  0.00  0.00    +0.000 A 
ATOM      6  C   UNL     1      45.406   5.066  12.819  0.00  0.00    +0.000 A 
ATOM      7  C   UNL     1      44.651   5.927  11.992  0.00  0.00    +0.000 A 
ENDROOT
BRANCH   5   8
ATOM      8  C   UNL     1      47.294   4.593  14.447  0.00  0.00    +0.000 C 
BRANCH   8   9
ATOM      9  N   UNL     1      47.415   5.122  15.785  0.00  0.00    +0.000 N 
ATOM     10  C   UNL     1      48.529   5.795  16.213  0.00  0.00    +0.000 C 
ATOM     11  O   UNL     1      49.489   6.009  15.480  0.00  0.00    +0.000 OA
ATOM     12  H   UNL     1      46.694   4.859  16.447  0.00  0.00    +0.000 HD
BRANCH  10  13
ATOM     13  C   UNL     1      48.502   6.306  17.589  0.00  0.00    +0.000 A 
ATOM     14  C   UNL     1      48.503   7.679  17.807  0.00  0.00    +0.000 A 
ATOM     15  S   UNL     1      48.426   8.114  19.451  0.00  0.00    +0.000 S 
ATOM     16  C   UNL     1      48.444   6.484  19.939  0.00  0.00    +0.000 A 
ATOM     17  N   UNL     1      48.424   6.151  21.257  0.00  0.00    +0.000 NA
ATOM     18  C   UNL     1      48.485   4.882  21.488  0.00  0.00    +0.000 A 
ATOM     19  N   UNL     1      48.555   3.915  20.517  0.00  0.00    +0.000 N 
ATOM     20  C   UNL     1      48.525   4.202  19.173  0.00  0.00    +0.000 A 
ATOM     21  O   UNL     1      48.506   3.309  18.330  0.00  0.00    +0.000 OA
ATOM     22  C   UNL     1      48.487   5.618  18.859  0.00  0.00    +0.000 A 
ATOM     23  H   UNL     1      48.584   2.938  20.767  0.00  0.00    +0.000 HD
ENDBRANCH  10  13
ENDBRANCH   8   9
ENDBRANCH   5   8
BRANCH   7  24
ATOM     24  C   UNL     1      43.481   5.346  11.212  0.00  0.00    +0.000 C 
BRANCH  24  25
ATOM     25  N   UNL     1      43.828   5.210   9.815  0.00  0.00    +0.000 N 
ATOM     26  C   UNL     1      44.514   4.111   9.330  0.00  0.00    +0.000 A 
ATOM     27  C   UNL     1      44.373   2.822   9.846  0.00  0.00    +0.000 A 
ATOM     28  C   UNL     1      45.030   1.751   9.239  0.00  0.00    +0.000 A 
ATOM     29  C   UNL     1      45.804   1.987   8.117  0.00  0.00    +0.000 A 
ATOM     30  C   UNL     1      45.888   3.293   7.669  0.00  0.00    +0.000 A 
ATOM     31 CL   UNL     1      46.802   3.676   6.267  0.00  0.00    +0.000 Cl
ATOM     32  N   UNL     1      45.278   4.351   8.247  0.00  0.00    +0.000 NA
ATOM     33  H   UNL     1      44.190   6.046   9.367  0.00  0.00    +0.000 HD
ENDBRANCH  24  25
ENDBRANCH   7  24
TORSDOF 5
ENDMDL
MODEL 4
REMARK VINA RESULT:    -8.284      2.215      3.135
REMARK INTER + INTRA:         -11.746
REMARK INTER:                 -10.538
REMARK INTRA:                  -1.208
REMARK UNBOUND:                -1.040
REMARK  Name = 
REMARK  6 active torsions:
REMARK  status: ('A' for Active; 'I' for Inactive)
REMARK    1  A    between atoms: C_1  and  C_2
REMARK    2  A    between atoms: C_5  and  C_6
REMARK    3  A    between atoms: C_6  and  N_7
REMARK    4  A    between atoms: C_8  and  C_10
REMARK    5  A    between atoms: C_21  and  C_22
REMARK    6  A    between atoms: C_22  and  N_23
REMARK                            x       y       z     vdW  Elec       q    Type
REMARK                         _______ _______ _______ _____ _____    ______ ____
ROOT
ATOM      1  C   UNL     1      44.154   9.107  11.402  0.00  0.00    +0.000 C 
ATOM      2  C   UNL     1      45.556   8.692  11.756  0.00  0.00    +0.000 A 
ATOM      3  C   UNL     1      46.498   9.692  12.045  0.00  0.00    +0.000 A 
ATOM      4  C   UNL     1      47.813   9.370  12.394  0.00  0.00    +0.000 A 
ATOM      5  C   UNL     1      48.217   8.036  12.477  0.00  0.00    +0.000 A 
ATOM      6  C   UNL     1      47.280   7.032  12.178  0.00  0.00    +0.000 A 
ATOM      7  C   UNL     1      45.956   7.338  11.793  0.00  0.00    +0.000 A 
ENDROOT
BRANCH   5   8
ATOM      8  C   UNL     1      49.616   7.688  12.923  0.00  0.00    +0.000 C 
BRANCH   8   9
ATOM      9  N   UNL     1      49.617   6.835  14.089  0.00  0.00    +0.000 N 
ATOM     10  C   UNL     1      49.551   7.331  15.364  0.00  0.00    +0.000 C 
ATOM     11  O   UNL     1      49.467   8.533  15.598  0.00  0.00    +0.000 OA
ATOM     12  H   UNL     1      49.805   5.851  13.935  0.00  0.00    +0.000 HD
BRANCH  10  13
ATOM     13  C   UNL     1      49.528   6.347  16.454  0.00  0.00    +0.000 A 
ATOM     14  C   UNL     1      50.445   6.458  17.492  0.00  0.00    +0.000 A 
ATOM     15  S   UNL     1      50.263   5.271  18.699  0.00  0.00    +0.000 S 
ATOM     16  C   UNL     1      48.986   4.530  17.853  0.00  0.00    +0.000 A 
ATOM     17  N   UNL     1      48.384   3.412  18.341  0.00  0.00    +0.000 NA
ATOM     18  C   UNL     1      47.461   2.928  17.579  0.00  0.00    +0.000 A 
ATOM     19  N   UNL     1      47.079   3.468  16.377  0.00  0.00    +0.000 N 
ATOM     20  C   UNL     1      47.624   4.624  15.870  0.00  0.00    +0.000 A 
ATOM     21  O   UNL     1      47.203   5.125  14.831  0.00  0.00    +0.000 OA
ATOM     22  C   UNL     1      48.689   5.193  16.675  0.00  0.00    +0.000 A 
ATOM     23  H   UNL     1      46.337   3.047  15.837  0.00  0.00    +0.000 HD
ENDBRANCH  10  13
ENDBRANCH   8   9
ENDBRANCH   5   8
BRANCH   7  24
ATOM     24  C   UNL     1      45.017   6.194  11.444  0.00  0.00    +0.000 C 
BRANCH  24  25
ATOM     25  N   UNL     1      45.058   5.927  10.024  0.00  0.00    +0.000 N 
ATOM     26  C   UNL     1      45.247   4.653   9.518  0.00  0.00    +0.000 A 
ATOM     27  C   UNL     1      44.775   3.496  10.141  0.00  0.00    +0.000 A 
ATOM     28  C   UNL     1      44.927   2.257   9.518  0.00  0.00    +0.000 A 
ATOM     29  C   UNL     1      45.533   2.199   8.276  0.00  0.00    +0.000 A 
ATOM     30  C   UNL     1      45.970   3.393   7.728  0.00  0.00    +0.000 A 
ATOM     31 CL   UNL     1      46.709   3.422   6.178  0.00  0.00    +0.000 Cl
ATOM     32  N   UNL     1      45.853   4.604   8.317  0.00  0.00    +0.000 NA
ATOM     33  H   UNL     1      45.596   6.584   9.467  0.00  0.00    +0.000 HD
ENDBRANCH  24  25
ENDBRANCH   7  24
TORSDOF 5
ENDMDL
MODEL 5
REMARK VINA RESULT:    -8.019      2.785      3.447
REMARK INTER + INTRA:         -11.403
REMARK INTER:                 -10.300
REMARK INTRA:                  -1.103
REMARK UNBOUND:                -1.040
REMARK  Name = 
REMARK  6 active torsions:
REMARK  status: ('A' for Active; 'I' for Inactive)
REMARK    1  A    between atoms: C_1  and  C_2
REMARK    2  A    between atoms: C_5  and  C_6
REMARK    3  A    between atoms: C_6  and  N_7
REMARK    4  A    between atoms: C_8  and  C_10
REMARK    5  A    between atoms: C_21  and  C_22
REMARK    6  A    between atoms: C_22  and  N_23
REMARK                            x       y       z     vdW  Elec       q    Type
REMARK                         _______ _______ _______ _____ _____    ______ ____
ROOT
ATOM      1  C   UNL     1      43.959   2.883  12.547  0.00  0.00    +0.000 C 
ATOM      2  C   UNL     1      44.871   4.059  12.327  0.00  0.00    +0.000 A 
ATOM      3  C   UNL     1      45.908   4.283  13.247  0.00  0.00    +0.000 A 
ATOM      4  C   UNL     1      46.798   5.350  13.090  0.00  0.00    +0.000 A 
ATOM      5  C   UNL     1      46.681   6.215  11.999  0.00  0.00    +0.000 A 
ATOM      6  C   UNL     1      45.638   6.000  11.083  0.00  0.00    +0.000 A 
ATOM      7  C   UNL     1      44.711   4.947  11.241  0.00  0.00    +0.000 A 
ENDROOT
BRANCH   5   8
ATOM      8  C   UNL     1      47.684   7.323  11.792  0.00  0.00    +0.000 C 
BRANCH   8   9
ATOM      9  N   UNL     1      48.831   7.184  12.659  0.00  0.00    +0.000 N 
ATOM     10  C   UNL     1      48.969   7.899  13.820  0.00  0.00    +0.000 C 
ATOM     11  O   UNL     1      48.115   8.690  14.208  0.00  0.00    +0.000 OA
ATOM     12  H   UNL     1      49.605   6.631  12.308  0.00  0.00    +0.000 HD
BRANCH  10  13
ATOM     13  C   UNL     1      50.171   7.633  14.620  0.00  0.00    +0.000 A 
ATOM     14  C   UNL     1      51.375   8.223  14.256  0.00  0.00    +0.000 A 
ATOM     15  S   UNL     1      52.665   7.854  15.305  0.00  0.00    +0.000 S 
ATOM     16  C   UNL     1      51.675   6.847  16.254  0.00  0.00    +0.000 A 
ATOM     17  N   UNL     1      52.184   6.183  17.327  0.00  0.00    +0.000 NA
ATOM     18  C   UNL     1      51.335   5.421  17.932  0.00  0.00    +0.000 A 
ATOM     19  N   UNL     1      50.022   5.271  17.567  0.00  0.00    +0.000 N 
ATOM     20  C   UNL     1      49.453   5.960  16.523  0.00  0.00    +0.000 A 
ATOM     21  O   UNL     1      48.254   5.866  16.273  0.00  0.00    +0.000 OA
ATOM     22  C   UNL     1      50.372   6.810  15.789  0.00  0.00    +0.000 A 
ATOM     23  H   UNL     1      49.407   4.670  18.095  0.00  0.00    +0.000 HD
ENDBRANCH  10  13
ENDBRANCH   8   9
ENDBRANCH   5   8
BRANCH   7  24
ATOM     24  C   UNL     1      43.585   4.810  10.227  0.00  0.00    +0.000 C 
BRANCH  24  25
ATOM     25  N   UNL     1      44.126   4.664   8.894  0.00  0.00    +0.000 N 
ATOM     26  C   UNL     1      44.931   3.596   8.539  0.00  0.00    +0.000 A 
ATOM     27  C   UNL     1      44.791   2.312   9.070  0.00  0.00    +0.000 A 
ATOM     28  C   UNL     1      45.583   1.268   8.589  0.00  0.00    +0.000 A 
ATOM     29  C   UNL     1      46.488   1.524   7.575  0.00  0.00    +0.000 A 
ATOM     30  C   UNL     1      46.562   2.823   7.104  0.00  0.00    +0.000 A 
ATOM     31 CL   UNL     1      47.637   3.227   5.828  0.00  0.00    +0.000 Cl
ATOM     32  N   UNL     1      45.822   3.856   7.563  0.00  0.00    +0.000 NA
ATOM     33  H   UNL     1      44.501   5.509   8.474  0.00  0.00    +0.000 HD
ENDBRANCH  24  25
ENDBRANCH   7  24
TORSDOF 5
ENDMDL
MODEL 6
REMARK VINA RESULT:    -7.933      3.389      8.272
REMARK INTER + INTRA:         -11.292
REMARK INTER:                  -9.833
REMARK INTRA:                  -1.460
REMARK UNBOUND:                -1.040
REMARK  Name = 
REMARK  6 active torsions:
REMARK  status: ('A' for Active; 'I' for Inactive)
REMARK    1  A    between atoms: C_1  and  C_2
REMARK    2  A    between atoms: C_5  and  C_6
REMARK    3  A    between atoms: C_6  and  N_7
REMARK    4  A    between atoms: C_8  and  C_10
REMARK    5  A    between atoms: C_21  and  C_22
REMARK    6  A    between atoms: C_22  and  N_23
REMARK                            x       y       z     vdW  Elec       q    Type
REMARK                         _______ _______ _______ _____ _____    ______ ____
ROOT
ATOM      1  C   UNL     1      53.000   4.184  17.979  0.00  0.00    +0.000 C 
ATOM      2  C   UNL     1      51.543   4.040  17.634  0.00  0.00    +0.000 A 
ATOM      3  C   UNL     1      51.001   2.748  17.540  0.00  0.00    +0.000 A 
ATOM      4  C   UNL     1      49.651   2.548  17.237  0.00  0.00    +0.000 A 
ATOM      5  C   UNL     1      48.803   3.639  17.033  0.00  0.00    +0.000 A 
ATOM      6  C   UNL     1      49.343   4.933  17.116  0.00  0.00    +0.000 A 
ATOM      7  C   UNL     1      50.711   5.154  17.390  0.00  0.00    +0.000 A 
ENDROOT
BRANCH   5   8
ATOM      8  C   UNL     1      47.331   3.424  16.776  0.00  0.00    +0.000 C 
BRANCH   8   9
ATOM      9  N   UNL     1      46.807   4.361  15.811  0.00  0.00    +0.000 N 
ATOM     10  C   UNL     1      46.818   4.115  14.463  0.00  0.00    +0.000 C 
ATOM     11  O   UNL     1      47.258   3.071  13.990  0.00  0.00    +0.000 OA
ATOM     12  H   UNL     1      46.549   5.278  16.157  0.00  0.00    +0.000 HD
BRANCH  10  13
ATOM     13  C   UNL     1      46.224   5.142  13.599  0.00  0.00    +0.000 A 
ATOM     14  C   UNL     1      46.901   6.339  13.399  0.00  0.00    +0.000 A 
ATOM     15  S   UNL     1      46.105   7.409  12.340  0.00  0.00    +0.000 S 
ATOM     16  C   UNL     1      44.798   6.337  12.152  0.00  0.00    +0.000 A 
ATOM     17  N   UNL     1      43.733   6.667  11.373  0.00  0.00    +0.000 NA
ATOM     18  C   UNL     1      42.793   5.782  11.353  0.00  0.00    +0.000 A 
ATOM     19  N   UNL     1      42.826   4.592  12.035  0.00  0.00    +0.000 N 
ATOM     20  C   UNL     1      43.903   4.195  12.792  0.00  0.00    +0.000 A 
ATOM     21  O   UNL     1      43.936   3.088  13.323  0.00  0.00    +0.000 OA
ATOM     22  C   UNL     1      44.977   5.168  12.872  0.00  0.00    +0.000 A 
ATOM     23  H   UNL     1      42.063   3.936  11.963  0.00  0.00    +0.000 HD
ENDBRANCH  10  13
ENDBRANCH   8   9
ENDBRANCH   5   8
BRANCH   7  24
ATOM     24  C   UNL     1      51.224   6.586  17.420  0.00  0.00    +0.000 C 
BRANCH  24  25
ATOM     25  N   UNL     1      51.425   7.074  16.074  0.00  0.00    +0.000 N 
ATOM     26  C   UNL     1      50.503   7.886  15.439  0.00  0.00    +0.000 A 
ATOM     27  C   UNL     1      49.714   8.827  16.105  0.00  0.00    +0.000 A 
ATOM     28  C   UNL     1      48.874   9.673  15.378  0.00  0.00    +0.000 A 
ATOM     29  C   UNL     1      48.852   9.574  13.999  0.00  0.00    +0.000 A 
ATOM     30  C   UNL     1      49.666   8.617  13.419  0.00  0.00    +0.000 A 
ATOM     31 CL   UNL     1      49.725   8.442  11.712  0.00  0.00    +0.000 Cl
ATOM     32  N   UNL     1      50.474   7.773  14.098  0.00  0.00    +0.000 NA
ATOM     33  H   UNL     1      51.777   6.395  15.406  0.00  0.00    +0.000 HD
ENDBRANCH  24  25
ENDBRANCH   7  24
TORSDOF 5
ENDMDL
MODEL 7
REMARK VINA RESULT:    -7.637      4.249      8.796
REMARK INTER + INTRA:         -10.910
REMARK INTER:                  -9.592
REMARK INTRA:                  -1.318
REMARK UNBOUND:                -1.040
REMARK  Name = 
REMARK  6 active torsions:
REMARK  status: ('A' for Active; 'I' for Inactive)
REMARK    1  A    between atoms: C_1  and  C_2
REMARK    2  A    between atoms: C_5  and  C_6
REMARK    3  A    between atoms: C_6  and  N_7
REMARK    4  A    between atoms: C_8  and  C_10
REMARK    5  A    between atoms: C_21  and  C_22
REMARK    6  A    between atoms: C_22  and  N_23
REMARK                            x       y       z     vdW  Elec       q    Type
REMARK                         _______ _______ _______ _____ _____    ______ ____
ROOT
ATOM      1  C   UNL     1      51.789   8.076  14.435  0.00  0.00    +0.000 C 
ATOM      2  C   UNL     1      50.402   8.140  13.856  0.00  0.00    +0.000 A 
ATOM      3  C   UNL     1      50.251   8.026  12.464  0.00  0.00    +0.000 A 
ATOM      4  C   UNL     1      48.988   8.063  11.867  0.00  0.00    +0.000 A 
ATOM      5  C   UNL     1      47.839   8.201  12.649  0.00  0.00    +0.000 A 
ATOM      6  C   UNL     1      47.986   8.327  14.040  0.00  0.00    +0.000 A 
ATOM      7  C   UNL     1      49.256   8.323  14.659  0.00  0.00    +0.000 A 
ENDROOT
BRANCH   5   8
ATOM      8  C   UNL     1      46.472   8.170  12.010  0.00  0.00    +0.000 C 
BRANCH   8   9
ATOM      9  N   UNL     1      46.016   6.820  11.772  0.00  0.00    +0.000 N 
ATOM     10  C   UNL     1      44.722   6.529  11.428  0.00  0.00    +0.000 C 
ATOM     11  O   UNL     1      43.870   7.400  11.281  0.00  0.00    +0.000 OA
ATOM     12  H   UNL     1      46.662   6.073  12.002  0.00  0.00    +0.000 HD
BRANCH  10  13
ATOM     13  C   UNL     1      44.407   5.116  11.185  0.00  0.00    +0.000 A 
ATOM     14  C   UNL     1      43.601   4.433  12.087  0.00  0.00    +0.000 A 
ATOM     15  S   UNL     1      43.291   2.817  11.645  0.00  0.00    +0.000 S 
ATOM     16  C   UNL     1      44.267   2.953  10.258  0.00  0.00    +0.000 A 
ATOM     17  N   UNL     1      44.453   1.890   9.432  0.00  0.00    +0.000 NA
ATOM     18  C   UNL     1      45.251   2.118   8.442  0.00  0.00    +0.000 A 
ATOM     19  N   UNL     1      45.871   3.317   8.200  0.00  0.00    +0.000 N 
ATOM     20  C   UNL     1      45.672   4.432   8.978  0.00  0.00    +0.000 A 
ATOM     21  O   UNL     1      46.177   5.513   8.687  0.00  0.00    +0.000 OA
ATOM     22  C   UNL     1      44.806   4.221  10.123  0.00  0.00    +0.000 A 
ATOM     23  H   UNL     1      46.471   3.432   7.396  0.00  0.00    +0.000 HD
ENDBRANCH  10  13
ENDBRANCH   8   9
ENDBRANCH   5   8
BRANCH   7  24
ATOM     24  C   UNL     1      49.330   8.508  16.167  0.00  0.00    +0.000 C 
BRANCH  24  25
ATOM     25  N   UNL     1      48.565   7.479  16.836  0.00  0.00    +0.000 N 
ATOM     26  C   UNL     1      49.053   6.198  17.019  0.00  0.00    +0.000 A 
ATOM     27  C   UNL     1      50.403   5.908  17.228  0.00  0.00    +0.000 A 
ATOM     28  C   UNL     1      50.802   4.598  17.498  0.00  0.00    +0.000 A 
ATOM     29  C   UNL     1      49.842   3.605  17.569  0.00  0.00    +0.000 A 
ATOM     30  C   UNL     1      48.527   3.978  17.351  0.00  0.00    +0.000 A 
ATOM     31 CL   UNL     1      47.265   2.818  17.449  0.00  0.00    +0.000 Cl
ATOM     32  N   UNL     1      48.115   5.234  17.071  0.00  0.00    +0.000 NA
ATOM     33  H   UNL     1      47.584   7.422  16.579  0.00  0.00    +0.000 HD
ENDBRANCH  24  25
ENDBRANCH   7  24
TORSDOF 5
ENDMDL
MODEL 8
REMARK VINA RESULT:    -7.599      5.130      8.169
REMARK INTER + INTRA:         -10.860
REMARK INTER:                  -9.409
REMARK INTRA:                  -1.451
REMARK UNBOUND:                -1.040
REMARK  Name = 
REMARK  6 active torsions:
REMARK  status: ('A' for Active; 'I' for Inactive)
REMARK    1  A    between atoms: C_1  and  C_2
REMARK    2  A    between atoms: C_5  and  C_6
REMARK    3  A    between atoms: C_6  and  N_7
REMARK    4  A    between atoms: C_8  and  C_10
REMARK    5  A    between atoms: C_21  and  C_22
REMARK    6  A    between atoms: C_22  and  N_23
REMARK                            x       y       z     vdW  Elec       q    Type
REMARK                         _______ _______ _______ _____ _____    ______ ____
ROOT
ATOM      1  C   UNL     1      49.027  11.449  10.439  0.00  0.00    +0.000 C 
ATOM      2  C   UNL     1      48.530  10.287  11.256  0.00  0.00    +0.000 A 
ATOM      3  C   UNL     1      49.392   9.200  11.469  0.00  0.00    +0.000 A 
ATOM      4  C   UNL     1      48.993   8.097  12.231  0.00  0.00    +0.000 A 
ATOM      5  C   UNL     1      47.724   8.061  12.813  0.00  0.00    +0.000 A 
ATOM      6  C   UNL     1      46.855   9.143  12.594  0.00  0.00    +0.000 A 
ATOM      7  C   UNL     1      47.228  10.250  11.801  0.00  0.00    +0.000 A 
ENDROOT
BRANCH   5   8
ATOM      8  C   UNL     1      47.321   6.904  13.694  0.00  0.00    +0.000 C 
BRANCH   8   9
ATOM      9  N   UNL     1      46.683   5.848  12.943  0.00  0.00    +0.000 N 
ATOM     10  C   UNL     1      45.322   5.745  12.827  0.00  0.00    +0.000 C 
ATOM     11  O   UNL     1      44.557   6.555  13.340  0.00  0.00    +0.000 OA
ATOM     12  H   UNL     1      47.280   5.099  12.610  0.00  0.00    +0.000 HD
BRANCH  10  13
ATOM     13  C   UNL     1      44.812   4.640  12.007  0.00  0.00    +0.000 A 
ATOM     14  C   UNL     1      44.048   3.644  12.603  0.00  0.00    +0.000 A 
ATOM     15  S   UNL     1      43.494   2.458  11.514  0.00  0.00    +0.000 S 
ATOM     16  C   UNL     1      44.300   3.200  10.212  0.00  0.00    +0.000 A 
ATOM     17  N   UNL     1      44.253   2.659   8.966  0.00  0.00    +0.000 NA
ATOM     18  C   UNL     1      44.944   3.298   8.081  0.00  0.00    +0.000 A 
ATOM     19  N   UNL     1      45.668   4.436   8.330  0.00  0.00    +0.000 N 
ATOM     20  C   UNL     1      45.702   5.046   9.562  0.00  0.00    +0.000 A 
ATOM     21  O   UNL     1      46.293   6.109   9.732  0.00  0.00    +0.000 OA
ATOM     22  C   UNL     1      44.966   4.350  10.600  0.00  0.00    +0.000 A 
ATOM     23  H   UNL     1      46.174   4.896   7.588  0.00  0.00    +0.000 HD
ENDBRANCH  10  13
ENDBRANCH   8   9
ENDBRANCH   5   8
BRANCH   7  24
ATOM     24  C   UNL     1      46.211  11.360  11.578  0.00  0.00    +0.000 C 
BRANCH  24  25
ATOM     25  N   UNL     1      44.925  10.977  12.116  0.00  0.00    +0.000 N 
ATOM     26  C   UNL     1      43.768  11.018  11.360  0.00  0.00    +0.000 A 
ATOM     27  C   UNL     1      43.732  10.763   9.988  0.00  0.00    +0.000 A 
ATOM     28  C   UNL     1      42.509  10.733   9.315  0.00  0.00    +0.000 A 
ATOM     29  C   UNL     1      41.344  10.941  10.030  0.00  0.00    +0.000 A 
ATOM     30  C   UNL     1      41.468  11.184  11.387  0.00  0.00    +0.000 A 
ATOM     31 CL   UNL     1      40.074  11.426  12.360  0.00  0.00    +0.000 Cl
ATOM     32  N   UNL     1      42.639  11.238  12.060  0.00  0.00    +0.000 NA
ATOM     33  H   UNL     1      44.718  11.319  13.050  0.00  0.00    +0.000 HD
ENDBRANCH  24  25
ENDBRANCH   7  24
TORSDOF 5
ENDMDL
MODEL 9
REMARK VINA RESULT:    -7.523      3.963      8.324
REMARK INTER + INTRA:         -10.763
REMARK INTER:                  -9.532
REMARK INTRA:                  -1.231
REMARK UNBOUND:                -1.040
REMARK  Name = 
REMARK  6 active torsions:
REMARK  status: ('A' for Active; 'I' for Inactive)
REMARK    1  A    between atoms: C_1  and  C_2
REMARK    2  A    between atoms: C_5  and  C_6
REMARK    3  A    between atoms: C_6  and  N_7
REMARK    4  A    between atoms: C_8  and  C_10
REMARK    5  A    between atoms: C_21  and  C_22
REMARK    6  A    between atoms: C_22  and  N_23
REMARK                            x       y       z     vdW  Elec       q    Type
REMARK                         _______ _______ _______ _____ _____    ______ ____
ROOT
ATOM      1  C   UNL     1      47.332   8.805  21.500  0.00  0.00    +0.000 C 
ATOM      2  C   UNL     1      47.603   8.918  20.025  0.00  0.00    +0.000 A 
ATOM      3  C   UNL     1      47.275  10.119  19.374  0.00  0.00    +0.000 A 
ATOM      4  C   UNL     1      47.515  10.291  18.008  0.00  0.00    +0.000 A 
ATOM      5  C   UNL     1      48.103   9.270  17.258  0.00  0.00    +0.000 A 
ATOM      6  C   UNL     1      48.422   8.064  17.903  0.00  0.00    +0.000 A 
ATOM      7  C   UNL     1      48.159   7.859  19.276  0.00  0.00    +0.000 A 
ENDROOT
BRANCH   5   8
ATOM      8  C   UNL     1      48.427   9.483  15.799  0.00  0.00    +0.000 C 
BRANCH   8   9
ATOM      9  N   UNL     1      47.478   8.824  14.932  0.00  0.00    +0.000 N 
ATOM     10  C   UNL     1      47.854   7.895  13.998  0.00  0.00    +0.000 C 
ATOM     11  O   UNL     1      49.022   7.549  13.850  0.00  0.00    +0.000 OA
ATOM     12  H   UNL     1      46.527   9.174  14.946  0.00  0.00    +0.000 HD
BRANCH  10  13
ATOM     13  C   UNL     1      46.780   7.283  13.207  0.00  0.00    +0.000 A 
ATOM     14  C   UNL     1      45.928   8.095  12.470  0.00  0.00    +0.000 A 
ATOM     15  S   UNL     1      44.764   7.235  11.573  0.00  0.00    +0.000 S 
ATOM     16  C   UNL     1      45.319   5.746  12.179  0.00  0.00    +0.000 A 
ATOM     17  N   UNL     1      44.718   4.580  11.818  0.00  0.00    +0.000 NA
ATOM     18  C   UNL     1      45.211   3.529  12.385  0.00  0.00    +0.000 A 
ATOM     19  N   UNL     1      46.257   3.539  13.272  0.00  0.00    +0.000 N 
ATOM     20  C   UNL     1      46.927   4.686  13.625  0.00  0.00    +0.000 A 
ATOM     21  O   UNL     1      47.911   4.651  14.358  0.00  0.00    +0.000 OA
ATOM     22  C   UNL     1      46.393   5.902  13.038  0.00  0.00    +0.000 A 
ATOM     23  H   UNL     1      46.604   2.678  13.666  0.00  0.00    +0.000 HD
ENDBRANCH  10  13
ENDBRANCH   8   9
ENDBRANCH   5   8
BRANCH   7  24
ATOM     24  C   UNL     1      48.496   6.508  19.887  0.00  0.00    +0.000 C 
BRANCH  24  25
ATOM     25  N   UNL     1      49.394   5.776  19.022  0.00  0.00    +0.000 N 
ATOM     26  C   UNL     1      49.011   4.615  18.375  0.00  0.00    +0.000 A 
ATOM     27  C   UNL     1      47.714   4.378  17.916  0.00  0.00    +0.000 A 
ATOM     28  C   UNL     1      47.431   3.220  17.189  0.00  0.00    +0.000 A 
ATOM     29  C   UNL     1      48.454   2.330  16.920  0.00  0.00    +0.000 A 
ATOM     30  C   UNL     1      49.711   2.642  17.409  0.00  0.00    +0.000 A 
ATOM     31 CL   UNL     1      51.047   1.610  17.098  0.00  0.00    +0.000 Cl
ATOM     32  N   UNL     1      50.009   3.745  18.130  0.00  0.00    +0.000 NA
ATOM     33  H   UNL     1      50.343   5.661  19.367  0.00  0.00    +0.000 HD
ENDBRANCH  24  25
ENDBRANCH   7  24
TORSDOF 5
ENDMDL
