MODEL 1
REMARK VINA RESULT:    -8.062      0.000      0.000
REMARK INTER + INTRA:         -12.439
REMARK INTER:                 -11.360
REMARK INTRA:                  -1.079
REMARK UNBOUND:                -1.079
REMARK  Name = 
REMARK  7 active torsions:
REMARK  status: ('A' for Active; 'I' for Inactive)
REMARK    1  A    between atoms: C_2  and  C_20
REMARK    2  A    between atoms: N_3  and  C_4
REMARK    3  A    between atoms: C_4  and  C_5
REMARK    4  A    between atoms: C_8  and  C_9
REMARK    5  A    between atoms: C_9  and  C_10
REMARK    6  A    between atoms: C_10  and  N_11
REMARK    7  A    between atoms: N_11  and  C_12
REMARK                            x       y       z     vdW  Elec       q    Type
REMARK                         _______ _______ _______ _____ _____    ______ ____
ROOT
ATOM      1  C   UNL     1      47.398   8.107  13.534  0.00  0.00    +0.000 C 
ENDROOT
BRANCH   1   2
ATOM      2  C   UNL     1      46.474   7.320  12.646  0.00  0.00    +0.000 A 
ATOM      3  C   UNL     1      46.862   6.059  12.184  0.00  0.00    +0.000 A 
ATOM      4  C   UNL     1      46.000   5.295  11.399  0.00  0.00    +0.000 A 
ATOM      5  C   UNL     1      44.727   5.769  11.060  0.00  0.00    +0.000 A 
ATOM      6  C   UNL     1      44.367   7.062  11.469  0.00  0.00    +0.000 A 
ATOM      7  C   UNL     1      45.231   7.831  12.253  0.00  0.00    +0.000 A 
BRANCH   5   8
ATOM      8  C   UNL     1      43.758   4.957  10.229  0.00  0.00    +0.000 C 
BRANCH   8   9
ATOM      9  C   UNL     1      44.335   3.763   9.443  0.00  0.00    +0.000 C 
BRANCH   9  10
ATOM     10  N   UNL     1      45.093   4.176   8.257  0.00  0.00    +0.000 NA
ATOM     11  H   UNL     1      45.811   4.851   8.514  0.00  0.00    +0.000 HD
BRANCH  10  12
ATOM     12  C   UNL     1      45.674   3.053   7.510  0.00  0.00    +0.000 C 
ATOM     13  C   UNL     1      46.066   1.869   8.401  0.00  0.00    +0.000 C 
ATOM     14  C   UNL     1      46.788   0.805   7.585  0.00  0.00    +0.000 C 
ATOM     15  O   UNL     1      47.932   1.355   6.938  0.00  0.00    +0.000 OA
ATOM     16  C   UNL     1      47.581   2.387   6.016  0.00  0.00    +0.000 C 
ATOM     17  C   UNL     1      46.905   3.547   6.736  0.00  0.00    +0.000 C 
ENDBRANCH  10  12
ENDBRANCH   9  10
ENDBRANCH   8   9
ENDBRANCH   5   8
ENDBRANCH   1   2
BRANCH   1  20
ATOM     18  O   UNL     1      49.943   7.098  14.238  0.00  0.00    +0.000 OA
ATOM     19  C   UNL     1      49.002   6.952  15.014  0.00  0.00    +0.000 C 
ATOM     20  N   UNL     1      47.731   7.370  14.724  0.00  0.00    +0.000 N 
ATOM     21  H   UNL     1      47.040   7.403  15.465  0.00  0.00    +0.000 HD
BRANCH  19  22
ATOM     22  C   UNL     1      49.170   6.256  16.296  0.00  0.00    +0.000 A 
ATOM     23  C   UNL     1      50.024   6.776  17.258  0.00  0.00    +0.000 A 
ATOM     24  S   UNL     1      50.120   5.828  18.673  0.00  0.00    +0.000 S 
ATOM     25  C   UNL     1      48.988   4.712  18.067  0.00  0.00    +0.000 A 
ATOM     26  N   UNL     1      48.590   3.645  18.813  0.00  0.00    +0.000 NA
ATOM     27  C   UNL     1      47.700   2.901  18.249  0.00  0.00    +0.000 A 
ATOM     28  N   UNL     1      47.179   3.116  16.999  0.00  0.00    +0.000 N 
ATOM     29  C   UNL     1      47.609   4.135  16.180  0.00  0.00    +0.000 A 
ATOM     30  O   UNL     1      47.225   4.212  15.018  0.00  0.00    +0.000 OA
ATOM     31  C   UNL     1      48.569   5.037  16.790  0.00  0.00    +0.000 A 
ATOM     32  H   UNL     1      46.509   2.479  16.598  0.00  0.00    +0.000 HD
ENDBRANCH  19  22
ENDBRANCH   1  20
TORSDOF 7
ENDMDL
MODEL 2
REMARK VINA RESULT:    -7.897      1.471      1.840
REMARK INTER + INTRA:         -12.208
REMARK INTER:                 -11.290
REMARK INTRA:                  -0.918
REMARK UNBOUND:                -1.079
REMARK  Name = 
REMARK  7 active torsions:
REMARK  status: ('A' for Active; 'I' for Inactive)
REMARK    1  A    between atoms: C_2  and  C_20
REMARK    2  A    between atoms: N_3  and  C_4
REMARK    3  A    between atoms: C_4  and  C_5
REMARK    4  A    between atoms: C_8  and  C_9
REMARK    5  A    between atoms: C_9  and  C_10
REMARK    6  A    between atoms: C_10  and  N_11
REMARK    7  A    between atoms: N_11  and  C_12
REMARK                            x       y       z     vdW  Elec       q    Type
REMARK                         _______ _______ _______ _____ _____    ______ ____
ROOT
ATOM      1  C   UNL     1      48.207   6.820  13.431  0.00  0.00    +0.000 C 
ENDROOT
BRANCH   1   2
ATOM      2  C   UNL     1      47.050   6.121  12.770  0.00  0.00    +0.000 A 
ATOM      3  C   UNL     1      46.454   6.684  11.639  0.00  0.00    +0.000 A 
ATOM      4  C   UNL     1      45.412   6.027  10.985  0.00  0.00    +0.000 A 
ATOM      5  C   UNL     1      44.944   4.790  11.443  0.00  0.00    +0.000 A 
ATOM      6  C   UNL     1      45.499   4.260  12.617  0.00  0.00    +0.000 A 
ATOM      7  C   UNL     1      46.542   4.918  13.276  0.00  0.00    +0.000 A 
BRANCH   5   8
ATOM      8  C   UNL     1      43.831   4.040  10.745  0.00  0.00    +0.000 C 
BRANCH   8   9
ATOM      9  C   UNL     1      44.243   2.989   9.695  0.00  0.00    +0.000 C 
BRANCH   9  10
ATOM     10  N   UNL     1      44.620   3.586   8.409  0.00  0.00    +0.000 NA
ATOM     11  H   UNL     1      45.039   4.503   8.556  0.00  0.00    +0.000 HD
BRANCH  10  12
ATOM     12  C   UNL     1      45.499   2.732   7.599  0.00  0.00    +0.000 C 
ATOM     13  C   UNL     1      45.970   1.473   8.336  0.00  0.00    +0.000 C 
ATOM     14  C   UNL     1      46.984   0.712   7.493  0.00  0.00    +0.000 C 
ATOM     15  O   UNL     1      48.088   1.547   7.155  0.00  0.00    +0.000 OA
ATOM     16  C   UNL     1      47.689   2.671   6.370  0.00  0.00    +0.000 C 
ATOM     17  C   UNL     1      46.715   3.551   7.144  0.00  0.00    +0.000 C 
ENDBRANCH  10  12
ENDBRANCH   9  10
ENDBRANCH   8   9
ENDBRANCH   5   8
ENDBRANCH   1   2
BRANCH   1  20
ATOM     18  O   UNL     1      50.291   6.727  15.338  0.00  0.00    +0.000 OA
ATOM     19  C   UNL     1      49.129   6.822  15.722  0.00  0.00    +0.000 C 
ATOM     20  N   UNL     1      48.063   6.824  14.863  0.00  0.00    +0.000 N 
ATOM     21  H   UNL     1      47.150   7.098  15.209  0.00  0.00    +0.000 HD
BRANCH  19  22
ATOM     22  C   UNL     1      48.799   6.879  17.152  0.00  0.00    +0.000 A 
ATOM     23  C   UNL     1      48.349   8.068  17.710  0.00  0.00    +0.000 A 
ATOM     24  S   UNL     1      48.038   7.963  19.384  0.00  0.00    +0.000 S 
ATOM     25  C   UNL     1      48.451   6.312  19.413  0.00  0.00    +0.000 A 
ATOM     26  N   UNL     1      48.370   5.591  20.564  0.00  0.00    +0.000 NA
ATOM     27  C   UNL     1      48.674   4.345  20.437  0.00  0.00    +0.000 A 
ATOM     28  N   UNL     1      49.069   3.752  19.264  0.00  0.00    +0.000 N 
ATOM     29  C   UNL     1      49.241   4.458  18.097  0.00  0.00    +0.000 A 
ATOM     30  O   UNL     1      49.729   3.926  17.106  0.00  0.00    +0.000 OA
ATOM     31  C   UNL     1      48.854   5.856  18.171  0.00  0.00    +0.000 A 
ATOM     32  H   UNL     1      49.327   2.779  19.236  0.00  0.00    +0.000 HD
ENDBRANCH  19  22
ENDBRANCH   1  20
TORSDOF 7
ENDMDL
MODEL 3
REMARK VINA RESULT:    -7.405      1.893      3.598
REMARK INTER + INTRA:         -11.514
REMARK INTER:                 -10.225
REMARK INTRA:                  -1.289
REMARK UNBOUND:                -1.079
REMARK  Name = 
REMARK  7 active torsions:
REMARK  status: ('A' for Active; 'I' for Inactive)
REMARK    1  A    between atoms: C_2  and  C_20
REMARK    2  A    between atoms: N_3  and  C_4
REMARK    3  A    between atoms: C_4  and  C_5
REMARK    4  A    between atoms: C_8  and  C_9
REMARK    5  A    between atoms: C_9  and  C_10
REMARK    6  A    between atoms: C_10  and  N_11
REMARK    7  A    between atoms: N_11  and  C_12
REMARK                            x       y       z     vdW  Elec       q    Type
REMARK                         _______ _______ _______ _____ _____    ______ ____
ROOT
ATOM      1  C   UNL     1      46.971   4.166  14.810  0.00  0.00    +0.000 C 
ENDROOT
BRANCH   1   2
ATOM      2  C   UNL     1      46.229   4.314  13.509  0.00  0.00    +0.000 A 
ATOM      3  C   UNL     1      45.777   3.177  12.835  0.00  0.00    +0.000 A 
ATOM      4  C   UNL     1      45.047   3.296  11.653  0.00  0.00    +0.000 A 
ATOM      5  C   UNL     1      44.748   4.555  11.118  0.00  0.00    +0.000 A 
ATOM      6  C   UNL     1      45.261   5.691  11.761  0.00  0.00    +0.000 A 
ATOM      7  C   UNL     1      45.995   5.573  12.945  0.00  0.00    +0.000 A 
BRANCH   5   8
ATOM      8  C   UNL     1      43.940   4.722   9.850  0.00  0.00    +0.000 C 
BRANCH   8   9
ATOM      9  C   UNL     1      44.428   3.963   8.601  0.00  0.00    +0.000 C 
BRANCH   9  10
ATOM     10  N   UNL     1      45.709   4.466   8.094  0.00  0.00    +0.000 NA
ATOM     11  H   UNL     1      46.150   5.068   8.787  0.00  0.00    +0.000 HD
BRANCH  10  12
ATOM     12  C   UNL     1      46.628   3.405   7.661  0.00  0.00    +0.000 C 
ATOM     13  C   UNL     1      46.822   3.352   6.141  0.00  0.00    +0.000 C 
ATOM     14  C   UNL     1      47.670   2.147   5.756  0.00  0.00    +0.000 C 
ATOM     15  O   UNL     1      47.083   0.941   6.236  0.00  0.00    +0.000 OA
ATOM     16  C   UNL     1      46.994   0.920   7.661  0.00  0.00    +0.000 C 
ATOM     17  C   UNL     1      46.107   2.051   8.164  0.00  0.00    +0.000 C 
ENDBRANCH  10  12
ENDBRANCH   9  10
ENDBRANCH   8   9
ENDBRANCH   5   8
ENDBRANCH   1   2
BRANCH   1  20
ATOM     18  O   UNL     1      49.037   4.555  16.699  0.00  0.00    +0.000 OA
ATOM     19  C   UNL     1      48.541   5.530  16.140  0.00  0.00    +0.000 C 
ATOM     20  N   UNL     1      47.506   5.427  15.251  0.00  0.00    +0.000 N 
ATOM     21  H   UNL     1      47.265   6.227  14.677  0.00  0.00    +0.000 HD
BRANCH  19  22
ATOM     22  C   UNL     1      48.994   6.894  16.441  0.00  0.00    +0.000 A 
ATOM     23  C   UNL     1      48.900   7.384  17.736  0.00  0.00    +0.000 A 
ATOM     24  S   UNL     1      49.445   8.992  17.901  0.00  0.00    +0.000 S 
ATOM     25  C   UNL     1      49.868   9.075  16.254  0.00  0.00    +0.000 A 
ATOM     26  N   UNL     1      50.434  10.198  15.733  0.00  0.00    +0.000 NA
ATOM     27  C   UNL     1      50.740  10.112  14.484  0.00  0.00    +0.000 A 
ATOM     28  N   UNL     1      50.518   9.009  13.699  0.00  0.00    +0.000 N 
ATOM     29  C   UNL     1      49.878   7.883  14.163  0.00  0.00    +0.000 A 
ATOM     30  O   UNL     1      49.571   6.975  13.399  0.00  0.00    +0.000 OA
ATOM     31  C   UNL     1      49.566   7.906  15.581  0.00  0.00    +0.000 A 
ATOM     32  H   UNL     1      50.749   9.015  12.718  0.00  0.00    +0.000 HD
ENDBRANCH  19  22
ENDBRANCH   1  20
TORSDOF 7
ENDMDL
MODEL 4
REMARK VINA RESULT:    -7.346      2.416      3.128
REMARK INTER + INTRA:         -11.431
REMARK INTER:                 -10.503
REMARK INTRA:                  -0.928
REMARK UNBOUND:                -1.079
REMARK  Name = 
REMARK  7 active torsions:
REMARK  status: ('A' for Active; 'I' for Inactive)
REMARK    1  A    between atoms: C_2  and  C_20
REMARK    2  A    between atoms: N_3  and  C_4
REMARK    3  A    between atoms: C_4  and  C_5
REMARK    4  A    between atoms: C_8  and  C_9
REMARK    5  A    between atoms: C_9  and  C_10
REMARK    6  A    between atoms: C_10  and  N_11
REMARK    7  A    between atoms: N_11  and  C_12
REMARK                            x       y       z     vdW  Elec       q    Type
REMARK                         _______ _______ _______ _____ _____    ______ ____
ROOT
ATOM      1  C   UNL     1      47.312   4.189  15.303  0.00  0.00    +0.000 C 
ENDROOT
BRANCH   1   2
ATOM      2  C   UNL     1      46.597   4.419  13.999  0.00  0.00    +0.000 A 
ATOM      3  C   UNL     1      46.118   3.328  13.268  0.00  0.00    +0.000 A 
ATOM      4  C   UNL     1      45.412   3.524  12.082  0.00  0.00    +0.000 A 
ATOM      5  C   UNL     1      45.163   4.814  11.599  0.00  0.00    +0.000 A 
ATOM      6  C   UNL     1      45.702   5.903  12.300  0.00  0.00    +0.000 A 
ATOM      7  C   UNL     1      46.413   5.709  13.488  0.00  0.00    +0.000 A 
BRANCH   5   8
ATOM      8  C   UNL     1      44.382   5.064  10.328  0.00  0.00    +0.000 C 
BRANCH   8   9
ATOM      9  C   UNL     1      44.376   3.938   9.275  0.00  0.00    +0.000 C 
BRANCH   9  10
ATOM     10  N   UNL     1      45.152   4.276   8.077  0.00  0.00    +0.000 NA
ATOM     11  H   UNL     1      45.873   4.958   8.306  0.00  0.00    +0.000 HD
BRANCH  10  12
ATOM     12  C   UNL     1      45.731   3.108   7.402  0.00  0.00    +0.000 C 
ATOM     13  C   UNL     1      46.036   1.946   8.354  0.00  0.00    +0.000 C 
ATOM     14  C   UNL     1      46.762   0.829   7.615  0.00  0.00    +0.000 C 
ATOM     15  O   UNL     1      47.955   1.317   7.008  0.00  0.00    +0.000 OA
ATOM     16  C   UNL     1      47.686   2.324   6.033  0.00  0.00    +0.000 C 
ATOM     17  C   UNL     1      47.015   3.532   6.675  0.00  0.00    +0.000 C 
ENDBRANCH  10  12
ENDBRANCH   9  10
ENDBRANCH   8   9
ENDBRANCH   5   8
ENDBRANCH   1   2
BRANCH   1  20
ATOM     18  O   UNL     1      49.645   4.652  16.829  0.00  0.00    +0.000 OA
ATOM     19  C   UNL     1      48.886   5.588  16.593  0.00  0.00    +0.000 C 
ATOM     20  N   UNL     1      47.713   5.434  15.903  0.00  0.00    +0.000 N 
ATOM     21  H   UNL     1      47.224   6.256  15.569  0.00  0.00    +0.000 HD
BRANCH  19  22
ATOM     22  C   UNL     1      49.160   6.940  17.095  0.00  0.00    +0.000 A 
ATOM     23  C   UNL     1      50.024   7.773  16.399  0.00  0.00    +0.000 A 
ATOM     24  S   UNL     1      50.249   9.295  17.136  0.00  0.00    +0.000 S 
ATOM     25  C   UNL     1      49.164   8.910  18.389  0.00  0.00    +0.000 A 
ATOM     26  N   UNL     1      48.872   9.813  19.364  0.00  0.00    +0.000 NA
ATOM     27  C   UNL     1      48.007   9.406  20.228  0.00  0.00    +0.000 A 
ATOM     28  N   UNL     1      47.414   8.170  20.218  0.00  0.00    +0.000 N 
ATOM     29  C   UNL     1      47.736   7.199  19.299  0.00  0.00    +0.000 A 
ATOM     30  O   UNL     1      47.293   6.060  19.404  0.00  0.00    +0.000 OA
ATOM     31  C   UNL     1      48.664   7.627  18.267  0.00  0.00    +0.000 A 
ATOM     32  H   UNL     1      46.768   7.897  20.942  0.00  0.00    +0.000 HD
ENDBRANCH  19  22
ENDBRANCH   1  20
TORSDOF 7
ENDMDL
MODEL 5
REMARK VINA RESULT:    -7.178      2.764      3.888
REMARK INTER + INTRA:         -11.194
REMARK INTER:                 -10.081
REMARK INTRA:                  -1.113
REMARK UNBOUND:                -1.079
REMARK  Name = 
REMARK  7 active torsions:
REMARK  status: ('A' for Active; 'I' for Inactive)
REMARK    1  A    between atoms: C_2  and  C_20
REMARK    2  A    between atoms: N_3  and  C_4
REMARK    3  A    between atoms: C_4  and  C_5
REMARK    4  A    between atoms: C_8  and  C_9
REMARK    5  A    between atoms: C_9  and  C_10
REMARK    6  A    between atoms: C_10  and  N_11
REMARK    7  A    between atoms: N_11  and  C_12
REMARK                            x       y       z     vdW  Elec       q    Type
REMARK                         _______ _______ _______ _____ _____    ______ ____
ROOT
ATOM      1  C   UNL     1      48.116   4.941  15.892  0.00  0.00    +0.000 C 
ENDROOT
BRANCH   1   2
ATOM      2  C   UNL     1      47.428   5.168  14.574  0.00  0.00    +0.000 A 
ATOM      3  C   UNL     1      47.676   6.340  13.854  0.00  0.00    +0.000 A 
ATOM      4  C   UNL     1      47.084   6.547  12.609  0.00  0.00    +0.000 A 
ATOM      5  C   UNL     1      46.233   5.586  12.050  0.00  0.00    +0.000 A 
ATOM      6  C   UNL     1      45.934   4.442  12.804  0.00  0.00    +0.000 A 
ATOM      7  C   UNL     1      46.524   4.234  14.054  0.00  0.00    +0.000 A 
BRANCH   5   8
ATOM      8  C   UNL     1      45.592   5.768  10.692  0.00  0.00    +0.000 C 
BRANCH   8   9
ATOM      9  C   UNL     1      44.825   4.565  10.110  0.00  0.00    +0.000 C 
BRANCH   9  10
ATOM     10  N   UNL     1      44.666   4.640   8.654  0.00  0.00    +0.000 NA
ATOM     11  H   UNL     1      45.050   5.517   8.303  0.00  0.00    +0.000 HD
BRANCH  10  12
ATOM     12  C   UNL     1      45.243   3.494   7.939  0.00  0.00    +0.000 C 
ATOM     13  C   UNL     1      45.453   2.265   8.831  0.00  0.00    +0.000 C 
ATOM     14  C   UNL     1      46.180   1.170   8.063  0.00  0.00    +0.000 C 
ATOM     15  O   UNL     1      47.423   1.648   7.554  0.00  0.00    +0.000 OA
ATOM     16  C   UNL     1      47.245   2.723   6.632  0.00  0.00    +0.000 C 
ATOM     17  C   UNL     1      46.581   3.913   7.312  0.00  0.00    +0.000 C 
ENDBRANCH  10  12
ENDBRANCH   9  10
ENDBRANCH   8   9
ENDBRANCH   5   8
ENDBRANCH   1   2
BRANCH   1  20
ATOM     18  O   UNL     1      49.623   5.668  18.170  0.00  0.00    +0.000 OA
ATOM     19  C   UNL     1      48.614   6.308  17.887  0.00  0.00    +0.000 C 
ATOM     20  N   UNL     1      47.806   5.988  16.829  0.00  0.00    +0.000 N 
ATOM     21  H   UNL     1      47.105   6.653  16.523  0.00  0.00    +0.000 HD
BRANCH  19  22
ATOM     22  C   UNL     1      48.169   7.438  18.713  0.00  0.00    +0.000 A 
ATOM     23  C   UNL     1      47.923   7.250  20.066  0.00  0.00    +0.000 A 
ATOM     24  S   UNL     1      47.390   8.658  20.867  0.00  0.00    +0.000 S 
ATOM     25  C   UNL     1      47.512   9.581  19.441  0.00  0.00    +0.000 A 
ATOM     26  N   UNL     1      47.224  10.911  19.442  0.00  0.00    +0.000 NA
ATOM     27  C   UNL     1      47.396  11.496  18.306  0.00  0.00    +0.000 A 
ATOM     28  N   UNL     1      47.816  10.870  17.160  0.00  0.00    +0.000 N 
ATOM     29  C   UNL     1      48.042   9.515  17.094  0.00  0.00    +0.000 A 
ATOM     30  O   UNL     1      48.279   8.968  16.023  0.00  0.00    +0.000 OA
ATOM     31  C   UNL     1      47.920   8.818  18.363  0.00  0.00    +0.000 A 
ATOM     32  H   UNL     1      47.899  11.376  16.293  0.00  0.00    +0.000 HD
ENDBRANCH  19  22
ENDBRANCH   1  20
TORSDOF 7
ENDMDL
MODEL 6
REMARK VINA RESULT:    -7.085      2.898      8.110
REMARK INTER + INTRA:         -11.063
REMARK INTER:                  -9.551
REMARK INTRA:                  -1.511
REMARK UNBOUND:                -1.079
REMARK  Name = 
REMARK  7 active torsions:
REMARK  status: ('A' for Active; 'I' for Inactive)
REMARK    1  A    between atoms: C_2  and  C_20
REMARK    2  A    between atoms: N_3  and  C_4
REMARK    3  A    between atoms: C_4  and  C_5
REMARK    4  A    between atoms: C_8  and  C_9
REMARK    5  A    between atoms: C_9  and  C_10
REMARK    6  A    between atoms: C_10  and  N_11
REMARK    7  A    between atoms: N_11  and  C_12
REMARK                            x       y       z     vdW  Elec       q    Type
REMARK                         _______ _______ _______ _____ _____    ______ ____
ROOT
ATOM      1  C   UNL     1      47.700   7.821  11.823  0.00  0.00    +0.000 C 
ENDROOT
BRANCH   1   2
ATOM      2  C   UNL     1      48.194   8.000  13.233  0.00  0.00    +0.000 A 
ATOM      3  C   UNL     1      47.656   9.011  14.034  0.00  0.00    +0.000 A 
ATOM      4  C   UNL     1      48.067   9.161  15.358  0.00  0.00    +0.000 A 
ATOM      5  C   UNL     1      49.022   8.302  15.915  0.00  0.00    +0.000 A 
ATOM      6  C   UNL     1      49.608   7.331  15.089  0.00  0.00    +0.000 A 
ATOM      7  C   UNL     1      49.199   7.181  13.761  0.00  0.00    +0.000 A 
BRANCH   5   8
ATOM      8  C   UNL     1      49.474   8.423  17.354  0.00  0.00    +0.000 C 
BRANCH   8   9
ATOM      9  C   UNL     1      48.955   7.362  18.344  0.00  0.00    +0.000 C 
BRANCH   9  10
ATOM     10  N   UNL     1      47.900   6.518  17.773  0.00  0.00    +0.000 NA
ATOM     11  H   UNL     1      47.662   6.838  16.836  0.00  0.00    +0.000 HD
BRANCH  10  12
ATOM     12  C   UNL     1      48.229   5.086  17.770  0.00  0.00    +0.000 C 
ATOM     13  C   UNL     1      49.736   4.810  17.769  0.00  0.00    +0.000 C 
ATOM     14  C   UNL     1      50.003   3.318  17.622  0.00  0.00    +0.000 C 
ATOM     15  O   UNL     1      49.391   2.809  16.440  0.00  0.00    +0.000 OA
ATOM     16  C   UNL     1      47.971   2.954  16.467  0.00  0.00    +0.000 C 
ATOM     17  C   UNL     1      47.581   4.425  16.545  0.00  0.00    +0.000 C 
ENDBRANCH  10  12
ENDBRANCH   9  10
ENDBRANCH   8   9
ENDBRANCH   5   8
ENDBRANCH   1   2
BRANCH   1  20
ATOM     18  O   UNL     1      44.882   7.618  11.882  0.00  0.00    +0.000 OA
ATOM     19  C   UNL     1      45.553   6.609  11.687  0.00  0.00    +0.000 C 
ATOM     20  N   UNL     1      46.922   6.618  11.692  0.00  0.00    +0.000 N 
ATOM     21  H   UNL     1      47.423   5.811  11.337  0.00  0.00    +0.000 HD
BRANCH  19  22
ATOM     22  C   UNL     1      44.922   5.297  11.493  0.00  0.00    +0.000 A 
ATOM     23  C   UNL     1      44.170   4.735  12.515  0.00  0.00    +0.000 A 
ATOM     24  S   UNL     1      43.533   3.200  12.130  0.00  0.00    +0.000 S 
ATOM     25  C   UNL     1      44.203   3.253  10.567  0.00  0.00    +0.000 A 
ATOM     26  N   UNL     1      44.001   2.237   9.684  0.00  0.00    +0.000 NA
ATOM     27  C   UNL     1      44.532   2.423   8.524  0.00  0.00    +0.000 A 
ATOM     28  N   UNL     1      45.260   3.529   8.166  0.00  0.00    +0.000 N 
ATOM     29  C   UNL     1      45.555   4.542   9.048  0.00  0.00    +0.000 A 
ATOM     30  O   UNL     1      46.325   5.443   8.736  0.00  0.00    +0.000 OA
ATOM     31  C   UNL     1      44.931   4.409  10.353  0.00  0.00    +0.000 A 
ATOM     32  H   UNL     1      45.679   3.601   7.252  0.00  0.00    +0.000 HD
ENDBRANCH  19  22
ENDBRANCH   1  20
TORSDOF 7
ENDMDL
MODEL 7
REMARK VINA RESULT:    -7.031      3.591      7.949
REMARK INTER + INTRA:         -10.987
REMARK INTER:                  -9.462
REMARK INTRA:                  -1.525
REMARK UNBOUND:                -1.079
REMARK  Name = 
REMARK  7 active torsions:
REMARK  status: ('A' for Active; 'I' for Inactive)
REMARK    1  A    between atoms: C_2  and  C_20
REMARK    2  A    between atoms: N_3  and  C_4
REMARK    3  A    between atoms: C_4  and  C_5
REMARK    4  A    between atoms: C_8  and  C_9
REMARK    5  A    between atoms: C_9  and  C_10
REMARK    6  A    between atoms: C_10  and  N_11
REMARK    7  A    between atoms: N_11  and  C_12
REMARK                            x       y       z     vdW  Elec       q    Type
REMARK                         _______ _______ _______ _____ _____    ______ ____
ROOT
ATOM      1  C   UNL     1      48.276   8.107  12.077  0.00  0.00    +0.000 C 
ENDROOT
BRANCH   1   2
ATOM      2  C   UNL     1      48.400   8.025  13.574  0.00  0.00    +0.000 A 
ATOM      3  C   UNL     1      48.798   6.827  14.173  0.00  0.00    +0.000 A 
ATOM      4  C   UNL     1      48.963   6.746  15.556  0.00  0.00    +0.000 A 
ATOM      5  C   UNL     1      48.740   7.861  16.372  0.00  0.00    +0.000 A 
ATOM      6  C   UNL     1      48.277   9.042  15.775  0.00  0.00    +0.000 A 
ATOM      7  C   UNL     1      48.107   9.125  14.390  0.00  0.00    +0.000 A 
BRANCH   5   8
ATOM      8  C   UNL     1      48.932   7.814  17.872  0.00  0.00    +0.000 C 
BRANCH   8   9
ATOM      9  C   UNL     1      47.986   6.898  18.673  0.00  0.00    +0.000 C 
BRANCH   9  10
ATOM     10  N   UNL     1      48.702   5.870  19.437  0.00  0.00    +0.000 NA
ATOM     11  H   UNL     1      48.368   5.851  20.400  0.00  0.00    +0.000 HD
BRANCH  10  12
ATOM     12  C   UNL     1      48.634   4.533  18.833  0.00  0.00    +0.000 C 
ATOM     13  C   UNL     1      49.914   4.138  18.088  0.00  0.00    +0.000 C 
ATOM     14  C   UNL     1      49.723   2.808  17.371  0.00  0.00    +0.000 C 
ATOM     15  O   UNL     1      48.613   2.870  16.479  0.00  0.00    +0.000 OA
ATOM     16  C   UNL     1      47.388   3.126  17.167  0.00  0.00    +0.000 C 
ATOM     17  C   UNL     1      47.438   4.475  17.873  0.00  0.00    +0.000 C 
ENDBRANCH  10  12
ENDBRANCH   9  10
ENDBRANCH   8   9
ENDBRANCH   5   8
ENDBRANCH   1   2
BRANCH   1  20
ATOM     18  O   UNL     1      45.475   7.921  11.757  0.00  0.00    +0.000 OA
ATOM     19  C   UNL     1      46.185   6.989  11.388  0.00  0.00    +0.000 C 
ATOM     20  N   UNL     1      47.544   6.985  11.553  0.00  0.00    +0.000 N 
ATOM     21  H   UNL     1      48.099   6.293  11.063  0.00  0.00    +0.000 HD
BRANCH  19  22
ATOM     22  C   UNL     1      45.609   5.777  10.793  0.00  0.00    +0.000 A 
ATOM     23  C   UNL     1      45.819   5.501   9.449  0.00  0.00    +0.000 A 
ATOM     24  S   UNL     1      45.057   4.070   8.917  0.00  0.00    +0.000 S 
ATOM     25  C   UNL     1      44.457   3.746  10.477  0.00  0.00    +0.000 A 
ATOM     26  N   UNL     1      43.727   2.624  10.726  0.00  0.00    +0.000 NA
ATOM     27  C   UNL     1      43.368   2.483  11.956  0.00  0.00    +0.000 A 
ATOM     28  N   UNL     1      43.658   3.369  12.962  0.00  0.00    +0.000 N 
ATOM     29  C   UNL     1      44.323   4.552  12.741  0.00  0.00    +0.000 A 
ATOM     30  O   UNL     1      44.440   5.384  13.634  0.00  0.00    +0.000 OA
ATOM     31  C   UNL     1      44.802   4.732  11.382  0.00  0.00    +0.000 A 
ATOM     32  H   UNL     1      43.319   3.220  13.899  0.00  0.00    +0.000 HD
ENDBRANCH  19  22
ENDBRANCH   1  20
TORSDOF 7
ENDMDL
MODEL 8
REMARK VINA RESULT:    -6.803      2.474      3.122
REMARK INTER + INTRA:         -10.666
REMARK INTER:                  -9.776
REMARK INTRA:                  -0.890
REMARK UNBOUND:                -1.079
REMARK  Name = 
REMARK  7 active torsions:
REMARK  status: ('A' for Active; 'I' for Inactive)
REMARK    1  A    between atoms: C_2  and  C_20
REMARK    2  A    between atoms: N_3  and  C_4
REMARK    3  A    between atoms: C_4  and  C_5
REMARK    4  A    between atoms: C_8  and  C_9
REMARK    5  A    between atoms: C_9  and  C_10
REMARK    6  A    between atoms: C_10  and  N_11
REMARK    7  A    between atoms: N_11  and  C_12
REMARK                            x       y       z     vdW  Elec       q    Type
REMARK                         _______ _______ _______ _____ _____    ______ ____
ROOT
ATOM      1  C   UNL     1      48.872   7.524  16.256  0.00  0.00    +0.000 C 
ENDROOT
BRANCH   1   2
ATOM      2  C   UNL     1      48.262   7.186  14.923  0.00  0.00    +0.000 A 
ATOM      3  C   UNL     1      47.795   5.892  14.682  0.00  0.00    +0.000 A 
ATOM      4  C   UNL     1      47.184   5.572  13.469  0.00  0.00    +0.000 A 
ATOM      5  C   UNL     1      47.021   6.540  12.471  0.00  0.00    +0.000 A 
ATOM      6  C   UNL     1      47.550   7.820  12.691  0.00  0.00    +0.000 A 
ATOM      7  C   UNL     1      48.166   8.141  13.904  0.00  0.00    +0.000 A 
BRANCH   5   8
ATOM      8  C   UNL     1      46.342   6.234  11.154  0.00  0.00    +0.000 C 
BRANCH   8   9
ATOM      9  C   UNL     1      45.275   5.122  11.155  0.00  0.00    +0.000 C 
BRANCH   9  10
ATOM     10  N   UNL     1      44.418   5.155   9.965  0.00  0.00    +0.000 NA
ATOM     11  H   UNL     1      44.516   6.049   9.485  0.00  0.00    +0.000 HD
BRANCH  10  12
ATOM     12  C   UNL     1      44.652   4.037   9.040  0.00  0.00    +0.000 C 
ATOM     13  C   UNL     1      44.911   2.705   9.752  0.00  0.00    +0.000 C 
ATOM     14  C   UNL     1      45.284   1.627   8.743  0.00  0.00    +0.000 C 
ATOM     15  O   UNL     1      46.417   2.023   7.976  0.00  0.00    +0.000 OA
ATOM     16  C   UNL     1      46.162   3.203   7.214  0.00  0.00    +0.000 C 
ATOM     17  C   UNL     1      45.841   4.377   8.131  0.00  0.00    +0.000 C 
ENDBRANCH  10  12
ENDBRANCH   9  10
ENDBRANCH   8   9
ENDBRANCH   5   8
ENDBRANCH   1   2
BRANCH   1  20
ATOM     18  O   UNL     1      49.147   6.003  18.623  0.00  0.00    +0.000 OA
ATOM     19  C   UNL     1      49.986   5.887  17.733  0.00  0.00    +0.000 C 
ATOM     20  N   UNL     1      49.948   6.624  16.580  0.00  0.00    +0.000 N 
ATOM     21  H   UNL     1      50.541   6.356  15.803  0.00  0.00    +0.000 HD
BRANCH  19  22
ATOM     22  C   UNL     1      51.133   4.982  17.877  0.00  0.00    +0.000 A 
ATOM     23  C   UNL     1      52.351   5.476  18.322  0.00  0.00    +0.000 A 
ATOM     24  S   UNL     1      53.579   4.295  18.406  0.00  0.00    +0.000 S 
ATOM     25  C   UNL     1      52.512   3.072  17.893  0.00  0.00    +0.000 A 
ATOM     26  N   UNL     1      52.931   1.782  17.781  0.00  0.00    +0.000 NA
ATOM     27  C   UNL     1      52.012   0.951  17.420  0.00  0.00    +0.000 A 
ATOM     28  N   UNL     1      50.713   1.294  17.147  0.00  0.00    +0.000 N 
ATOM     29  C   UNL     1      50.267   2.595  17.171  0.00  0.00    +0.000 A 
ATOM     30  O   UNL     1      49.138   2.880  16.784  0.00  0.00    +0.000 OA
ATOM     31  C   UNL     1      51.247   3.563  17.628  0.00  0.00    +0.000 A 
ATOM     32  H   UNL     1      50.048   0.603  16.836  0.00  0.00    +0.000 HD
ENDBRANCH  19  22
ENDBRANCH   1  20
TORSDOF 7
ENDMDL
MODEL 9
REMARK VINA RESULT:    -6.755      3.900      9.319
REMARK INTER + INTRA:         -10.598
REMARK INTER:                  -9.011
REMARK INTRA:                  -1.587
REMARK UNBOUND:                -1.079
REMARK  Name = 
REMARK  7 active torsions:
REMARK  status: ('A' for Active; 'I' for Inactive)
REMARK    1  A    between atoms: C_2  and  C_20
REMARK    2  A    between atoms: N_3  and  C_4
REMARK    3  A    between atoms: C_4  and  C_5
REMARK    4  A    between atoms: C_8  and  C_9
REMARK    5  A    between atoms: C_9  and  C_10
REMARK    6  A    between atoms: C_10  and  N_11
REMARK    7  A    between atoms: N_11  and  C_12
REMARK                            x       y       z     vdW  Elec       q    Type
REMARK                         _______ _______ _______ _____ _____    ______ ____
ROOT
ATOM      1  C   UNL     1      47.318   3.630  16.768  0.00  0.00    +0.000 C 
ENDROOT
BRANCH   1   2
ATOM      2  C   UNL     1      47.671   4.358  18.036  0.00  0.00    +0.000 A 
ATOM      3  C   UNL     1      48.803   3.977  18.763  0.00  0.00    +0.000 A 
ATOM      4  C   UNL     1      49.172   4.671  19.915  0.00  0.00    +0.000 A 
ATOM      5  C   UNL     1      48.424   5.764  20.366  0.00  0.00    +0.000 A 
ATOM      6  C   UNL     1      47.252   6.101  19.672  0.00  0.00    +0.000 A 
ATOM      7  C   UNL     1      46.878   5.406  18.519  0.00  0.00    +0.000 A 
BRANCH   5   8
ATOM      8  C   UNL     1      48.809   6.552  21.598  0.00  0.00    +0.000 C 
BRANCH   8   9
ATOM      9  C   UNL     1      49.151   8.042  21.401  0.00  0.00    +0.000 C 
BRANCH   9  10
ATOM     10  N   UNL     1      50.154   8.262  20.352  0.00  0.00    +0.000 NA
ATOM     11  H   UNL     1      50.502   7.369  20.006  0.00  0.00    +0.000 HD
BRANCH  10  12
ATOM     12  C   UNL     1      49.675   9.100  19.246  0.00  0.00    +0.000 C 
ATOM     13  C   UNL     1      48.254   9.635  19.461  0.00  0.00    +0.000 C 
ATOM     14  C   UNL     1      47.771  10.374  18.220  0.00  0.00    +0.000 C 
ATOM     15  O   UNL     1      47.829   9.530  17.074  0.00  0.00    +0.000 OA
ATOM     16  C   UNL     1      49.163   9.109  16.787  0.00  0.00    +0.000 C 
ATOM     17  C   UNL     1      49.731   8.293  17.941  0.00  0.00    +0.000 C 
ENDBRANCH  10  12
ENDBRANCH   9  10
ENDBRANCH   8   9
ENDBRANCH   5   8
ENDBRANCH   1   2
BRANCH   1  20
ATOM     18  O   UNL     1      47.283   3.165  13.981  0.00  0.00    +0.000 OA
ATOM     19  C   UNL     1      46.845   4.226  14.419  0.00  0.00    +0.000 C 
ATOM     20  N   UNL     1      46.872   4.544  15.750  0.00  0.00    +0.000 N 
ATOM     21  H   UNL     1      46.329   5.333  16.081  0.00  0.00    +0.000 HD
BRANCH  19  22
ATOM     22  C   UNL     1      46.313   5.260  13.524  0.00  0.00    +0.000 A 
ATOM     23  C   UNL     1      47.084   6.374  13.219  0.00  0.00    +0.000 A 
ATOM     24  S   UNL     1      46.302   7.486  12.189  0.00  0.00    +0.000 S 
ATOM     25  C   UNL     1      44.922   6.496  12.077  0.00  0.00    +0.000 A 
ATOM     26  N   UNL     1      43.862   6.858  11.303  0.00  0.00    +0.000 NA
ATOM     27  C   UNL     1      42.901   6.000  11.278  0.00  0.00    +0.000 A 
ATOM     28  N   UNL     1      42.893   4.815  11.969  0.00  0.00    +0.000 N 
ATOM     29  C   UNL     1      43.906   4.446  12.823  0.00  0.00    +0.000 A 
ATOM     30  O   UNL     1      43.800   3.450  13.530  0.00  0.00    +0.000 OA
ATOM     31  C   UNL     1      45.041   5.351  12.842  0.00  0.00    +0.000 A 
ATOM     32  H   UNL     1      42.096   4.200  11.935  0.00  0.00    +0.000 HD
ENDBRANCH  19  22
ENDBRANCH   1  20
TORSDOF 7
ENDMDL
