MODEL 1
REMARK VINA RESULT:    -8.656      0.000      0.000
REMARK INTER + INTRA:         -14.417
REMARK INTER:                 -13.463
REMARK INTRA:                  -0.954
REMARK UNBOUND:                -0.954
REMARK  Name = 
REMARK  10 active torsions:
REMARK  status: ('A' for Active; 'I' for Inactive)
REMARK    1  A    between atoms: C_2  and  C_23
REMARK    2  A    between atoms: N_3  and  C_4
REMARK    3  A    between atoms: C_4  and  C_5
REMARK    4  A    between atoms: C_8  and  C_9
REMARK    5  A    between atoms: C_9  and  N_10
REMARK    6  A    between atoms: N_10  and  C_11
REMARK    7  A    between atoms: N_10  and  C_14
REMARK    8  A    between atoms: C_11  and  C_12
REMARK    9  A    between atoms: C_12  and  O_13
REMARK   10  A    between atoms: C_14  and  C_15
REMARK                            x       y       z     vdW  Elec       q    Type
REMARK                         _______ _______ _______ _____ _____    ______ ____
ROOT
ATOM      1  C   UNL     1      47.993   6.432  13.923  0.00  0.00    +0.000 A 
ATOM      2  C   UNL     1      47.034   5.420  14.062  0.00  0.00    +0.000 A 
ATOM      3  C   UNL     1      46.128   5.160  13.036  0.00  0.00    +0.000 A 
ATOM      4  C   UNL     1      46.132   5.942  11.873  0.00  0.00    +0.000 A 
ATOM      5  C   UNL     1      47.158   6.877  11.688  0.00  0.00    +0.000 A 
ATOM      6  C   UNL     1      48.088   7.115  12.704  0.00  0.00    +0.000 A 
ENDROOT
BRANCH   1   7
ATOM      7  C   UNL     1      48.870   6.806  15.084  0.00  0.00    +0.000 C 
BRANCH   7  10
ATOM      8  O   UNL     1      50.661   5.489  16.662  0.00  0.00    +0.000 OA
ATOM      9  C   UNL     1      49.491   5.504  17.036  0.00  0.00    +0.000 C 
ATOM     10  N   UNL     1      48.506   6.134  16.304  0.00  0.00    +0.000 N 
ATOM     11  H   UNL     1      47.587   6.274  16.693  0.00  0.00    +0.000 HD
BRANCH   9  12
ATOM     12  C   UNL     1      49.065   4.857  18.274  0.00  0.00    +0.000 A 
ATOM     13  C   UNL     1      48.785   3.511  18.490  0.00  0.00    +0.000 A 
ATOM     14  N   UNL     1      48.443   3.345  19.810  0.00  0.00    +0.000 N 
ATOM     15  C   UNL     1      48.481   4.549  20.457  0.00  0.00    +0.000 A 
ATOM     16  N   UNL     1      48.189   4.721  21.758  0.00  0.00    +0.000 NA
ATOM     17  C   UNL     1      48.312   6.007  22.158  0.00  0.00    +0.000 A 
ATOM     18  C   UNL     1      48.699   7.073  21.357  0.00  0.00    +0.000 A 
ATOM     19  C   UNL     1      48.992   6.832  20.015  0.00  0.00    +0.000 A 
ATOM     20  C   UNL     1      48.874   5.514  19.539  0.00  0.00    +0.000 A 
ATOM     21  H   UNL     1      48.189   2.480  20.263  0.00  0.00    +0.000 HD
ENDBRANCH   9  12
ENDBRANCH   7  10
ENDBRANCH   1   7
BRANCH   4  22
ATOM     22  C   UNL     1      45.015   5.812  10.860  0.00  0.00    +0.000 C 
BRANCH  22  23
ATOM     23  N   UNL     1      44.591   4.408  10.606  0.00  0.00    +0.000 NA
BRANCH  23  24
ATOM     24  C   UNL     1      43.364   4.063  11.371  0.00  0.00    +0.000 C 
BRANCH  24  25
ATOM     25  C   UNL     1      42.532   5.262  11.881  0.00  0.00    +0.000 C 
BRANCH  25  26
ATOM     26  O   UNL     1      42.582   5.343  13.306  0.00  0.00    +0.000 OA
ATOM     27  H   UNL     1      43.165   6.088  13.533  0.00  0.00    +0.000 HD
ENDBRANCH  25  26
ENDBRANCH  24  25
ENDBRANCH  23  24
BRANCH  23  28
ATOM     28  C   UNL     1      44.356   4.226   9.161  0.00  0.00    +0.000 C 
BRANCH  28  29
ATOM     29  C   UNL     1      45.376   3.347   8.468  0.00  0.00    +0.000 A 
ATOM     30  C   UNL     1      45.485   1.988   8.795  0.00  0.00    +0.000 A 
ATOM     31  C   UNL     1      46.349   1.158   8.079  0.00  0.00    +0.000 A 
ATOM     32  C   UNL     1      47.120   1.683   7.044  0.00  0.00    +0.000 A 
ATOM     33  C   UNL     1      47.052   3.041   6.741  0.00  0.00    +0.000 A 
ATOM     34  C   UNL     1      46.183   3.871   7.449  0.00  0.00    +0.000 A 
ENDBRANCH  28  29
ENDBRANCH  23  28
ENDBRANCH  22  23
ENDBRANCH   4  22
TORSDOF 10
ENDMDL
MODEL 2
REMARK VINA RESULT:    -8.249      1.897      2.705
REMARK INTER + INTRA:         -13.784
REMARK INTER:                 -12.700
REMARK INTRA:                  -1.083
REMARK UNBOUND:                -0.954
REMARK  Name = 
REMARK  10 active torsions:
REMARK  status: ('A' for Active; 'I' for Inactive)
REMARK    1  A    between atoms: C_2  and  C_23
REMARK    2  A    between atoms: N_3  and  C_4
REMARK    3  A    between atoms: C_4  and  C_5
REMARK    4  A    between atoms: C_8  and  C_9
REMARK    5  A    between atoms: C_9  and  N_10
REMARK    6  A    between atoms: N_10  and  C_11
REMARK    7  A    between atoms: N_10  and  C_14
REMARK    8  A    between atoms: C_11  and  C_12
REMARK    9  A    between atoms: C_12  and  O_13
REMARK   10  A    between atoms: C_14  and  C_15
REMARK                            x       y       z     vdW  Elec       q    Type
REMARK                         _______ _______ _______ _____ _____    ______ ____
ROOT
ATOM      1  C   UNL     1      46.885   8.000  12.750  0.00  0.00    +0.000 A 
ATOM      2  C   UNL     1      47.458   7.223  11.735  0.00  0.00    +0.000 A 
ATOM      3  C   UNL     1      46.665   6.382  10.955  0.00  0.00    +0.000 A 
ATOM      4  C   UNL     1      45.293   6.267  11.211  0.00  0.00    +0.000 A 
ATOM      5  C   UNL     1      44.703   7.123  12.148  0.00  0.00    +0.000 A 
ATOM      6  C   UNL     1      45.493   7.990  12.908  0.00  0.00    +0.000 A 
ENDROOT
BRANCH   1   7
ATOM      7  C   UNL     1      47.759   8.791  13.682  0.00  0.00    +0.000 C 
BRANCH   7  10
ATOM      8  O   UNL     1      49.618   6.899  14.308  0.00  0.00    +0.000 OA
ATOM      9  C   UNL     1      48.856   7.252  15.204  0.00  0.00    +0.000 C 
ATOM     10  N   UNL     1      47.873   8.195  14.987  0.00  0.00    +0.000 N 
ATOM     11  H   UNL     1      47.360   8.589  15.759  0.00  0.00    +0.000 HD
BRANCH   9  12
ATOM     12  C   UNL     1      48.936   6.698  16.553  0.00  0.00    +0.000 A 
ATOM     13  C   UNL     1      49.385   7.321  17.714  0.00  0.00    +0.000 A 
ATOM     14  N   UNL     1      49.264   6.436  18.757  0.00  0.00    +0.000 N 
ATOM     15  C   UNL     1      48.760   5.249  18.305  0.00  0.00    +0.000 A 
ATOM     16  N   UNL     1      48.533   4.175  19.082  0.00  0.00    +0.000 NA
ATOM     17  C   UNL     1      48.023   3.128  18.395  0.00  0.00    +0.000 A 
ATOM     18  C   UNL     1      47.739   3.110  17.036  0.00  0.00    +0.000 A 
ATOM     19  C   UNL     1      47.993   4.255  16.282  0.00  0.00    +0.000 A 
ATOM     20  C   UNL     1      48.533   5.374  16.940  0.00  0.00    +0.000 A 
ATOM     21  H   UNL     1      49.509   6.604  19.722  0.00  0.00    +0.000 HD
ENDBRANCH   9  12
ENDBRANCH   7  10
ENDBRANCH   1   7
BRANCH   4  22
ATOM     22  C   UNL     1      44.474   5.197  10.521  0.00  0.00    +0.000 C 
BRANCH  22  23
ATOM     23  N   UNL     1      45.142   3.868  10.464  0.00  0.00    +0.000 NA
BRANCH  23  24
ATOM     24  C   UNL     1      44.950   3.107  11.726  0.00  0.00    +0.000 C 
BRANCH  24  25
ATOM     25  C   UNL     1      43.497   3.033  12.250  0.00  0.00    +0.000 C 
BRANCH  25  26
ATOM     26  O   UNL     1      42.821   1.898  11.708  0.00  0.00    +0.000 OA
ATOM     27  H   UNL     1      42.109   1.662  12.328  0.00  0.00    +0.000 HD
ENDBRANCH  25  26
ENDBRANCH  24  25
ENDBRANCH  23  24
BRANCH  23  28
ATOM     28  C   UNL     1      44.605   3.103   9.322  0.00  0.00    +0.000 C 
BRANCH  28  29
ATOM     29  C   UNL     1      45.643   2.691   8.301  0.00  0.00    +0.000 A 
ATOM     30  C   UNL     1      46.181   1.396   8.314  0.00  0.00    +0.000 A 
ATOM     31  C   UNL     1      47.055   0.986   7.307  0.00  0.00    +0.000 A 
ATOM     32  C   UNL     1      47.411   1.870   6.291  0.00  0.00    +0.000 A 
ATOM     33  C   UNL     1      46.918   3.173   6.294  0.00  0.00    +0.000 A 
ATOM     34  C   UNL     1      46.037   3.583   7.295  0.00  0.00    +0.000 A 
ENDBRANCH  28  29
ENDBRANCH  23  28
ENDBRANCH  22  23
ENDBRANCH   4  22
TORSDOF 10
ENDMDL
MODEL 3
REMARK VINA RESULT:    -7.298      2.364      3.086
REMARK INTER + INTRA:         -12.305
REMARK INTER:                 -11.198
REMARK INTRA:                  -1.108
REMARK UNBOUND:                -0.954
REMARK  Name = 
REMARK  10 active torsions:
REMARK  status: ('A' for Active; 'I' for Inactive)
REMARK    1  A    between atoms: C_2  and  C_23
REMARK    2  A    between atoms: N_3  and  C_4
REMARK    3  A    between atoms: C_4  and  C_5
REMARK    4  A    between atoms: C_8  and  C_9
REMARK    5  A    between atoms: C_9  and  N_10
REMARK    6  A    between atoms: N_10  and  C_11
REMARK    7  A    between atoms: N_10  and  C_14
REMARK    8  A    between atoms: C_11  and  C_12
REMARK    9  A    between atoms: C_12  and  O_13
REMARK   10  A    between atoms: C_14  and  C_15
REMARK                            x       y       z     vdW  Elec       q    Type
REMARK                         _______ _______ _______ _____ _____    ______ ____
ROOT
ATOM      1  C   UNL     1      47.626   8.247  13.249  0.00  0.00    +0.000 A 
ATOM      2  C   UNL     1      46.328   8.746  13.085  0.00  0.00    +0.000 A 
ATOM      3  C   UNL     1      45.388   8.038  12.337  0.00  0.00    +0.000 A 
ATOM      4  C   UNL     1      45.745   6.844  11.699  0.00  0.00    +0.000 A 
ATOM      5  C   UNL     1      47.006   6.290  11.954  0.00  0.00    +0.000 A 
ATOM      6  C   UNL     1      47.938   6.984  12.731  0.00  0.00    +0.000 A 
ENDROOT
BRANCH   1   7
ATOM      7  C   UNL     1      48.675   9.080  13.929  0.00  0.00    +0.000 C 
BRANCH   7  10
ATOM      8  O   UNL     1      48.980   8.290  16.520  0.00  0.00    +0.000 OA
ATOM      9  C   UNL     1      49.851   7.947  15.725  0.00  0.00    +0.000 C 
ATOM     10  N   UNL     1      49.795   8.304  14.394  0.00  0.00    +0.000 N 
ATOM     11  H   UNL     1      50.424   7.890  13.724  0.00  0.00    +0.000 HD
BRANCH   9  12
ATOM     12  C   UNL     1      50.999   7.142  16.133  0.00  0.00    +0.000 A 
ATOM     13  C   UNL     1      52.350   7.404  15.928  0.00  0.00    +0.000 A 
ATOM     14  N   UNL     1      53.081   6.391  16.499  0.00  0.00    +0.000 N 
ATOM     15  C   UNL     1      52.241   5.469  17.060  0.00  0.00    +0.000 A 
ATOM     16  N   UNL     1      52.650   4.353  17.689  0.00  0.00    +0.000 NA
ATOM     17  C   UNL     1      51.623   3.612  18.163  0.00  0.00    +0.000 A 
ATOM     18  C   UNL     1      50.275   3.924  18.047  0.00  0.00    +0.000 A 
ATOM     19  C   UNL     1      49.913   5.096  17.386  0.00  0.00    +0.000 A 
ATOM     20  C   UNL     1      50.937   5.905  16.863  0.00  0.00    +0.000 A 
ATOM     21  H   UNL     1      54.087   6.306  16.513  0.00  0.00    +0.000 HD
ENDBRANCH   9  12
ENDBRANCH   7  10
ENDBRANCH   1   7
BRANCH   4  22
ATOM     22  C   UNL     1      44.802   6.192  10.710  0.00  0.00    +0.000 C 
BRANCH  22  23
ATOM     23  N   UNL     1      44.801   4.705  10.769  0.00  0.00    +0.000 NA
BRANCH  23  24
ATOM     24  C   UNL     1      43.985   4.205  11.906  0.00  0.00    +0.000 C 
BRANCH  24  25
ATOM     25  C   UNL     1      42.674   4.976  12.181  0.00  0.00    +0.000 C 
BRANCH  25  26
ATOM     26  O   UNL     1      42.732   5.640  13.443  0.00  0.00    +0.000 OA
ATOM     27  H   UNL     1      42.899   4.961  14.120  0.00  0.00    +0.000 HD
ENDBRANCH  25  26
ENDBRANCH  24  25
ENDBRANCH  23  24
BRANCH  23  28
ATOM     28  C   UNL     1      44.280   4.169   9.496  0.00  0.00    +0.000 C 
BRANCH  28  29
ATOM     29  C   UNL     1      45.284   3.363   8.699  0.00  0.00    +0.000 A 
ATOM     30  C   UNL     1      45.390   1.977   8.882  0.00  0.00    +0.000 A 
ATOM     31  C   UNL     1      46.238   1.222   8.070  0.00  0.00    +0.000 A 
ATOM     32  C   UNL     1      46.995   1.848   7.083  0.00  0.00    +0.000 A 
ATOM     33  C   UNL     1      46.931   3.230   6.923  0.00  0.00    +0.000 A 
ATOM     34  C   UNL     1      46.078   3.986   7.727  0.00  0.00    +0.000 A 
ENDBRANCH  28  29
ENDBRANCH  23  28
ENDBRANCH  22  23
ENDBRANCH   4  22
TORSDOF 10
ENDMDL
MODEL 4
REMARK VINA RESULT:    -7.080      2.781      9.537
REMARK INTER + INTRA:         -11.965
REMARK INTER:                 -10.387
REMARK INTRA:                  -1.578
REMARK UNBOUND:                -0.954
REMARK  Name = 
REMARK  10 active torsions:
REMARK  status: ('A' for Active; 'I' for Inactive)
REMARK    1  A    between atoms: C_2  and  C_23
REMARK    2  A    between atoms: N_3  and  C_4
REMARK    3  A    between atoms: C_4  and  C_5
REMARK    4  A    between atoms: C_8  and  C_9
REMARK    5  A    between atoms: C_9  and  N_10
REMARK    6  A    between atoms: N_10  and  C_11
REMARK    7  A    between atoms: N_10  and  C_14
REMARK    8  A    between atoms: C_11  and  C_12
REMARK    9  A    between atoms: C_12  and  O_13
REMARK   10  A    between atoms: C_14  and  C_15
REMARK                            x       y       z     vdW  Elec       q    Type
REMARK                         _______ _______ _______ _____ _____    ______ ____
ROOT
ATOM      1  C   UNL     1      46.416   7.482  12.296  0.00  0.00    +0.000 A 
ATOM      2  C   UNL     1      46.273   8.462  13.286  0.00  0.00    +0.000 A 
ATOM      3  C   UNL     1      47.376   8.882  14.029  0.00  0.00    +0.000 A 
ATOM      4  C   UNL     1      48.630   8.291  13.829  0.00  0.00    +0.000 A 
ATOM      5  C   UNL     1      48.796   7.394  12.766  0.00  0.00    +0.000 A 
ATOM      6  C   UNL     1      47.696   6.997  11.999  0.00  0.00    +0.000 A 
ENDROOT
BRANCH   1   7
ATOM      7  C   UNL     1      45.205   6.928  11.600  0.00  0.00    +0.000 C 
BRANCH   7  10
ATOM      8  O   UNL     1      43.242   5.448  10.422  0.00  0.00    +0.000 OA
ATOM      9  C   UNL     1      44.369   4.961  10.450  0.00  0.00    +0.000 C 
ATOM     10  N   UNL     1      45.429   5.625  11.033  0.00  0.00    +0.000 N 
ATOM     11  H   UNL     1      46.372   5.291  10.913  0.00  0.00    +0.000 HD
BRANCH   9  12
ATOM     12  C   UNL     1      44.662   3.653   9.872  0.00  0.00    +0.000 A 
ATOM     13  C   UNL     1      44.168   2.410  10.259  0.00  0.00    +0.000 A 
ATOM     14  N   UNL     1      44.692   1.455   9.423  0.00  0.00    +0.000 N 
ATOM     15  C   UNL     1      45.524   2.039   8.510  0.00  0.00    +0.000 A 
ATOM     16  N   UNL     1      46.199   1.369   7.559  0.00  0.00    +0.000 NA
ATOM     17  C   UNL     1      46.946   2.180   6.776  0.00  0.00    +0.000 A 
ATOM     18  C   UNL     1      47.040   3.560   6.892  0.00  0.00    +0.000 A 
ATOM     19  C   UNL     1      46.315   4.199   7.896  0.00  0.00    +0.000 A 
ATOM     20  C   UNL     1      45.525   3.407   8.748  0.00  0.00    +0.000 A 
ATOM     21  H   UNL     1      44.516   0.461   9.457  0.00  0.00    +0.000 HD
ENDBRANCH   9  12
ENDBRANCH   7  10
ENDBRANCH   1   7
BRANCH   4  22
ATOM     22  C   UNL     1      49.773   8.581  14.778  0.00  0.00    +0.000 C 
BRANCH  22  23
ATOM     23  N   UNL     1      50.397   7.361  15.359  0.00  0.00    +0.000 NA
BRANCH  23  24
ATOM     24  C   UNL     1      51.847   7.560  15.617  0.00  0.00    +0.000 C 
BRANCH  24  25
ATOM     25  C   UNL     1      52.607   8.399  14.564  0.00  0.00    +0.000 C 
BRANCH  25  26
ATOM     26  O   UNL     1      53.147   7.560  13.543  0.00  0.00    +0.000 OA
ATOM     27  H   UNL     1      53.628   6.839  13.985  0.00  0.00    +0.000 HD
ENDBRANCH  25  26
ENDBRANCH  24  25
ENDBRANCH  23  24
BRANCH  23  28
ATOM     28  C   UNL     1      49.702   7.011  16.613  0.00  0.00    +0.000 C 
BRANCH  28  29
ATOM     29  C   UNL     1      49.104   5.620  16.630  0.00  0.00    +0.000 A 
ATOM     30  C   UNL     1      49.639   4.625  17.461  0.00  0.00    +0.000 A 
ATOM     31  C   UNL     1      49.020   3.378  17.555  0.00  0.00    +0.000 A 
ATOM     32  C   UNL     1      47.873   3.112  16.809  0.00  0.00    +0.000 A 
ATOM     33  C   UNL     1      47.361   4.078  15.946  0.00  0.00    +0.000 A 
ATOM     34  C   UNL     1      47.973   5.329  15.857  0.00  0.00    +0.000 A 
ENDBRANCH  28  29
ENDBRANCH  23  28
ENDBRANCH  22  23
ENDBRANCH   4  22
TORSDOF 10
ENDMDL
MODEL 5
REMARK VINA RESULT:    -6.926      2.477      9.262
REMARK INTER + INTRA:         -11.726
REMARK INTER:                 -10.389
REMARK INTRA:                  -1.338
REMARK UNBOUND:                -0.954
REMARK  Name = 
REMARK  10 active torsions:
REMARK  status: ('A' for Active; 'I' for Inactive)
REMARK    1  A    between atoms: C_2  and  C_23
REMARK    2  A    between atoms: N_3  and  C_4
REMARK    3  A    between atoms: C_4  and  C_5
REMARK    4  A    between atoms: C_8  and  C_9
REMARK    5  A    between atoms: C_9  and  N_10
REMARK    6  A    between atoms: N_10  and  C_11
REMARK    7  A    between atoms: N_10  and  C_14
REMARK    8  A    between atoms: C_11  and  C_12
REMARK    9  A    between atoms: C_12  and  O_13
REMARK   10  A    between atoms: C_14  and  C_15
REMARK                            x       y       z     vdW  Elec       q    Type
REMARK                         _______ _______ _______ _____ _____    ______ ____
ROOT
ATOM      1  C   UNL     1      46.961   7.791  13.114  0.00  0.00    +0.000 A 
ATOM      2  C   UNL     1      47.196   8.774  14.084  0.00  0.00    +0.000 A 
ATOM      3  C   UNL     1      48.432   8.853  14.725  0.00  0.00    +0.000 A 
ATOM      4  C   UNL     1      49.436   7.918  14.443  0.00  0.00    +0.000 A 
ATOM      5  C   UNL     1      49.241   7.007  13.397  0.00  0.00    +0.000 A 
ATOM      6  C   UNL     1      48.013   6.949  12.732  0.00  0.00    +0.000 A 
ENDROOT
BRANCH   1   7
ATOM      7  C   UNL     1      45.586   7.616  12.533  0.00  0.00    +0.000 C 
BRANCH   7  10
ATOM      8  O   UNL     1      43.747   5.763  13.318  0.00  0.00    +0.000 OA
ATOM      9  C   UNL     1      44.444   5.483  12.347  0.00  0.00    +0.000 C 
ATOM     10  N   UNL     1      45.411   6.348  11.876  0.00  0.00    +0.000 N 
ATOM     11  H   UNL     1      45.865   6.179  10.993  0.00  0.00    +0.000 HD
BRANCH   9  12
ATOM     12  C   UNL     1      44.298   4.220  11.627  0.00  0.00    +0.000 A 
ATOM     13  C   UNL     1      43.680   3.050  12.058  0.00  0.00    +0.000 A 
ATOM     14  N   UNL     1      43.755   2.122  11.049  0.00  0.00    +0.000 N 
ATOM     15  C   UNL     1      44.417   2.651   9.976  0.00  0.00    +0.000 A 
ATOM     16  N   UNL     1      44.663   1.988   8.832  0.00  0.00    +0.000 NA
ATOM     17  C   UNL     1      45.326   2.738   7.923  0.00  0.00    +0.000 A 
ATOM     18  C   UNL     1      45.728   4.055   8.096  0.00  0.00    +0.000 A 
ATOM     19  C   UNL     1      45.443   4.691   9.303  0.00  0.00    +0.000 A 
ATOM     20  C   UNL     1      44.763   3.959  10.292  0.00  0.00    +0.000 A 
ATOM     21  H   UNL     1      43.394   1.179  11.068  0.00  0.00    +0.000 HD
ENDBRANCH   9  12
ENDBRANCH   7  10
ENDBRANCH   1   7
BRANCH   4  22
ATOM     22  C   UNL     1      50.689   7.862  15.291  0.00  0.00    +0.000 C 
BRANCH  22  23
ATOM     23  N   UNL     1      50.844   6.593  16.054  0.00  0.00    +0.000 NA
BRANCH  23  24
ATOM     24  C   UNL     1      52.243   6.402  16.516  0.00  0.00    +0.000 C 
BRANCH  24  25
ATOM     25  C   UNL     1      52.529   5.077  17.260  0.00  0.00    +0.000 C 
BRANCH  25  26
ATOM     26  O   UNL     1      53.883   5.031  17.708  0.00  0.00    +0.000 OA
ATOM     27  H   UNL     1      54.118   4.093  17.826  0.00  0.00    +0.000 HD
ENDBRANCH  25  26
ENDBRANCH  24  25
ENDBRANCH  23  24
BRANCH  23  28
ATOM     28  C   UNL     1      49.925   6.607  17.209  0.00  0.00    +0.000 C 
BRANCH  28  29
ATOM     29  C   UNL     1      49.002   5.410  17.288  0.00  0.00    +0.000 A 
ATOM     30  C   UNL     1      48.060   5.167  16.278  0.00  0.00    +0.000 A 
ATOM     31  C   UNL     1      47.287   4.005  16.300  0.00  0.00    +0.000 A 
ATOM     32  C   UNL     1      47.438   3.088  17.337  0.00  0.00    +0.000 A 
ATOM     33  C   UNL     1      48.338   3.341  18.369  0.00  0.00    +0.000 A 
ATOM     34  C   UNL     1      49.119   4.498  18.346  0.00  0.00    +0.000 A 
ENDBRANCH  28  29
ENDBRANCH  23  28
ENDBRANCH  22  23
ENDBRANCH   4  22
TORSDOF 10
ENDMDL
MODEL 6
REMARK VINA RESULT:    -6.908      5.374      7.155
REMARK INTER + INTRA:         -11.699
REMARK INTER:                 -10.850
REMARK INTRA:                  -0.849
REMARK UNBOUND:                -0.954
REMARK  Name = 
REMARK  10 active torsions:
REMARK  status: ('A' for Active; 'I' for Inactive)
REMARK    1  A    between atoms: C_2  and  C_23
REMARK    2  A    between atoms: N_3  and  C_4
REMARK    3  A    between atoms: C_4  and  C_5
REMARK    4  A    between atoms: C_8  and  C_9
REMARK    5  A    between atoms: C_9  and  N_10
REMARK    6  A    between atoms: N_10  and  C_11
REMARK    7  A    between atoms: N_10  and  C_14
REMARK    8  A    between atoms: C_11  and  C_12
REMARK    9  A    between atoms: C_12  and  O_13
REMARK   10  A    between atoms: C_14  and  C_15
REMARK                            x       y       z     vdW  Elec       q    Type
REMARK                         _______ _______ _______ _____ _____    ______ ____
ROOT
ATOM      1  C   UNL     1      47.075   8.388  12.161  0.00  0.00    +0.000 A 
ATOM      2  C   UNL     1      45.719   8.736  12.120  0.00  0.00    +0.000 A 
ATOM      3  C   UNL     1      44.760   7.798  11.738  0.00  0.00    +0.000 A 
ATOM      4  C   UNL     1      45.147   6.512  11.341  0.00  0.00    +0.000 A 
ATOM      5  C   UNL     1      46.487   6.132  11.487  0.00  0.00    +0.000 A 
ATOM      6  C   UNL     1      47.444   7.062  11.902  0.00  0.00    +0.000 A 
ENDROOT
BRANCH   1   7
ATOM      7  C   UNL     1      48.116   9.437  12.430  0.00  0.00    +0.000 C 
BRANCH   7  10
ATOM      8  O   UNL     1      50.408  10.885  12.712  0.00  0.00    +0.000 OA
ATOM      9  C   UNL     1      50.300  10.201  11.698  0.00  0.00    +0.000 C 
ATOM     10  N   UNL     1      49.175   9.441  11.455  0.00  0.00    +0.000 N 
ATOM     11  H   UNL     1      49.162   8.768  10.705  0.00  0.00    +0.000 HD
BRANCH   9  12
ATOM     12  C   UNL     1      51.350  10.149  10.684  0.00  0.00    +0.000 A 
ATOM     13  C   UNL     1      51.897  11.201   9.955  0.00  0.00    +0.000 A 
ATOM     14  N   UNL     1      52.873  10.697   9.130  0.00  0.00    +0.000 N 
ATOM     15  C   UNL     1      52.968   9.343   9.293  0.00  0.00    +0.000 A 
ATOM     16  N   UNL     1      53.826   8.556   8.621  0.00  0.00    +0.000 NA
ATOM     17  C   UNL     1      53.729   7.254   8.972  0.00  0.00    +0.000 A 
ATOM     18  C   UNL     1      52.861   6.731   9.921  0.00  0.00    +0.000 A 
ATOM     19  C   UNL     1      51.996   7.598  10.588  0.00  0.00    +0.000 A 
ATOM     20  C   UNL     1      52.045   8.964  10.259  0.00  0.00    +0.000 A 
ATOM     21  H   UNL     1      53.445  11.220   8.484  0.00  0.00    +0.000 HD
ENDBRANCH   9  12
ENDBRANCH   7  10
ENDBRANCH   1   7
BRANCH   4  22
ATOM     22  C   UNL     1      44.141   5.569  10.716  0.00  0.00    +0.000 C 
BRANCH  22  23
ATOM     23  N   UNL     1      44.701   4.234  10.369  0.00  0.00    +0.000 NA
BRANCH  23  24
ATOM     24  C   UNL     1      44.157   3.169  11.250  0.00  0.00    +0.000 C 
BRANCH  24  25
ATOM     25  C   UNL     1      43.539   3.650  12.583  0.00  0.00    +0.000 C 
BRANCH  25  26
ATOM     26  O   UNL     1      44.553   3.851  13.567  0.00  0.00    +0.000 OA
ATOM     27  H   UNL     1      44.302   4.636  14.085  0.00  0.00    +0.000 HD
ENDBRANCH  25  26
ENDBRANCH  24  25
ENDBRANCH  23  24
BRANCH  23  28
ATOM     28  C   UNL     1      44.395   3.932   8.957  0.00  0.00    +0.000 C 
BRANCH  28  29
ATOM     29  C   UNL     1      45.456   3.118   8.248  0.00  0.00    +0.000 A 
ATOM     30  C   UNL     1      46.387   3.740   7.404  0.00  0.00    +0.000 A 
ATOM     31  C   UNL     1      47.429   3.004   6.838  0.00  0.00    +0.000 A 
ATOM     32  C   UNL     1      47.537   1.639   7.098  0.00  0.00    +0.000 A 
ATOM     33  C   UNL     1      46.591   1.002   7.898  0.00  0.00    +0.000 A 
ATOM     34  C   UNL     1      45.554   1.738   8.472  0.00  0.00    +0.000 A 
ENDBRANCH  28  29
ENDBRANCH  23  28
ENDBRANCH  22  23
ENDBRANCH   4  22
TORSDOF 10
ENDMDL
MODEL 7
REMARK VINA RESULT:    -6.868      1.830      2.551
REMARK INTER + INTRA:         -11.637
REMARK INTER:                 -10.448
REMARK INTRA:                  -1.188
REMARK UNBOUND:                -0.954
REMARK  Name = 
REMARK  10 active torsions:
REMARK  status: ('A' for Active; 'I' for Inactive)
REMARK    1  A    between atoms: C_2  and  C_23
REMARK    2  A    between atoms: N_3  and  C_4
REMARK    3  A    between atoms: C_4  and  C_5
REMARK    4  A    between atoms: C_8  and  C_9
REMARK    5  A    between atoms: C_9  and  N_10
REMARK    6  A    between atoms: N_10  and  C_11
REMARK    7  A    between atoms: N_10  and  C_14
REMARK    8  A    between atoms: C_11  and  C_12
REMARK    9  A    between atoms: C_12  and  O_13
REMARK   10  A    between atoms: C_14  and  C_15
REMARK                            x       y       z     vdW  Elec       q    Type
REMARK                         _______ _______ _______ _____ _____    ______ ____
ROOT
ATOM      1  C   UNL     1      48.814   8.142  13.380  0.00  0.00    +0.000 A 
ATOM      2  C   UNL     1      48.913   7.305  12.260  0.00  0.00    +0.000 A 
ATOM      3  C   UNL     1      47.766   6.893  11.583  0.00  0.00    +0.000 A 
ATOM      4  C   UNL     1      46.498   7.269  12.044  0.00  0.00    +0.000 A 
ATOM      5  C   UNL     1      46.405   8.193  13.093  0.00  0.00    +0.000 A 
ATOM      6  C   UNL     1      47.556   8.632  13.752  0.00  0.00    +0.000 A 
ENDROOT
BRANCH   1   7
ATOM      7  C   UNL     1      50.036   8.463  14.192  0.00  0.00    +0.000 C 
BRANCH   7  10
ATOM      8  O   UNL     1      51.490   6.896  15.884  0.00  0.00    +0.000 OA
ATOM      9  C   UNL     1      50.600   7.581  16.381  0.00  0.00    +0.000 C 
ATOM     10  N   UNL     1      49.801   8.400  15.611  0.00  0.00    +0.000 N 
ATOM     11  H   UNL     1      49.184   9.069  16.042  0.00  0.00    +0.000 HD
BRANCH   9  12
ATOM     12  C   UNL     1      50.328   7.574  17.816  0.00  0.00    +0.000 A 
ATOM     13  C   UNL     1      51.068   8.167  18.836  0.00  0.00    +0.000 A 
ATOM     14  N   UNL     1      50.432   7.927  20.029  0.00  0.00    +0.000 N 
ATOM     15  C   UNL     1      49.306   7.183  19.817  0.00  0.00    +0.000 A 
ATOM     16  N   UNL     1      48.470   6.776  20.789  0.00  0.00    +0.000 NA
ATOM     17  C   UNL     1      47.424   6.061  20.316  0.00  0.00    +0.000 A 
ATOM     18  C   UNL     1      47.185   5.757  18.982  0.00  0.00    +0.000 A 
ATOM     19  C   UNL     1      48.085   6.210  18.019  0.00  0.00    +0.000 A 
ATOM     20  C   UNL     1      49.199   6.951  18.452  0.00  0.00    +0.000 A 
ATOM     21  H   UNL     1      50.731   8.233  20.944  0.00  0.00    +0.000 HD
ENDBRANCH   9  12
ENDBRANCH   7  10
ENDBRANCH   1   7
BRANCH   4  22
ATOM     22  C   UNL     1      45.252   6.647  11.452  0.00  0.00    +0.000 C 
BRANCH  22  23
ATOM     23  N   UNL     1      45.285   5.159  11.405  0.00  0.00    +0.000 NA
BRANCH  23  24
ATOM     24  C   UNL     1      44.859   4.563  12.697  0.00  0.00    +0.000 C 
BRANCH  24  25
ATOM     25  C   UNL     1      43.531   3.772  12.666  0.00  0.00    +0.000 C 
BRANCH  25  26
ATOM     26  O   UNL     1      43.779   2.367  12.641  0.00  0.00    +0.000 OA
ATOM     27  H   UNL     1      44.440   2.202  11.946  0.00  0.00    +0.000 HD
ENDBRANCH  25  26
ENDBRANCH  24  25
ENDBRANCH  23  24
BRANCH  23  28
ATOM     28  C   UNL     1      44.409   4.689  10.315  0.00  0.00    +0.000 C 
BRANCH  28  29
ATOM     29  C   UNL     1      45.104   3.836   9.276  0.00  0.00    +0.000 A 
ATOM     30  C   UNL     1      45.831   4.431   8.234  0.00  0.00    +0.000 A 
ATOM     31  C   UNL     1      46.560   3.643   7.343  0.00  0.00    +0.000 A 
ATOM     32  C   UNL     1      46.556   2.256   7.476  0.00  0.00    +0.000 A 
ATOM     33  C   UNL     1      45.801   1.653   8.480  0.00  0.00    +0.000 A 
ATOM     34  C   UNL     1      45.078   2.438   9.377  0.00  0.00    +0.000 A 
ENDBRANCH  28  29
ENDBRANCH  23  28
ENDBRANCH  22  23
ENDBRANCH   4  22
TORSDOF 10
ENDMDL
MODEL 8
REMARK VINA RESULT:    -6.819      2.933      8.755
REMARK INTER + INTRA:         -11.560
REMARK INTER:                  -9.835
REMARK INTRA:                  -1.725
REMARK UNBOUND:                -0.954
REMARK  Name = 
REMARK  10 active torsions:
REMARK  status: ('A' for Active; 'I' for Inactive)
REMARK    1  A    between atoms: C_2  and  C_23
REMARK    2  A    between atoms: N_3  and  C_4
REMARK    3  A    between atoms: C_4  and  C_5
REMARK    4  A    between atoms: C_8  and  C_9
REMARK    5  A    between atoms: C_9  and  N_10
REMARK    6  A    between atoms: N_10  and  C_11
REMARK    7  A    between atoms: N_10  and  C_14
REMARK    8  A    between atoms: C_11  and  C_12
REMARK    9  A    between atoms: C_12  and  O_13
REMARK   10  A    between atoms: C_14  and  C_15
REMARK                            x       y       z     vdW  Elec       q    Type
REMARK                         _______ _______ _______ _____ _____    ______ ____
ROOT
ATOM      1  C   UNL     1      49.521   7.773  15.016  0.00  0.00    +0.000 A 
ATOM      2  C   UNL     1      48.553   8.593  15.610  0.00  0.00    +0.000 A 
ATOM      3  C   UNL     1      48.466   8.694  16.998  0.00  0.00    +0.000 A 
ATOM      4  C   UNL     1      49.314   7.936  17.816  0.00  0.00    +0.000 A 
ATOM      5  C   UNL     1      50.351   7.204  17.225  0.00  0.00    +0.000 A 
ATOM      6  C   UNL     1      50.458   7.129  15.833  0.00  0.00    +0.000 A 
ENDROOT
BRANCH   1   7
ATOM      7  C   UNL     1      49.516   7.553  13.530  0.00  0.00    +0.000 C 
BRANCH   7  10
ATOM      8  O   UNL     1      47.964   5.322  13.313  0.00  0.00    +0.000 OA
ATOM      9  C   UNL     1      47.485   6.379  12.909  0.00  0.00    +0.000 C 
ATOM     10  N   UNL     1      48.193   7.561  12.964  0.00  0.00    +0.000 N 
ATOM     11  H   UNL     1      47.738   8.441  12.778  0.00  0.00    +0.000 HD
BRANCH   9  12
ATOM     12  C   UNL     1      46.140   6.453  12.345  0.00  0.00    +0.000 A 
ATOM     13  C   UNL     1      45.473   7.573  11.857  0.00  0.00    +0.000 A 
ATOM     14  N   UNL     1      44.239   7.178  11.401  0.00  0.00    +0.000 N 
ATOM     15  C   UNL     1      44.079   5.834  11.591  0.00  0.00    +0.000 A 
ATOM     16  N   UNL     1      42.973   5.145  11.257  0.00  0.00    +0.000 NA
ATOM     17  C   UNL     1      43.070   3.827  11.540  0.00  0.00    +0.000 A 
ATOM     18  C   UNL     1      44.170   3.197  12.107  0.00  0.00    +0.000 A 
ATOM     19  C   UNL     1      45.290   3.963  12.429  0.00  0.00    +0.000 A 
ATOM     20  C   UNL     1      45.244   5.344  12.166  0.00  0.00    +0.000 A 
ATOM     21  H   UNL     1      43.530   7.768  10.991  0.00  0.00    +0.000 HD
ENDBRANCH   9  12
ENDBRANCH   7  10
ENDBRANCH   1   7
BRANCH   4  22
ATOM     22  C   UNL     1      49.078   7.871  19.310  0.00  0.00    +0.000 C 
BRANCH  22  23
ATOM     23  N   UNL     1      48.808   6.498  19.818  0.00  0.00    +0.000 NA
BRANCH  23  24
ATOM     24  C   UNL     1      48.530   6.501  21.277  0.00  0.00    +0.000 C 
BRANCH  24  25
ATOM     25  C   UNL     1      48.457   5.111  21.950  0.00  0.00    +0.000 C 
BRANCH  25  26
ATOM     26  O   UNL     1      47.109   4.781  22.285  0.00  0.00    +0.000 OA
ATOM     27  H   UNL     1      46.641   4.593  21.452  0.00  0.00    +0.000 HD
ENDBRANCH  25  26
ENDBRANCH  24  25
ENDBRANCH  23  24
BRANCH  23  28
ATOM     28  C   UNL     1      47.662   5.927  19.084  0.00  0.00    +0.000 C 
BRANCH  28  29
ATOM     29  C   UNL     1      48.000   4.716  18.241  0.00  0.00    +0.000 A 
ATOM     30  C   UNL     1      47.223   4.388  17.119  0.00  0.00    +0.000 A 
ATOM     31  C   UNL     1      47.601   3.337  16.283  0.00  0.00    +0.000 A 
ATOM     32  C   UNL     1      48.746   2.596  16.570  0.00  0.00    +0.000 A 
ATOM     33  C   UNL     1      49.498   2.884  17.706  0.00  0.00    +0.000 A 
ATOM     34  C   UNL     1      49.128   3.940  18.539  0.00  0.00    +0.000 A 
ENDBRANCH  28  29
ENDBRANCH  23  28
ENDBRANCH  22  23
ENDBRANCH   4  22
TORSDOF 10
ENDMDL
MODEL 9
REMARK VINA RESULT:    -6.744      2.456      9.237
REMARK INTER + INTRA:         -11.444
REMARK INTER:                  -9.522
REMARK INTRA:                  -1.922
REMARK UNBOUND:                -0.954
REMARK  Name = 
REMARK  10 active torsions:
REMARK  status: ('A' for Active; 'I' for Inactive)
REMARK    1  A    between atoms: C_2  and  C_23
REMARK    2  A    between atoms: N_3  and  C_4
REMARK    3  A    between atoms: C_4  and  C_5
REMARK    4  A    between atoms: C_8  and  C_9
REMARK    5  A    between atoms: C_9  and  N_10
REMARK    6  A    between atoms: N_10  and  C_11
REMARK    7  A    between atoms: N_10  and  C_14
REMARK    8  A    between atoms: C_11  and  C_12
REMARK    9  A    between atoms: C_12  and  O_13
REMARK   10  A    between atoms: C_14  and  C_15
REMARK                            x       y       z     vdW  Elec       q    Type
REMARK                         _______ _______ _______ _____ _____    ______ ____
ROOT
ATOM      1  C   UNL     1      48.289   8.148  14.644  0.00  0.00    +0.000 A 
ATOM      2  C   UNL     1      48.168   8.971  15.771  0.00  0.00    +0.000 A 
ATOM      3  C   UNL     1      49.081   8.872  16.820  0.00  0.00    +0.000 A 
ATOM      4  C   UNL     1      50.099   7.911  16.783  0.00  0.00    +0.000 A 
ATOM      5  C   UNL     1      50.287   7.166  15.612  0.00  0.00    +0.000 A 
ATOM      6  C   UNL     1      49.391   7.289  14.546  0.00  0.00    +0.000 A 
ENDROOT
BRANCH   1   7
ATOM      7  C   UNL     1      47.223   8.155  13.585  0.00  0.00    +0.000 C 
BRANCH   7  10
ATOM      8  O   UNL     1      45.072   7.722  11.968  0.00  0.00    +0.000 OA
ATOM      9  C   UNL     1      45.588   6.737  12.489  0.00  0.00    +0.000 C 
ATOM     10  N   UNL     1      46.674   6.849  13.332  0.00  0.00    +0.000 N 
ATOM     11  H   UNL     1      47.182   6.031  13.626  0.00  0.00    +0.000 HD
BRANCH   9  12
ATOM     12  C   UNL     1      45.087   5.385  12.253  0.00  0.00    +0.000 A 
ATOM     13  C   UNL     1      44.556   4.490  13.177  0.00  0.00    +0.000 A 
ATOM     14  N   UNL     1      44.192   3.345  12.512  0.00  0.00    +0.000 N 
ATOM     15  C   UNL     1      44.484   3.464  11.182  0.00  0.00    +0.000 A 
ATOM     16  N   UNL     1      44.255   2.506  10.266  0.00  0.00    +0.000 NA
ATOM     17  C   UNL     1      44.625   2.875   9.018  0.00  0.00    +0.000 A 
ATOM     18  C   UNL     1      45.179   4.098   8.664  0.00  0.00    +0.000 A 
ATOM     19  C   UNL     1      45.390   5.052   9.658  0.00  0.00    +0.000 A 
ATOM     20  C   UNL     1      45.033   4.723  10.978  0.00  0.00    +0.000 A 
ATOM     21  H   UNL     1      43.777   2.518  12.917  0.00  0.00    +0.000 HD
ENDBRANCH   9  12
ENDBRANCH   7  10
ENDBRANCH   1   7
BRANCH   4  22
ATOM     22  C   UNL     1      50.949   7.649  18.008  0.00  0.00    +0.000 C 
BRANCH  22  23
ATOM     23  N   UNL     1      51.179   6.204  18.283  0.00  0.00    +0.000 NA
BRANCH  23  24
ATOM     24  C   UNL     1      52.378   5.995  19.136  0.00  0.00    +0.000 C 
BRANCH  24  25
ATOM     25  C   UNL     1      52.967   4.566  19.128  0.00  0.00    +0.000 C 
BRANCH  25  26
ATOM     26  O   UNL     1      52.574   3.851  20.299  0.00  0.00    +0.000 OA
ATOM     27  H   UNL     1      52.671   2.902  20.105  0.00  0.00    +0.000 HD
ENDBRANCH  25  26
ENDBRANCH  24  25
ENDBRANCH  23  24
BRANCH  23  28
ATOM     28  C   UNL     1      49.984   5.640  18.941  0.00  0.00    +0.000 C 
BRANCH  28  29
ATOM     29  C   UNL     1      49.188   4.684  18.079  0.00  0.00    +0.000 A 
ATOM     30  C   UNL     1      47.948   5.066  17.548  0.00  0.00    +0.000 A 
ATOM     31  C   UNL     1      47.268   4.224  16.667  0.00  0.00    +0.000 A 
ATOM     32  C   UNL     1      47.815   2.990  16.323  0.00  0.00    +0.000 A 
ATOM     33  C   UNL     1      49.024   2.581  16.880  0.00  0.00    +0.000 A 
ATOM     34  C   UNL     1      49.710   3.424  17.755  0.00  0.00    +0.000 A 
ENDBRANCH  28  29
ENDBRANCH  23  28
ENDBRANCH  22  23
ENDBRANCH   4  22
TORSDOF 10
ENDMDL
