MODEL 1
REMARK VINA RESULT:    -8.060      0.000      0.000
REMARK INTER + INTRA:         -11.743
REMARK INTER:                 -10.887
REMARK INTRA:                  -0.856
REMARK UNBOUND:                -0.856
REMARK  Name = 
REMARK  6 active torsions:
REMARK  status: ('A' for Active; 'I' for Inactive)
REMARK    1  A    between atoms: C_2  and  C_25
REMARK    2  A    between atoms: N_3  and  C_4
REMARK    3  A    between atoms: C_4  and  C_5
REMARK    4  A    between atoms: C_8  and  C_9
REMARK    5  A    between atoms: C_9  and  N_10
REMARK    6  A    between atoms: C_11  and  C_13
REMARK                            x       y       z     vdW  Elec       q    Type
REMARK                         _______ _______ _______ _____ _____    ______ ____
ROOT
ATOM      1  C   UNL     1      46.132   4.732  13.487  0.00  0.00    +0.000 A 
ATOM      2  C   UNL     1      46.674   5.924  12.988  0.00  0.00    +0.000 A 
ATOM      3  C   UNL     1      47.627   6.639  13.723  0.00  0.00    +0.000 A 
ATOM      4  C   UNL     1      48.073   6.164  14.964  0.00  0.00    +0.000 A 
ATOM      5  C   UNL     1      47.525   4.976  15.465  0.00  0.00    +0.000 A 
ATOM      6  C   UNL     1      46.575   4.260  14.729  0.00  0.00    +0.000 A 
ENDROOT
BRANCH   1   7
ATOM      7  C   UNL     1      45.120   3.956  12.684  0.00  0.00    +0.000 C 
BRANCH   7  10
ATOM      8  O   UNL     1      43.594   3.240  10.440  0.00  0.00    +0.000 OA
ATOM      9  C   UNL     1      44.813   3.267  10.347  0.00  0.00    +0.000 C 
ATOM     10  N   UNL     1      45.655   3.582  11.395  0.00  0.00    +0.000 N 
ATOM     11  H   UNL     1      46.625   3.791  11.214  0.00  0.00    +0.000 HD
BRANCH   9  12
ATOM     12  C   UNL     1      45.476   3.005   9.040  0.00  0.00    +0.000 A 
ATOM     13  C   UNL     1      45.723   4.083   8.178  0.00  0.00    +0.000 A 
ATOM     14  C   UNL     1      46.382   3.873   6.964  0.00  0.00    +0.000 A 
ATOM     15  C   UNL     1      46.782   2.585   6.607  0.00  0.00    +0.000 A 
ATOM     16 CL   UNL     1      47.619   2.327   5.125  0.00  0.00    +0.000 Cl
ATOM     17  C   UNL     1      46.510   1.501   7.443  0.00  0.00    +0.000 A 
ATOM     18  C   UNL     1      45.852   1.710   8.658  0.00  0.00    +0.000 A 
ENDBRANCH   9  12
ENDBRANCH   7  10
ENDBRANCH   1   7
BRANCH   4  19
ATOM     19  C   UNL     1      49.101   6.925  15.761  0.00  0.00    +0.000 C 
BRANCH  19  20
ATOM     20  N   UNL     1      50.133   6.055  16.264  0.00  0.00    +0.000 N 
ATOM     21  C   UNL     1      50.198   5.729  17.596  0.00  0.00    +0.000 C 
ATOM     22  O   UNL     1      49.357   6.119  18.403  0.00  0.00    +0.000 OA
ATOM     23  H   UNL     1      50.953   5.922  15.679  0.00  0.00    +0.000 HD
BRANCH  21  24
ATOM     24  C   UNL     1      51.290   4.836  18.002  0.00  0.00    +0.000 A 
ATOM     25  C   UNL     1      52.397   5.354  18.660  0.00  0.00    +0.000 A 
ATOM     26  S   UNL     1      53.546   4.173  19.103  0.00  0.00    +0.000 S 
ATOM     27  C   UNL     1      52.629   2.935  18.383  0.00  0.00    +0.000 A 
ATOM     28  N   UNL     1      53.069   1.647  18.383  0.00  0.00    +0.000 NA
ATOM     29  C   UNL     1      52.290   0.818  17.771  0.00  0.00    +0.000 A 
ATOM     30  N   UNL     1      51.108   1.156  17.167  0.00  0.00    +0.000 N 
ATOM     31  C   UNL     1      50.609   2.437  17.169  0.00  0.00    +0.000 A 
ATOM     32  O   UNL     1      49.524   2.698  16.658  0.00  0.00    +0.000 OA
ATOM     33  C   UNL     1      51.453   3.412  17.831  0.00  0.00    +0.000 A 
ATOM     34  H   UNL     1      50.539   0.456  16.715  0.00  0.00    +0.000 HD
ENDBRANCH  21  24
ENDBRANCH  19  20
ENDBRANCH   4  19
TORSDOF 6
ENDMDL
MODEL 2
REMARK VINA RESULT:    -7.556      3.537      4.156
REMARK INTER + INTRA:         -11.062
REMARK INTER:                 -10.217
REMARK INTRA:                  -0.845
REMARK UNBOUND:                -0.856
REMARK  Name = 
REMARK  6 active torsions:
REMARK  status: ('A' for Active; 'I' for Inactive)
REMARK    1  A    between atoms: C_2  and  C_25
REMARK    2  A    between atoms: N_3  and  C_4
REMARK    3  A    between atoms: C_4  and  C_5
REMARK    4  A    between atoms: C_8  and  C_9
REMARK    5  A    between atoms: C_9  and  N_10
REMARK    6  A    between atoms: C_11  and  C_13
REMARK                            x       y       z     vdW  Elec       q    Type
REMARK                         _______ _______ _______ _____ _____    ______ ____
ROOT
ATOM      1  C   UNL     1      45.464   6.355  12.449  0.00  0.00    +0.000 A 
ATOM      2  C   UNL     1      46.602   5.935  13.151  0.00  0.00    +0.000 A 
ATOM      3  C   UNL     1      47.415   6.861  13.815  0.00  0.00    +0.000 A 
ATOM      4  C   UNL     1      47.095   8.226  13.806  0.00  0.00    +0.000 A 
ATOM      5  C   UNL     1      45.962   8.645  13.097  0.00  0.00    +0.000 A 
ATOM      6  C   UNL     1      45.147   7.719  12.437  0.00  0.00    +0.000 A 
ENDROOT
BRANCH   1   7
ATOM      7  C   UNL     1      44.581   5.352  11.751  0.00  0.00    +0.000 C 
BRANCH   7  10
ATOM      8  O   UNL     1      43.656   3.137  10.300  0.00  0.00    +0.000 OA
ATOM      9  C   UNL     1      44.718   3.654   9.984  0.00  0.00    +0.000 C 
ATOM     10  N   UNL     1      45.273   4.730  10.646  0.00  0.00    +0.000 N 
ATOM     11  H   UNL     1      46.033   5.242  10.224  0.00  0.00    +0.000 HD
BRANCH   9  12
ATOM     12  C   UNL     1      45.470   3.168   8.794  0.00  0.00    +0.000 A 
ATOM     13  C   UNL     1      45.846   4.090   7.808  0.00  0.00    +0.000 A 
ATOM     14  C   UNL     1      46.589   3.670   6.702  0.00  0.00    +0.000 A 
ATOM     15  C   UNL     1      46.944   2.327   6.576  0.00  0.00    +0.000 A 
ATOM     16 CL   UNL     1      47.884   1.811   5.229  0.00  0.00    +0.000 Cl
ATOM     17  C   UNL     1      46.545   1.395   7.536  0.00  0.00    +0.000 A 
ATOM     18  C   UNL     1      45.803   1.815   8.643  0.00  0.00    +0.000 A 
ENDBRANCH   9  12
ENDBRANCH   7  10
ENDBRANCH   1   7
BRANCH   4  19
ATOM     19  C   UNL     1      47.963   9.230  14.520  0.00  0.00    +0.000 C 
BRANCH  19  20
ATOM     20  N   UNL     1      47.729   9.220  15.941  0.00  0.00    +0.000 N 
ATOM     21  C   UNL     1      48.628   8.644  16.803  0.00  0.00    +0.000 C 
ATOM     22  O   UNL     1      49.688   8.161  16.411  0.00  0.00    +0.000 OA
ATOM     23  H   UNL     1      46.778   9.390  16.255  0.00  0.00    +0.000 HD
BRANCH  21  24
ATOM     24  C   UNL     1      48.292   8.688  18.231  0.00  0.00    +0.000 A 
ATOM     25  C   UNL     1      48.306   9.901  18.907  0.00  0.00    +0.000 A 
ATOM     26  S   UNL     1      47.843   9.778  20.545  0.00  0.00    +0.000 S 
ATOM     27  C   UNL     1      47.660   8.092  20.422  0.00  0.00    +0.000 A 
ATOM     28  N   UNL     1      47.296   7.347  21.501  0.00  0.00    +0.000 NA
ATOM     29  C   UNL     1      47.228   6.077  21.274  0.00  0.00    +0.000 A 
ATOM     30  N   UNL     1      47.484   5.485  20.065  0.00  0.00    +0.000 N 
ATOM     31  C   UNL     1      47.823   6.199  18.941  0.00  0.00    +0.000 A 
ATOM     32  O   UNL     1      48.001   5.642  17.862  0.00  0.00    +0.000 OA
ATOM     33  C   UNL     1      47.927   7.631  19.145  0.00  0.00    +0.000 A 
ATOM     34  H   UNL     1      47.402   4.486  19.950  0.00  0.00    +0.000 HD
ENDBRANCH  21  24
ENDBRANCH  19  20
ENDBRANCH   4  19
TORSDOF 6
ENDMDL
MODEL 3
REMARK VINA RESULT:    -7.340      5.946      7.471
REMARK INTER + INTRA:         -10.771
REMARK INTER:                  -9.750
REMARK INTRA:                  -1.021
REMARK UNBOUND:                -0.856
REMARK  Name = 
REMARK  6 active torsions:
REMARK  status: ('A' for Active; 'I' for Inactive)
REMARK    1  A    between atoms: C_2  and  C_25
REMARK    2  A    between atoms: N_3  and  C_4
REMARK    3  A    between atoms: C_4  and  C_5
REMARK    4  A    between atoms: C_8  and  C_9
REMARK    5  A    between atoms: C_9  and  N_10
REMARK    6  A    between atoms: C_11  and  C_13
REMARK                            x       y       z     vdW  Elec       q    Type
REMARK                         _______ _______ _______ _____ _____    ______ ____
ROOT
ATOM      1  C   UNL     1      44.930   9.232  11.880  0.00  0.00    +0.000 A 
ATOM      2  C   UNL     1      44.319   8.096  11.330  0.00  0.00    +0.000 A 
ATOM      3  C   UNL     1      44.701   6.812  11.734  0.00  0.00    +0.000 A 
ATOM      4  C   UNL     1      45.689   6.637  12.712  0.00  0.00    +0.000 A 
ATOM      5  C   UNL     1      46.304   7.773  13.257  0.00  0.00    +0.000 A 
ATOM      6  C   UNL     1      45.920   9.057  12.855  0.00  0.00    +0.000 A 
ENDROOT
BRANCH   1   7
ATOM      7  C   UNL     1      44.502  10.613  11.455  0.00  0.00    +0.000 C 
BRANCH   7  10
ATOM      8  O   UNL     1      42.318  10.573   9.693  0.00  0.00    +0.000 OA
ATOM      9  C   UNL     1      42.123  10.802  10.878  0.00  0.00    +0.000 C 
ATOM     10  N   UNL     1      43.128  10.868  11.822  0.00  0.00    +0.000 N 
ATOM     11  H   UNL     1      42.897  10.851  12.804  0.00  0.00    +0.000 HD
BRANCH   9  12
ATOM     12  C   UNL     1      40.737  10.974  11.395  0.00  0.00    +0.000 A 
ATOM     13  C   UNL     1      40.543  11.685  12.588  0.00  0.00    +0.000 A 
ATOM     14  C   UNL     1      39.251  11.899  13.075  0.00  0.00    +0.000 A 
ATOM     15  C   UNL     1      38.155  11.391  12.376  0.00  0.00    +0.000 A 
ATOM     16 CL   UNL     1      36.560  11.677  12.957  0.00  0.00    +0.000 Cl
ATOM     17  C   UNL     1      38.341  10.652  11.206  0.00  0.00    +0.000 A 
ATOM     18  C   UNL     1      39.633  10.440  10.718  0.00  0.00    +0.000 A 
ENDBRANCH   9  12
ENDBRANCH   7  10
ENDBRANCH   1   7
BRANCH   4  19
ATOM     19  C   UNL     1      46.105   5.259  13.156  0.00  0.00    +0.000 C 
BRANCH  19  20
ATOM     20  N   UNL     1      46.715   5.282  14.461  0.00  0.00    +0.000 N 
ATOM     21  C   UNL     1      47.302   4.159  14.989  0.00  0.00    +0.000 C 
ATOM     22  O   UNL     1      47.377   3.107  14.358  0.00  0.00    +0.000 OA
ATOM     23  H   UNL     1      46.459   6.047  15.078  0.00  0.00    +0.000 HD
BRANCH  21  24
ATOM     24  C   UNL     1      47.894   4.293  16.325  0.00  0.00    +0.000 A 
ATOM     25  C   UNL     1      47.506   3.430  17.342  0.00  0.00    +0.000 A 
ATOM     26  S   UNL     1      48.328   3.693  18.814  0.00  0.00    +0.000 S 
ATOM     27  C   UNL     1      49.191   5.005  18.160  0.00  0.00    +0.000 A 
ATOM     28  N   UNL     1      50.071   5.712  18.919  0.00  0.00    +0.000 NA
ATOM     29  C   UNL     1      50.629   6.702  18.305  0.00  0.00    +0.000 A 
ATOM     30  N   UNL     1      50.394   7.044  16.999  0.00  0.00    +0.000 N 
ATOM     31  C   UNL     1      49.538   6.341  16.186  0.00  0.00    +0.000 A 
ATOM     32  O   UNL     1      49.385   6.646  15.007  0.00  0.00    +0.000 OA
ATOM     33  C   UNL     1      48.873   5.226  16.832  0.00  0.00    +0.000 A 
ATOM     34  H   UNL     1      50.872   7.824  16.575  0.00  0.00    +0.000 HD
ENDBRANCH  21  24
ENDBRANCH  19  20
ENDBRANCH   4  19
TORSDOF 6
ENDMDL
MODEL 4
REMARK VINA RESULT:    -7.268      2.606      3.003
REMARK INTER + INTRA:         -10.674
REMARK INTER:                  -9.601
REMARK INTRA:                  -1.073
REMARK UNBOUND:                -0.856
REMARK  Name = 
REMARK  6 active torsions:
REMARK  status: ('A' for Active; 'I' for Inactive)
REMARK    1  A    between atoms: C_2  and  C_25
REMARK    2  A    between atoms: N_3  and  C_4
REMARK    3  A    between atoms: C_4  and  C_5
REMARK    4  A    between atoms: C_8  and  C_9
REMARK    5  A    between atoms: C_9  and  N_10
REMARK    6  A    between atoms: C_11  and  C_13
REMARK                            x       y       z     vdW  Elec       q    Type
REMARK                         _______ _______ _______ _____ _____    ______ ____
ROOT
ATOM      1  C   UNL     1      45.236   7.122  12.003  0.00  0.00    +0.000 A 
ATOM      2  C   UNL     1      45.086   8.483  12.306  0.00  0.00    +0.000 A 
ATOM      3  C   UNL     1      45.981   9.126  13.168  0.00  0.00    +0.000 A 
ATOM      4  C   UNL     1      47.057   8.426  13.731  0.00  0.00    +0.000 A 
ATOM      5  C   UNL     1      47.201   7.064  13.433  0.00  0.00    +0.000 A 
ATOM      6  C   UNL     1      46.309   6.422  12.569  0.00  0.00    +0.000 A 
ENDROOT
BRANCH   1   7
ATOM      7  C   UNL     1      44.280   6.439  11.059  0.00  0.00    +0.000 C 
BRANCH   7  10
ATOM      8  O   UNL     1      43.815   3.695  10.697  0.00  0.00    +0.000 OA
ATOM      9  C   UNL     1      44.664   4.250  10.015  0.00  0.00    +0.000 C 
ATOM     10  N   UNL     1      44.987   5.587  10.130  0.00  0.00    +0.000 N 
ATOM     11  H   UNL     1      45.537   6.035   9.412  0.00  0.00    +0.000 HD
BRANCH   9  12
ATOM     12  C   UNL     1      45.384   3.500   8.949  0.00  0.00    +0.000 A 
ATOM     13  C   UNL     1      45.954   4.215   7.886  0.00  0.00    +0.000 A 
ATOM     14  C   UNL     1      46.672   3.541   6.893  0.00  0.00    +0.000 A 
ATOM     15  C   UNL     1      46.808   2.155   6.958  0.00  0.00    +0.000 A 
ATOM     16 CL   UNL     1      47.715   1.325   5.753  0.00  0.00    +0.000 Cl
ATOM     17  C   UNL     1      46.214   1.431   7.994  0.00  0.00    +0.000 A 
ATOM     18  C   UNL     1      45.498   2.104   8.987  0.00  0.00    +0.000 A 
ENDBRANCH   9  12
ENDBRANCH   7  10
ENDBRANCH   1   7
BRANCH   4  19
ATOM     19  C   UNL     1      48.028   9.110  14.658  0.00  0.00    +0.000 C 
BRANCH  19  20
ATOM     20  N   UNL     1      48.162   8.400  15.905  0.00  0.00    +0.000 N 
ATOM     21  C   UNL     1      49.387   8.245  16.503  0.00  0.00    +0.000 C 
ATOM     22  O   UNL     1      50.408   8.742  16.034  0.00  0.00    +0.000 OA
ATOM     23  H   UNL     1      47.394   7.793  16.176  0.00  0.00    +0.000 HD
BRANCH  21  24
ATOM     24  C   UNL     1      49.411   7.505  17.770  0.00  0.00    +0.000 A 
ATOM     25  C   UNL     1      49.795   8.148  18.939  0.00  0.00    +0.000 A 
ATOM     26  S   UNL     1      49.719   7.156  20.325  0.00  0.00    +0.000 S 
ATOM     27  C   UNL     1      49.222   5.815  19.403  0.00  0.00    +0.000 A 
ATOM     28  N   UNL     1      49.000   4.607  19.988  0.00  0.00    +0.000 NA
ATOM     29  C   UNL     1      48.661   3.671  19.165  0.00  0.00    +0.000 A 
ATOM     30  N   UNL     1      48.516   3.834  17.812  0.00  0.00    +0.000 N 
ATOM     31  C   UNL     1      48.699   5.042  17.183  0.00  0.00    +0.000 A 
ATOM     32  O   UNL     1      48.516   5.165  15.975  0.00  0.00    +0.000 OA
ATOM     33  C   UNL     1      49.095   6.126  18.061  0.00  0.00    +0.000 A 
ATOM     34  H   UNL     1      48.237   3.063  17.225  0.00  0.00    +0.000 HD
ENDBRANCH  21  24
ENDBRANCH  19  20
ENDBRANCH   4  19
TORSDOF 6
ENDMDL
MODEL 5
REMARK VINA RESULT:    -7.189      2.762      3.934
REMARK INTER + INTRA:         -10.567
REMARK INTER:                  -9.625
REMARK INTRA:                  -0.942
REMARK UNBOUND:                -0.856
REMARK  Name = 
REMARK  6 active torsions:
REMARK  status: ('A' for Active; 'I' for Inactive)
REMARK    1  A    between atoms: C_2  and  C_25
REMARK    2  A    between atoms: N_3  and  C_4
REMARK    3  A    between atoms: C_4  and  C_5
REMARK    4  A    between atoms: C_8  and  C_9
REMARK    5  A    between atoms: C_9  and  N_10
REMARK    6  A    between atoms: C_11  and  C_13
REMARK                            x       y       z     vdW  Elec       q    Type
REMARK                         _______ _______ _______ _____ _____    ______ ____
ROOT
ATOM      1  C   UNL     1      45.545   4.270  12.936  0.00  0.00    +0.000 A 
ATOM      2  C   UNL     1      45.548   5.654  12.712  0.00  0.00    +0.000 A 
ATOM      3  C   UNL     1      46.427   6.490  13.409  0.00  0.00    +0.000 A 
ATOM      4  C   UNL     1      47.336   5.956  14.333  0.00  0.00    +0.000 A 
ATOM      5  C   UNL     1      47.328   4.573  14.562  0.00  0.00    +0.000 A 
ATOM      6  C   UNL     1      46.451   3.737  13.862  0.00  0.00    +0.000 A 
ENDROOT
BRANCH   1   7
ATOM      7  C   UNL     1      44.609   3.371  12.168  0.00  0.00    +0.000 C 
BRANCH   7  10
ATOM      8  O   UNL     1      43.935   4.344   9.624  0.00  0.00    +0.000 OA
ATOM      9  C   UNL     1      44.815   3.501   9.726  0.00  0.00    +0.000 C 
ATOM     10  N   UNL     1      45.206   2.940  10.925  0.00  0.00    +0.000 N 
ATOM     11  H   UNL     1      46.065   2.414  10.977  0.00  0.00    +0.000 HD
BRANCH   9  12
ATOM     12  C   UNL     1      45.577   3.057   8.525  0.00  0.00    +0.000 A 
ATOM     13  C   UNL     1      45.772   3.964   7.474  0.00  0.00    +0.000 A 
ATOM     14  C   UNL     1      46.519   3.588   6.354  0.00  0.00    +0.000 A 
ATOM     15  C   UNL     1      47.058   2.303   6.281  0.00  0.00    +0.000 A 
ATOM     16 CL   UNL     1      48.002   1.846   4.916  0.00  0.00    +0.000 Cl
ATOM     17  C   UNL     1      46.839   1.382   7.307  0.00  0.00    +0.000 A 
ATOM     18  C   UNL     1      46.094   1.758   8.428  0.00  0.00    +0.000 A 
ENDBRANCH   9  12
ENDBRANCH   7  10
ENDBRANCH   1   7
BRANCH   4  19
ATOM     19  C   UNL     1      48.289   6.847  15.087  0.00  0.00    +0.000 C 
BRANCH  19  20
ATOM     20  N   UNL     1      48.134   6.704  16.512  0.00  0.00    +0.000 N 
ATOM     21  C   UNL     1      49.083   6.060  17.267  0.00  0.00    +0.000 C 
ATOM     22  O   UNL     1      50.121   5.625  16.773  0.00  0.00    +0.000 OA
ATOM     23  H   UNL     1      47.202   6.837  16.892  0.00  0.00    +0.000 HD
BRANCH  21  24
ATOM     24  C   UNL     1      48.827   5.970  18.709  0.00  0.00    +0.000 A 
ATOM     25  C   UNL     1      49.111   4.794  19.389  0.00  0.00    +0.000 A 
ATOM     26  S   UNL     1      48.800   4.878  21.065  0.00  0.00    +0.000 S 
ATOM     27  C   UNL     1      48.222   6.473  20.931  0.00  0.00    +0.000 A 
ATOM     28  N   UNL     1      47.761   7.144  22.021  0.00  0.00    +0.000 NA
ATOM     29  C   UNL     1      47.321   8.332  21.768  0.00  0.00    +0.000 A 
ATOM     30  N   UNL     1      47.308   8.913  20.528  0.00  0.00    +0.000 N 
ATOM     31  C   UNL     1      47.792   8.286  19.405  0.00  0.00    +0.000 A 
ATOM     32  O   UNL     1      47.808   8.852  18.316  0.00  0.00    +0.000 OA
ATOM     33  C   UNL     1      48.286   6.941  19.631  0.00  0.00    +0.000 A 
ATOM     34  H   UNL     1      46.961   9.852  20.400  0.00  0.00    +0.000 HD
ENDBRANCH  21  24
ENDBRANCH  19  20
ENDBRANCH   4  19
TORSDOF 6
ENDMDL
MODEL 6
REMARK VINA RESULT:    -7.150      4.070      9.556
REMARK INTER + INTRA:         -10.514
REMARK INTER:                  -9.462
REMARK INTRA:                  -1.052
REMARK UNBOUND:                -0.856
REMARK  Name = 
REMARK  6 active torsions:
REMARK  status: ('A' for Active; 'I' for Inactive)
REMARK    1  A    between atoms: C_2  and  C_25
REMARK    2  A    between atoms: N_3  and  C_4
REMARK    3  A    between atoms: C_4  and  C_5
REMARK    4  A    between atoms: C_8  and  C_9
REMARK    5  A    between atoms: C_9  and  N_10
REMARK    6  A    between atoms: C_11  and  C_13
REMARK                            x       y       z     vdW  Elec       q    Type
REMARK                         _______ _______ _______ _____ _____    ______ ____
ROOT
ATOM      1  C   UNL     1      50.234   7.670  15.166  0.00  0.00    +0.000 A 
ATOM      2  C   UNL     1      50.710   8.098  13.919  0.00  0.00    +0.000 A 
ATOM      3  C   UNL     1      49.864   8.134  12.804  0.00  0.00    +0.000 A 
ATOM      4  C   UNL     1      48.518   7.761  12.919  0.00  0.00    +0.000 A 
ATOM      5  C   UNL     1      48.045   7.326  14.165  0.00  0.00    +0.000 A 
ATOM      6  C   UNL     1      48.890   7.294  15.280  0.00  0.00    +0.000 A 
ENDROOT
BRANCH   1   7
ATOM      7  C   UNL     1      51.144   7.651  16.368  0.00  0.00    +0.000 C 
BRANCH   7  10
ATOM      8  O   UNL     1      50.264   5.846  18.327  0.00  0.00    +0.000 OA
ATOM      9  C   UNL     1      51.163   5.511  17.569  0.00  0.00    +0.000 C 
ATOM     10  N   UNL     1      51.686   6.330  16.589  0.00  0.00    +0.000 N 
ATOM     11  H   UNL     1      52.272   5.939  15.867  0.00  0.00    +0.000 HD
BRANCH   9  12
ATOM     12  C   UNL     1      51.728   4.134  17.631  0.00  0.00    +0.000 A 
ATOM     13  C   UNL     1      53.096   3.975  17.890  0.00  0.00    +0.000 A 
ATOM     14  C   UNL     1      53.645   2.694  17.995  0.00  0.00    +0.000 A 
ATOM     15  C   UNL     1      52.829   1.575  17.828  0.00  0.00    +0.000 A 
ATOM     16 CL   UNL     1      53.496  -0.004  17.985  0.00  0.00    +0.000 Cl
ATOM     17  C   UNL     1      51.472   1.724  17.535  0.00  0.00    +0.000 A 
ATOM     18  C   UNL     1      50.922   3.005  17.431  0.00  0.00    +0.000 A 
ENDBRANCH   9  12
ENDBRANCH   7  10
ENDBRANCH   1   7
BRANCH   4  19
ATOM     19  C   UNL     1      47.599   7.799  11.726  0.00  0.00    +0.000 C 
BRANCH  19  20
ATOM     20  N   UNL     1      46.898   6.552  11.556  0.00  0.00    +0.000 N 
ATOM     21  C   UNL     1      45.526   6.502  11.574  0.00  0.00    +0.000 C 
ATOM     22  O   UNL     1      44.840   7.516  11.683  0.00  0.00    +0.000 OA
ATOM     23  H   UNL     1      47.428   5.698  11.703  0.00  0.00    +0.000 HD
BRANCH  21  24
ATOM     24  C   UNL     1      44.913   5.181  11.392  0.00  0.00    +0.000 A 
ATOM     25  C   UNL     1      44.185   4.609  12.426  0.00  0.00    +0.000 A 
ATOM     26  S   UNL     1      43.502   3.096  12.029  0.00  0.00    +0.000 S 
ATOM     27  C   UNL     1      44.200   3.129  10.478  0.00  0.00    +0.000 A 
ATOM     28  N   UNL     1      44.026   2.095   9.611  0.00  0.00    +0.000 NA
ATOM     29  C   UNL     1      44.641   2.236   8.483  0.00  0.00    +0.000 A 
ATOM     30  N   UNL     1      45.407   3.320   8.141  0.00  0.00    +0.000 N 
ATOM     31  C   UNL     1      45.585   4.400   8.972  0.00  0.00    +0.000 A 
ATOM     32  O   UNL     1      46.240   5.375   8.617  0.00  0.00    +0.000 OA
ATOM     33  C   UNL     1      44.927   4.285  10.259  0.00  0.00    +0.000 A 
ATOM     34  H   UNL     1      45.852   3.374   7.237  0.00  0.00    +0.000 HD
ENDBRANCH  21  24
ENDBRANCH  19  20
ENDBRANCH   4  19
TORSDOF 6
ENDMDL
MODEL 7
REMARK VINA RESULT:    -6.789      3.671      5.055
REMARK INTER + INTRA:         -10.026
REMARK INTER:                  -9.082
REMARK INTRA:                  -0.944
REMARK UNBOUND:                -0.856
REMARK  Name = 
REMARK  6 active torsions:
REMARK  status: ('A' for Active; 'I' for Inactive)
REMARK    1  A    between atoms: C_2  and  C_25
REMARK    2  A    between atoms: N_3  and  C_4
REMARK    3  A    between atoms: C_4  and  C_5
REMARK    4  A    between atoms: C_8  and  C_9
REMARK    5  A    between atoms: C_9  and  N_10
REMARK    6  A    between atoms: C_11  and  C_13
REMARK                            x       y       z     vdW  Elec       q    Type
REMARK                         _______ _______ _______ _____ _____    ______ ____
ROOT
ATOM      1  C   UNL     1      45.749   7.360  12.347  0.00  0.00    +0.000 A 
ATOM      2  C   UNL     1      46.668   6.492  12.953  0.00  0.00    +0.000 A 
ATOM      3  C   UNL     1      47.582   6.966  13.900  0.00  0.00    +0.000 A 
ATOM      4  C   UNL     1      47.583   8.316  14.277  0.00  0.00    +0.000 A 
ATOM      5  C   UNL     1      46.668   9.184  13.666  0.00  0.00    +0.000 A 
ATOM      6  C   UNL     1      45.752   8.710  12.721  0.00  0.00    +0.000 A 
ENDROOT
BRANCH   1   7
ATOM      7  C   UNL     1      44.754   6.841  11.341  0.00  0.00    +0.000 C 
BRANCH   7  10
ATOM      8  O   UNL     1      43.485   4.488  10.488  0.00  0.00    +0.000 OA
ATOM      9  C   UNL     1      44.627   4.718  10.115  0.00  0.00    +0.000 C 
ATOM     10  N   UNL     1      45.348   5.832  10.495  0.00  0.00    +0.000 N 
ATOM     11  H   UNL     1      46.193   6.076  10.000  0.00  0.00    +0.000 HD
BRANCH   9  12
ATOM     12  C   UNL     1      45.306   3.804   9.155  0.00  0.00    +0.000 A 
ATOM     13  C   UNL     1      45.214   2.420   9.358  0.00  0.00    +0.000 A 
ATOM     14  C   UNL     1      45.805   1.537   8.449  0.00  0.00    +0.000 A 
ATOM     15  C   UNL     1      46.497   2.039   7.347  0.00  0.00    +0.000 A 
ATOM     16 CL   UNL     1      47.202   0.956   6.211  0.00  0.00    +0.000 Cl
ATOM     17  C   UNL     1      46.624   3.417   7.156  0.00  0.00    +0.000 A 
ATOM     18  C   UNL     1      46.032   4.300   8.063  0.00  0.00    +0.000 A 
ENDBRANCH   9  12
ENDBRANCH   7  10
ENDBRANCH   1   7
BRANCH   4  19
ATOM     19  C   UNL     1      48.561   8.835  15.298  0.00  0.00    +0.000 C 
BRANCH  19  20
ATOM     20  N   UNL     1      48.160   8.496  16.640  0.00  0.00    +0.000 N 
ATOM     21  C   UNL     1      49.072   8.040  17.558  0.00  0.00    +0.000 C 
ATOM     22  O   UNL     1      50.269   7.949  17.296  0.00  0.00    +0.000 OA
ATOM     23  H   UNL     1      47.169   8.337  16.800  0.00  0.00    +0.000 HD
BRANCH  21  24
ATOM     24  C   UNL     1      48.556   7.722  18.895  0.00  0.00    +0.000 A 
ATOM     25  C   UNL     1      48.714   6.443  19.411  0.00  0.00    +0.000 A 
ATOM     26  S   UNL     1      48.102   6.261  20.993  0.00  0.00    +0.000 S 
ATOM     27  C   UNL     1      47.555   7.872  21.024  0.00  0.00    +0.000 A 
ATOM     28  N   UNL     1      46.901   8.368  22.109  0.00  0.00    +0.000 NA
ATOM     29  C   UNL     1      46.512   9.594  21.982  0.00  0.00    +0.000 A 
ATOM     30  N   UNL     1      46.725  10.370  20.873  0.00  0.00    +0.000 N 
ATOM     31  C   UNL     1      47.408   9.921  19.768  0.00  0.00    +0.000 A 
ATOM     32  O   UNL     1      47.621  10.658  18.809  0.00  0.00    +0.000 OA
ATOM     33  C   UNL     1      47.854   8.545  19.853  0.00  0.00    +0.000 A 
ATOM     34  H   UNL     1      46.405  11.326  20.842  0.00  0.00    +0.000 HD
ENDBRANCH  21  24
ENDBRANCH  19  20
ENDBRANCH   4  19
TORSDOF 6
ENDMDL
MODEL 8
REMARK VINA RESULT:    -6.651      2.062      2.904
REMARK INTER + INTRA:          -9.841
REMARK INTER:                  -8.803
REMARK INTRA:                  -1.038
REMARK UNBOUND:                -0.856
REMARK  Name = 
REMARK  6 active torsions:
REMARK  status: ('A' for Active; 'I' for Inactive)
REMARK    1  A    between atoms: C_2  and  C_25
REMARK    2  A    between atoms: N_3  and  C_4
REMARK    3  A    between atoms: C_4  and  C_5
REMARK    4  A    between atoms: C_8  and  C_9
REMARK    5  A    between atoms: C_9  and  N_10
REMARK    6  A    between atoms: C_11  and  C_13
REMARK                            x       y       z     vdW  Elec       q    Type
REMARK                         _______ _______ _______ _____ _____    ______ ____
ROOT
ATOM      1  C   UNL     1      48.026   8.014  13.895  0.00  0.00    +0.000 A 
ATOM      2  C   UNL     1      48.330   6.735  14.382  0.00  0.00    +0.000 A 
ATOM      3  C   UNL     1      48.860   6.565  15.666  0.00  0.00    +0.000 A 
ATOM      4  C   UNL     1      49.077   7.671  16.499  0.00  0.00    +0.000 A 
ATOM      5  C   UNL     1      48.779   8.950  16.009  0.00  0.00    +0.000 A 
ATOM      6  C   UNL     1      48.247   9.119  14.726  0.00  0.00    +0.000 A 
ENDROOT
BRANCH   1   7
ATOM      7  C   UNL     1      47.439   8.189  12.518  0.00  0.00    +0.000 C 
BRANCH   7  10
ATOM      8  O   UNL     1      44.878   7.684  11.488  0.00  0.00    +0.000 OA
ATOM      9  C   UNL     1      45.712   6.790  11.476  0.00  0.00    +0.000 C 
ATOM     10  N   UNL     1      46.990   6.926  11.979  0.00  0.00    +0.000 N 
ATOM     11  H   UNL     1      47.693   6.237  11.759  0.00  0.00    +0.000 HD
BRANCH   9  12
ATOM     12  C   UNL     1      45.401   5.476  10.848  0.00  0.00    +0.000 A 
ATOM     13  C   UNL     1      45.570   5.330   9.464  0.00  0.00    +0.000 A 
ATOM     14  C   UNL     1      45.326   4.096   8.854  0.00  0.00    +0.000 A 
ATOM     15  C   UNL     1      44.902   3.015   9.625  0.00  0.00    +0.000 A 
ATOM     16 CL   UNL     1      44.629   1.486   8.882  0.00  0.00    +0.000 Cl
ATOM     17  C   UNL     1      44.698   3.159  10.999  0.00  0.00    +0.000 A 
ATOM     18  C   UNL     1      44.943   4.392  11.610  0.00  0.00    +0.000 A 
ENDBRANCH   9  12
ENDBRANCH   7  10
ENDBRANCH   1   7
BRANCH   4  19
ATOM     19  C   UNL     1      49.643   7.499  17.885  0.00  0.00    +0.000 C 
BRANCH  19  20
ATOM     20  N   UNL     1      50.546   6.379  17.954  0.00  0.00    +0.000 N 
ATOM     21  C   UNL     1      50.923   5.846  19.161  0.00  0.00    +0.000 C 
ATOM     22  O   UNL     1      50.471   6.263  20.226  0.00  0.00    +0.000 OA
ATOM     23  H   UNL     1      51.103   6.181  17.127  0.00  0.00    +0.000 HD
BRANCH  21  24
ATOM     24  C   UNL     1      51.847   4.706  19.118  0.00  0.00    +0.000 A 
ATOM     25  C   UNL     1      53.045   4.761  19.818  0.00  0.00    +0.000 A 
ATOM     26  S   UNL     1      53.974   3.335  19.699  0.00  0.00    +0.000 S 
ATOM     27  C   UNL     1      52.833   2.615  18.663  0.00  0.00    +0.000 A 
ATOM     28  N   UNL     1      53.036   1.368  18.158  0.00  0.00    +0.000 NA
ATOM     29  C   UNL     1      52.107   0.959  17.359  0.00  0.00    +0.000 A 
ATOM     30  N   UNL     1      50.990   1.680  17.025  0.00  0.00    +0.000 N 
ATOM     31  C   UNL     1      50.728   2.928  17.535  0.00  0.00    +0.000 A 
ATOM     32  O   UNL     1      49.696   3.528  17.252  0.00  0.00    +0.000 OA
ATOM     33  C   UNL     1      51.749   3.441  18.428  0.00  0.00    +0.000 A 
ATOM     34  H   UNL     1      50.295   1.297  16.403  0.00  0.00    +0.000 HD
ENDBRANCH  21  24
ENDBRANCH  19  20
ENDBRANCH   4  19
TORSDOF 6
ENDMDL
MODEL 9
REMARK VINA RESULT:    -6.510      6.211      7.370
REMARK INTER + INTRA:          -9.650
REMARK INTER:                  -8.787
REMARK INTRA:                  -0.863
REMARK UNBOUND:                -0.856
REMARK  Name = 
REMARK  6 active torsions:
REMARK  status: ('A' for Active; 'I' for Inactive)
REMARK    1  A    between atoms: C_2  and  C_25
REMARK    2  A    between atoms: N_3  and  C_4
REMARK    3  A    between atoms: C_4  and  C_5
REMARK    4  A    between atoms: C_8  and  C_9
REMARK    5  A    between atoms: C_9  and  N_10
REMARK    6  A    between atoms: C_11  and  C_13
REMARK                            x       y       z     vdW  Elec       q    Type
REMARK                         _______ _______ _______ _____ _____    ______ ____
ROOT
ATOM      1  C   UNL     1      44.661   9.582  11.472  0.00  0.00    +0.000 A 
ATOM      2  C   UNL     1      45.745   9.529  12.359  0.00  0.00    +0.000 A 
ATOM      3  C   UNL     1      46.230   8.301  12.822  0.00  0.00    +0.000 A 
ATOM      4  C   UNL     1      45.653   7.098  12.392  0.00  0.00    +0.000 A 
ATOM      5  C   UNL     1      44.565   7.153  11.511  0.00  0.00    +0.000 A 
ATOM      6  C   UNL     1      44.082   8.380  11.045  0.00  0.00    +0.000 A 
ENDROOT
BRANCH   1   7
ATOM      7  C   UNL     1      44.154  10.906  10.961  0.00  0.00    +0.000 C 
BRANCH   7  10
ATOM      8  O   UNL     1      42.276  11.023   8.879  0.00  0.00    +0.000 OA
ATOM      9  C   UNL     1      41.884  11.045  10.037  0.00  0.00    +0.000 C 
ATOM     10  N   UNL     1      42.723  11.016  11.132  0.00  0.00    +0.000 N 
ATOM     11  H   UNL     1      42.347  10.827  12.049  0.00  0.00    +0.000 HD
BRANCH   9  12
ATOM     12  C   UNL     1      40.426  11.049  10.339  0.00  0.00    +0.000 A 
ATOM     13  C   UNL     1      39.933  10.163  11.308  0.00  0.00    +0.000 A 
ATOM     14  C   UNL     1      38.576  10.174  11.643  0.00  0.00    +0.000 A 
ATOM     15  C   UNL     1      37.712  11.061  11.000  0.00  0.00    +0.000 A 
ATOM     16 CL   UNL     1      36.046  11.097  11.431  0.00  0.00    +0.000 Cl
ATOM     17  C   UNL     1      38.187  11.922  10.010  0.00  0.00    +0.000 A 
ATOM     18  C   UNL     1      39.544  11.913   9.676  0.00  0.00    +0.000 A 
ENDBRANCH   9  12
ENDBRANCH   7  10
ENDBRANCH   1   7
BRANCH   4  19
ATOM     19  C   UNL     1      46.170   5.771  12.883  0.00  0.00    +0.000 C 
BRANCH  19  20
ATOM     20  N   UNL     1      46.774   5.885  14.186  0.00  0.00    +0.000 N 
ATOM     21  C   UNL     1      48.129   6.052  14.327  0.00  0.00    +0.000 C 
ATOM     22  O   UNL     1      48.875   6.162  13.357  0.00  0.00    +0.000 OA
ATOM     23  H   UNL     1      46.227   5.564  14.980  0.00  0.00    +0.000 HD
BRANCH  21  24
ATOM     24  C   UNL     1      48.640   6.157  15.699  0.00  0.00    +0.000 A 
ATOM     25  C   UNL     1      49.451   7.227  16.055  0.00  0.00    +0.000 A 
ATOM     26  S   UNL     1      49.915   7.219  17.697  0.00  0.00    +0.000 S 
ATOM     27  C   UNL     1      49.092   5.757  17.977  0.00  0.00    +0.000 A 
ATOM     28  N   UNL     1      49.110   5.168  19.204  0.00  0.00    +0.000 NA
ATOM     29  C   UNL     1      48.474   4.045  19.265  0.00  0.00    +0.000 A 
ATOM     30  N   UNL     1      47.816   3.461  18.215  0.00  0.00    +0.000 N 
ATOM     31  C   UNL     1      47.745   4.034  16.967  0.00  0.00    +0.000 A 
ATOM     32  O   UNL     1      47.108   3.507  16.060  0.00  0.00    +0.000 OA
ATOM     33  C   UNL     1      48.456   5.291  16.840  0.00  0.00    +0.000 A 
ATOM     34  H   UNL     1      47.327   2.587  18.332  0.00  0.00    +0.000 HD
ENDBRANCH  21  24
ENDBRANCH  19  20
ENDBRANCH   4  19
TORSDOF 6
ENDMDL
