MODEL 1
REMARK VINA RESULT:    -8.549      0.000      0.000
REMARK INTER + INTRA:         -13.123
REMARK INTER:                 -12.047
REMARK INTRA:                  -1.075
REMARK UNBOUND:                -1.075
REMARK  Name = 
REMARK  8 active torsions:
REMARK  status: ('A' for Active; 'I' for Inactive)
REMARK    1  A    between atoms: C_1  and  C_2
REMARK    2  A    between atoms: C_2  and  C_3
REMARK    3  A    between atoms: C_2  and  C_14
REMARK    4  A    between atoms: C_3  and  O_4
REMARK    5  A    between atoms: O_4  and  C_5
REMARK    6  A    between atoms: C_8  and  C_9
REMARK    7  A    between atoms: C_18  and  O_19
REMARK    8  A    between atoms: O_19  and  C_20
REMARK                            x       y       z     vdW  Elec       q    Type
REMARK                         _______ _______ _______ _____ _____    ______ ____
ROOT
ATOM      1  C   UNL     1      42.892   5.322  12.029  0.00  0.00    +0.000 C 
ATOM      2  C   UNL     1      43.908   4.313  12.579  0.00  0.00    +0.000 C 
ENDROOT
BRANCH   2   3
ATOM      3  C   UNL     1      45.259   4.967  12.832  0.00  0.00    +0.000 A 
ATOM      4  C   UNL     1      45.766   5.884  11.901  0.00  0.00    +0.000 A 
ATOM      5  C   UNL     1      47.019   6.473  12.086  0.00  0.00    +0.000 A 
ATOM      6  C   UNL     1      47.789   6.157  13.207  0.00  0.00    +0.000 A 
ATOM      7  C   UNL     1      47.300   5.255  14.149  0.00  0.00    +0.000 A 
ATOM      8  C   UNL     1      46.036   4.677  13.968  0.00  0.00    +0.000 A 
BRANCH   7   9
ATOM      9  O   UNL     1      47.962   4.896  15.298  0.00  0.00    +0.000 OA
BRANCH   9  10
ATOM     10  C   UNL     1      47.248   4.149  16.314  0.00  0.00    +0.000 C 
ATOM     11  C   UNL     1      47.205   4.734  17.739  0.00  0.00    +0.000 C 
ATOM     12  N   UNL     1      47.713   3.471  18.294  0.00  0.00    +0.000 NA
ATOM     13  C   UNL     1      48.041   2.985  16.946  0.00  0.00    +0.000 C 
ATOM     14  H   UNL     1      47.010   2.912  18.779  0.00  0.00    +0.000 HD
ENDBRANCH   9  10
ENDBRANCH   7   9
ENDBRANCH   2   3
BRANCH   2  15
ATOM     15  C   UNL     1      44.016   3.081  11.666  0.00  0.00    +0.000 C 
BRANCH  15  16
ATOM     16  O   UNL     1      43.612   3.442  10.334  0.00  0.00    +0.000 OA
BRANCH  16  17
ATOM     17  C   UNL     1      44.579   3.160   9.391  0.00  0.00    +0.000 A 
ATOM     18  C   UNL     1      45.140   4.230   8.711  0.00  0.00    +0.000 A 
ATOM     19  C   UNL     1      46.132   3.967   7.764  0.00  0.00    +0.000 A 
ATOM     20  C   UNL     1      46.530   2.646   7.525  0.00  0.00    +0.000 A 
ATOM     21  C   UNL     1      45.900   1.652   8.255  0.00  0.00    +0.000 A 
ATOM     22  N   UNL     1      44.937   1.877   9.179  0.00  0.00    +0.000 NA
BRANCH  20  23
ATOM     23  C   UNL     1      47.588   2.369   6.523  0.00  0.00    +0.000 C 
ATOM     24  N   UNL     1      47.552   3.022   5.322  0.00  0.00    +0.000 N 
ATOM     25  O   UNL     1      48.483   1.565   6.757  0.00  0.00    +0.000 OA
ATOM     26  H   UNL     1      46.857   3.689   5.024  0.00  0.00    +0.000 HD
ATOM     27  H   UNL     1      48.287   2.797   4.663  0.00  0.00    +0.000 HD
ENDBRANCH  20  23
ENDBRANCH  16  17
ENDBRANCH  15  16
ENDBRANCH   2  15
TORSDOF 7
ENDMDL
MODEL 2
REMARK VINA RESULT:    -7.377      2.806      4.292
REMARK INTER + INTRA:         -11.471
REMARK INTER:                 -10.714
REMARK INTRA:                  -0.757
REMARK UNBOUND:                -1.075
REMARK  Name = 
REMARK  8 active torsions:
REMARK  status: ('A' for Active; 'I' for Inactive)
REMARK    1  A    between atoms: C_1  and  C_2
REMARK    2  A    between atoms: C_2  and  C_3
REMARK    3  A    between atoms: C_2  and  C_14
REMARK    4  A    between atoms: C_3  and  O_4
REMARK    5  A    between atoms: O_4  and  C_5
REMARK    6  A    between atoms: C_8  and  C_9
REMARK    7  A    between atoms: C_18  and  O_19
REMARK    8  A    between atoms: O_19  and  C_20
REMARK                            x       y       z     vdW  Elec       q    Type
REMARK                         _______ _______ _______ _____ _____    ______ ____
ROOT
ATOM      1  C   UNL     1      42.572   5.298  11.955  0.00  0.00    +0.000 C 
ATOM      2  C   UNL     1      43.729   4.516  12.588  0.00  0.00    +0.000 C 
ENDROOT
BRANCH   2   3
ATOM      3  C   UNL     1      44.965   5.391  12.754  0.00  0.00    +0.000 A 
ATOM      4  C   UNL     1      46.057   4.907  13.487  0.00  0.00    +0.000 A 
ATOM      5  C   UNL     1      47.190   5.699  13.688  0.00  0.00    +0.000 A 
ATOM      6  C   UNL     1      47.253   6.989  13.160  0.00  0.00    +0.000 A 
ATOM      7  C   UNL     1      46.181   7.485  12.421  0.00  0.00    +0.000 A 
ATOM      8  C   UNL     1      45.052   6.684  12.208  0.00  0.00    +0.000 A 
BRANCH   7   9
ATOM      9  O   UNL     1      46.150   8.728  11.835  0.00  0.00    +0.000 OA
BRANCH   9  10
ATOM     10  C   UNL     1      44.959   9.540  11.977  0.00  0.00    +0.000 C 
ATOM     11  C   UNL     1      44.030   9.673  10.754  0.00  0.00    +0.000 C 
ATOM     12  N   UNL     1      44.080  11.139  10.851  0.00  0.00    +0.000 NA
ATOM     13  C   UNL     1      45.182  11.060  11.820  0.00  0.00    +0.000 C 
ATOM     14  H   UNL     1      43.229  11.565  11.220  0.00  0.00    +0.000 HD
ENDBRANCH   9  10
ENDBRANCH   7   9
ENDBRANCH   2   3
BRANCH   2  15
ATOM     15  C   UNL     1      44.025   3.227  11.803  0.00  0.00    +0.000 C 
BRANCH  15  16
ATOM     16  O   UNL     1      43.529   3.367  10.461  0.00  0.00    +0.000 OA
BRANCH  16  17
ATOM     17  C   UNL     1      44.504   3.148   9.510  0.00  0.00    +0.000 A 
ATOM     18  C   UNL     1      44.838   1.832   9.228  0.00  0.00    +0.000 A 
ATOM     19  C   UNL     1      45.811   1.589   8.256  0.00  0.00    +0.000 A 
ATOM     20  C   UNL     1      46.420   2.665   7.599  0.00  0.00    +0.000 A 
ATOM     21  C   UNL     1      46.017   3.939   7.961  0.00  0.00    +0.000 A 
ATOM     22  N   UNL     1      45.077   4.206   8.899  0.00  0.00    +0.000 NA
BRANCH  20  23
ATOM     23  C   UNL     1      47.448   2.405   6.563  0.00  0.00    +0.000 C 
ATOM     24  N   UNL     1      47.309   2.981   5.331  0.00  0.00    +0.000 N 
ATOM     25  O   UNL     1      48.410   1.682   6.796  0.00  0.00    +0.000 OA
ATOM     26  H   UNL     1      46.555   3.579   5.031  0.00  0.00    +0.000 HD
ATOM     27  H   UNL     1      48.028   2.771   4.649  0.00  0.00    +0.000 HD
ENDBRANCH  20  23
ENDBRANCH  16  17
ENDBRANCH  15  16
ENDBRANCH   2  15
TORSDOF 7
ENDMDL
MODEL 3
REMARK VINA RESULT:    -7.317      2.538      3.533
REMARK INTER + INTRA:         -11.387
REMARK INTER:                 -10.526
REMARK INTRA:                  -0.861
REMARK UNBOUND:                -1.075
REMARK  Name = 
REMARK  8 active torsions:
REMARK  status: ('A' for Active; 'I' for Inactive)
REMARK    1  A    between atoms: C_1  and  C_2
REMARK    2  A    between atoms: C_2  and  C_3
REMARK    3  A    between atoms: C_2  and  C_14
REMARK    4  A    between atoms: C_3  and  O_4
REMARK    5  A    between atoms: O_4  and  C_5
REMARK    6  A    between atoms: C_8  and  C_9
REMARK    7  A    between atoms: C_18  and  O_19
REMARK    8  A    between atoms: O_19  and  C_20
REMARK                            x       y       z     vdW  Elec       q    Type
REMARK                         _______ _______ _______ _____ _____    ______ ____
ROOT
ATOM      1  C   UNL     1      42.589   5.455  12.097  0.00  0.00    +0.000 C 
ATOM      2  C   UNL     1      43.572   4.373  12.560  0.00  0.00    +0.000 C 
ENDROOT
BRANCH   2   3
ATOM      3  C   UNL     1      44.944   4.963  12.860  0.00  0.00    +0.000 A 
ATOM      4  C   UNL     1      45.967   4.124  13.326  0.00  0.00    +0.000 A 
ATOM      5  C   UNL     1      47.225   4.640  13.645  0.00  0.00    +0.000 A 
ATOM      6  C   UNL     1      47.485   6.004  13.505  0.00  0.00    +0.000 A 
ATOM      7  C   UNL     1      46.485   6.853  13.036  0.00  0.00    +0.000 A 
ATOM      8  C   UNL     1      45.228   6.331  12.703  0.00  0.00    +0.000 A 
BRANCH   7   9
ATOM      9  O   UNL     1      46.643   8.203  12.836  0.00  0.00    +0.000 OA
BRANCH   9  10
ATOM     10  C   UNL     1      47.982   8.742  12.716  0.00  0.00    +0.000 C 
ATOM     11  C   UNL     1      48.459   9.729  13.800  0.00  0.00    +0.000 C 
ATOM     12  N   UNL     1      48.826  10.713  12.771  0.00  0.00    +0.000 NA
ATOM     13  C   UNL     1      48.123   9.932  11.744  0.00  0.00    +0.000 C 
ATOM     14  H   UNL     1      49.830  10.801  12.613  0.00  0.00    +0.000 HD
ENDBRANCH   9  10
ENDBRANCH   7   9
ENDBRANCH   2   3
BRANCH   2  15
ATOM     15  C   UNL     1      43.641   3.215  11.551  0.00  0.00    +0.000 C 
BRANCH  15  16
ATOM     16  O   UNL     1      43.415   3.727  10.227  0.00  0.00    +0.000 OA
BRANCH  16  17
ATOM     17  C   UNL     1      44.427   3.398   9.351  0.00  0.00    +0.000 A 
ATOM     18  C   UNL     1      44.826   2.070   9.304  0.00  0.00    +0.000 A 
ATOM     19  C   UNL     1      45.839   1.713   8.412  0.00  0.00    +0.000 A 
ATOM     20  C   UNL     1      46.421   2.691   7.596  0.00  0.00    +0.000 A 
ATOM     21  C   UNL     1      45.953   3.987   7.726  0.00  0.00    +0.000 A 
ATOM     22  N   UNL     1      44.973   4.363   8.582  0.00  0.00    +0.000 NA
BRANCH  20  23
ATOM     23  C   UNL     1      47.492   2.308   6.644  0.00  0.00    +0.000 C 
ATOM     24  N   UNL     1      47.729   3.104   5.557  0.00  0.00    +0.000 N 
ATOM     25  O   UNL     1      48.158   1.294   6.816  0.00  0.00    +0.000 OA
ATOM     26  H   UNL     1      47.235   3.949   5.315  0.00  0.00    +0.000 HD
ATOM     27  H   UNL     1      48.462   2.803   4.926  0.00  0.00    +0.000 HD
ENDBRANCH  20  23
ENDBRANCH  16  17
ENDBRANCH  15  16
ENDBRANCH   2  15
TORSDOF 7
ENDMDL
MODEL 4
REMARK VINA RESULT:    -7.181      1.926      8.441
REMARK INTER + INTRA:         -11.194
REMARK INTER:                 -10.567
REMARK INTRA:                  -0.627
REMARK UNBOUND:                -1.075
REMARK  Name = 
REMARK  8 active torsions:
REMARK  status: ('A' for Active; 'I' for Inactive)
REMARK    1  A    between atoms: C_1  and  C_2
REMARK    2  A    between atoms: C_2  and  C_3
REMARK    3  A    between atoms: C_2  and  C_14
REMARK    4  A    between atoms: C_3  and  O_4
REMARK    5  A    between atoms: O_4  and  C_5
REMARK    6  A    between atoms: C_8  and  C_9
REMARK    7  A    between atoms: C_18  and  O_19
REMARK    8  A    between atoms: O_19  and  C_20
REMARK                            x       y       z     vdW  Elec       q    Type
REMARK                         _______ _______ _______ _____ _____    ______ ____
ROOT
ATOM      1  C   UNL     1      44.484   7.322  11.547  0.00  0.00    +0.000 C 
ATOM      2  C   UNL     1      45.579   6.249  11.557  0.00  0.00    +0.000 C 
ENDROOT
BRANCH   2   3
ATOM      3  C   UNL     1      45.266   5.128  10.574  0.00  0.00    +0.000 A 
ATOM      4  C   UNL     1      44.380   4.109  10.951  0.00  0.00    +0.000 A 
ATOM      5  C   UNL     1      44.102   3.048  10.087  0.00  0.00    +0.000 A 
ATOM      6  C   UNL     1      44.703   2.986   8.829  0.00  0.00    +0.000 A 
ATOM      7  C   UNL     1      45.579   3.993   8.431  0.00  0.00    +0.000 A 
ATOM      8  C   UNL     1      45.846   5.064   9.295  0.00  0.00    +0.000 A 
BRANCH   7   9
ATOM      9  O   UNL     1      46.203   4.043   7.208  0.00  0.00    +0.000 OA
BRANCH   9  10
ATOM     10  C   UNL     1      46.621   2.804   6.583  0.00  0.00    +0.000 C 
ATOM     11  C   UNL     1      48.049   2.301   6.871  0.00  0.00    +0.000 C 
ATOM     12  N   UNL     1      48.322   2.195   5.430  0.00  0.00    +0.000 NA
ATOM     13  C   UNL     1      47.093   2.937   5.120  0.00  0.00    +0.000 C 
ATOM     14  H   UNL     1      48.334   1.239   5.073  0.00  0.00    +0.000 HD
ENDBRANCH   9  10
ENDBRANCH   7   9
ENDBRANCH   2   3
BRANCH   2  15
ATOM     15  C   UNL     1      45.832   5.725  12.980  0.00  0.00    +0.000 C 
BRANCH  15  16
ATOM     16  O   UNL     1      47.246   5.567  13.181  0.00  0.00    +0.000 OA
BRANCH  16  17
ATOM     17  C   UNL     1      47.571   5.316  14.498  0.00  0.00    +0.000 A 
ATOM     18  C   UNL     1      46.976   4.220  15.106  0.00  0.00    +0.000 A 
ATOM     19  C   UNL     1      47.303   3.940  16.434  0.00  0.00    +0.000 A 
ATOM     20  C   UNL     1      48.211   4.762  17.113  0.00  0.00    +0.000 A 
ATOM     21  C   UNL     1      48.742   5.833  16.415  0.00  0.00    +0.000 A 
ATOM     22  N   UNL     1      48.444   6.129  15.128  0.00  0.00    +0.000 NA
BRANCH  20  23
ATOM     23  C   UNL     1      48.563   4.459  18.521  0.00  0.00    +0.000 C 
ATOM     24  N   UNL     1      48.382   3.188  18.992  0.00  0.00    +0.000 N 
ATOM     25  O   UNL     1      49.006   5.329  19.263  0.00  0.00    +0.000 OA
ATOM     26  H   UNL     1      48.015   2.404  18.475  0.00  0.00    +0.000 HD
ATOM     27  H   UNL     1      48.626   3.025  19.962  0.00  0.00    +0.000 HD
ENDBRANCH  20  23
ENDBRANCH  16  17
ENDBRANCH  15  16
ENDBRANCH   2  15
TORSDOF 7
ENDMDL
MODEL 5
REMARK VINA RESULT:    -7.158      2.612      3.393
REMARK INTER + INTRA:         -11.162
REMARK INTER:                 -10.411
REMARK INTRA:                  -0.751
REMARK UNBOUND:                -1.075
REMARK  Name = 
REMARK  8 active torsions:
REMARK  status: ('A' for Active; 'I' for Inactive)
REMARK    1  A    between atoms: C_1  and  C_2
REMARK    2  A    between atoms: C_2  and  C_3
REMARK    3  A    between atoms: C_2  and  C_14
REMARK    4  A    between atoms: C_3  and  O_4
REMARK    5  A    between atoms: O_4  and  C_5
REMARK    6  A    between atoms: C_8  and  C_9
REMARK    7  A    between atoms: C_18  and  O_19
REMARK    8  A    between atoms: O_19  and  C_20
REMARK                            x       y       z     vdW  Elec       q    Type
REMARK                         _______ _______ _______ _____ _____    ______ ____
ROOT
ATOM      1  C   UNL     1      45.834   3.795  13.003  0.00  0.00    +0.000 C 
ATOM      2  C   UNL     1      45.475   4.665  11.793  0.00  0.00    +0.000 C 
ENDROOT
BRANCH   2   3
ATOM      3  C   UNL     1      45.892   6.114  12.007  0.00  0.00    +0.000 A 
ATOM      4  C   UNL     1      44.937   7.050  12.427  0.00  0.00    +0.000 A 
ATOM      5  C   UNL     1      45.279   8.393  12.597  0.00  0.00    +0.000 A 
ATOM      6  C   UNL     1      46.583   8.827  12.350  0.00  0.00    +0.000 A 
ATOM      7  C   UNL     1      47.548   7.911  11.939  0.00  0.00    +0.000 A 
ATOM      8  C   UNL     1      47.206   6.561  11.784  0.00  0.00    +0.000 A 
BRANCH   7   9
ATOM      9  O   UNL     1      48.864   8.225  11.696  0.00  0.00    +0.000 OA
BRANCH   9  10
ATOM     10  C   UNL     1      49.695   8.668  12.797  0.00  0.00    +0.000 C 
ATOM     11  C   UNL     1      51.220   8.498  12.659  0.00  0.00    +0.000 C 
ATOM     12  N   UNL     1      51.276   7.785  13.944  0.00  0.00    +0.000 NA
ATOM     13  C   UNL     1      49.812   7.670  13.969  0.00  0.00    +0.000 C 
ATOM     14  H   UNL     1      51.666   8.332  14.712  0.00  0.00    +0.000 HD
ENDBRANCH   9  10
ENDBRANCH   7   9
ENDBRANCH   2   3
BRANCH   2  15
ATOM     15  C   UNL     1      43.985   4.531  11.435  0.00  0.00    +0.000 C 
BRANCH  15  16
ATOM     16  O   UNL     1      43.822   4.711  10.018  0.00  0.00    +0.000 OA
BRANCH  16  17
ATOM     17  C   UNL     1      44.655   3.897   9.280  0.00  0.00    +0.000 A 
ATOM     18  C   UNL     1      45.506   4.508   8.371  0.00  0.00    +0.000 A 
ATOM     19  C   UNL     1      46.368   3.703   7.625  0.00  0.00    +0.000 A 
ATOM     20  C   UNL     1      46.354   2.315   7.808  0.00  0.00    +0.000 A 
ATOM     21  C   UNL     1      45.462   1.807   8.737  0.00  0.00    +0.000 A 
ATOM     22  N   UNL     1      44.614   2.563   9.474  0.00  0.00    +0.000 NA
BRANCH  20  23
ATOM     23  C   UNL     1      47.276   1.461   7.020  0.00  0.00    +0.000 C 
ATOM     24  N   UNL     1      48.425   2.010   6.523  0.00  0.00    +0.000 N 
ATOM     25  O   UNL     1      47.018   0.282   6.808  0.00  0.00    +0.000 OA
ATOM     26  H   UNL     1      48.726   2.966   6.626  0.00  0.00    +0.000 HD
ATOM     27  H   UNL     1      49.023   1.396   5.982  0.00  0.00    +0.000 HD
ENDBRANCH  20  23
ENDBRANCH  16  17
ENDBRANCH  15  16
ENDBRANCH   2  15
TORSDOF 7
ENDMDL
MODEL 6
REMARK VINA RESULT:    -7.057      2.176      2.657
REMARK INTER + INTRA:         -11.021
REMARK INTER:                 -10.197
REMARK INTRA:                  -0.824
REMARK UNBOUND:                -1.075
REMARK  Name = 
REMARK  8 active torsions:
REMARK  status: ('A' for Active; 'I' for Inactive)
REMARK    1  A    between atoms: C_1  and  C_2
REMARK    2  A    between atoms: C_2  and  C_3
REMARK    3  A    between atoms: C_2  and  C_14
REMARK    4  A    between atoms: C_3  and  O_4
REMARK    5  A    between atoms: O_4  and  C_5
REMARK    6  A    between atoms: C_8  and  C_9
REMARK    7  A    between atoms: C_18  and  O_19
REMARK    8  A    between atoms: O_19  and  C_20
REMARK                            x       y       z     vdW  Elec       q    Type
REMARK                         _______ _______ _______ _____ _____    ______ ____
ROOT
ATOM      1  C   UNL     1      44.915   4.290  13.177  0.00  0.00    +0.000 C 
ATOM      2  C   UNL     1      45.619   4.867  11.943  0.00  0.00    +0.000 C 
ENDROOT
BRANCH   2   3
ATOM      3  C   UNL     1      46.716   5.847  12.337  0.00  0.00    +0.000 A 
ATOM      4  C   UNL     1      47.130   6.821  11.418  0.00  0.00    +0.000 A 
ATOM      5  C   UNL     1      48.159   7.711  11.735  0.00  0.00    +0.000 A 
ATOM      6  C   UNL     1      48.793   7.644  12.977  0.00  0.00    +0.000 A 
ATOM      7  C   UNL     1      48.390   6.689  13.907  0.00  0.00    +0.000 A 
ATOM      8  C   UNL     1      47.347   5.807  13.592  0.00  0.00    +0.000 A 
BRANCH   7   9
ATOM      9  O   UNL     1      48.926   6.554  15.165  0.00  0.00    +0.000 OA
BRANCH   9  10
ATOM     10  C   UNL     1      50.191   7.197  15.461  0.00  0.00    +0.000 C 
ATOM     11  C   UNL     1      51.113   6.525  16.497  0.00  0.00    +0.000 C 
ATOM     12  N   UNL     1      51.203   7.780  17.258  0.00  0.00    +0.000 NA
ATOM     13  C   UNL     1      50.111   8.363  16.468  0.00  0.00    +0.000 C 
ATOM     14  H   UNL     1      52.095   8.266  17.162  0.00  0.00    +0.000 HD
ENDBRANCH   9  10
ENDBRANCH   7   9
ENDBRANCH   2   3
BRANCH   2  15
ATOM     15  C   UNL     1      44.607   5.484  10.963  0.00  0.00    +0.000 C 
BRANCH  15  16
ATOM     16  O   UNL     1      44.028   4.440  10.162  0.00  0.00    +0.000 OA
BRANCH  16  17
ATOM     17  C   UNL     1      44.921   3.911   9.254  0.00  0.00    +0.000 A 
ATOM     18  C   UNL     1      45.046   2.530   9.209  0.00  0.00    +0.000 A 
ATOM     19  C   UNL     1      45.933   1.975   8.285  0.00  0.00    +0.000 A 
ATOM     20  C   UNL     1      46.668   2.813   7.437  0.00  0.00    +0.000 A 
ATOM     21  C   UNL     1      46.471   4.177   7.569  0.00  0.00    +0.000 A 
ATOM     22  N   UNL     1      45.619   4.744   8.454  0.00  0.00    +0.000 NA
BRANCH  20  23
ATOM     23  C   UNL     1      47.605   2.221   6.452  0.00  0.00    +0.000 C 
ATOM     24  N   UNL     1      47.859   2.895   5.290  0.00  0.00    +0.000 N 
ATOM     25  O   UNL     1      48.145   1.141   6.665  0.00  0.00    +0.000 OA
ATOM     26  H   UNL     1      47.460   3.778   5.010  0.00  0.00    +0.000 HD
ATOM     27  H   UNL     1      48.497   2.452   4.640  0.00  0.00    +0.000 HD
ENDBRANCH  20  23
ENDBRANCH  16  17
ENDBRANCH  15  16
ENDBRANCH   2  15
TORSDOF 7
ENDMDL
MODEL 7
REMARK VINA RESULT:    -6.580      2.379      3.034
REMARK INTER + INTRA:         -10.348
REMARK INTER:                  -9.646
REMARK INTRA:                  -0.702
REMARK UNBOUND:                -1.075
REMARK  Name = 
REMARK  8 active torsions:
REMARK  status: ('A' for Active; 'I' for Inactive)
REMARK    1  A    between atoms: C_1  and  C_2
REMARK    2  A    between atoms: C_2  and  C_3
REMARK    3  A    between atoms: C_2  and  C_14
REMARK    4  A    between atoms: C_3  and  O_4
REMARK    5  A    between atoms: O_4  and  C_5
REMARK    6  A    between atoms: C_8  and  C_9
REMARK    7  A    between atoms: C_18  and  O_19
REMARK    8  A    between atoms: O_19  and  C_20
REMARK                            x       y       z     vdW  Elec       q    Type
REMARK                         _______ _______ _______ _____ _____    ______ ____
ROOT
ATOM      1  C   UNL     1      42.806   6.165  11.389  0.00  0.00    +0.000 C 
ATOM      2  C   UNL     1      44.150   6.000  12.108  0.00  0.00    +0.000 C 
ENDROOT
BRANCH   2   3
ATOM      3  C   UNL     1      44.911   7.318  12.171  0.00  0.00    +0.000 A 
ATOM      4  C   UNL     1      44.423   8.429  11.470  0.00  0.00    +0.000 A 
ATOM      5  C   UNL     1      45.117   9.641  11.477  0.00  0.00    +0.000 A 
ATOM      6  C   UNL     1      46.312   9.765  12.187  0.00  0.00    +0.000 A 
ATOM      7  C   UNL     1      46.811   8.675  12.897  0.00  0.00    +0.000 A 
ATOM      8  C   UNL     1      46.105   7.465  12.900  0.00  0.00    +0.000 A 
BRANCH   7   9
ATOM      9  O   UNL     1      47.961   8.697  13.648  0.00  0.00    +0.000 OA
BRANCH   9  10
ATOM     10  C   UNL     1      48.753   7.488  13.752  0.00  0.00    +0.000 C 
ATOM     11  C   UNL     1      48.959   6.883  15.155  0.00  0.00    +0.000 C 
ATOM     12  N   UNL     1      50.416   6.873  14.957  0.00  0.00    +0.000 NA
ATOM     13  C   UNL     1      50.281   7.707  13.755  0.00  0.00    +0.000 C 
ATOM     14  H   UNL     1      50.810   5.949  14.782  0.00  0.00    +0.000 HD
ENDBRANCH   9  10
ENDBRANCH   7   9
ENDBRANCH   2   3
BRANCH   2  15
ATOM     15  C   UNL     1      44.983   4.872  11.477  0.00  0.00    +0.000 C 
BRANCH  15  16
ATOM     16  O   UNL     1      44.244   4.289  10.391  0.00  0.00    +0.000 OA
BRANCH  16  17
ATOM     17  C   UNL     1      45.060   3.828   9.380  0.00  0.00    +0.000 A 
ATOM     18  C   UNL     1      45.151   2.455   9.206  0.00  0.00    +0.000 A 
ATOM     19  C   UNL     1      45.961   1.970   8.177  0.00  0.00    +0.000 A 
ATOM     20  C   UNL     1      46.654   2.868   7.356  0.00  0.00    +0.000 A 
ATOM     21  C   UNL     1      46.497   4.218   7.620  0.00  0.00    +0.000 A 
ATOM     22  N   UNL     1      45.720   4.718   8.609  0.00  0.00    +0.000 NA
BRANCH  20  23
ATOM     23  C   UNL     1      47.507   2.351   6.260  0.00  0.00    +0.000 C 
ATOM     24  N   UNL     1      47.286   2.788   4.983  0.00  0.00    +0.000 N 
ATOM     25  O   UNL     1      48.399   1.539   6.482  0.00  0.00    +0.000 OA
ATOM     26  H   UNL     1      46.576   3.441   4.689  0.00  0.00    +0.000 HD
ATOM     27  H   UNL     1      47.884   2.403   4.262  0.00  0.00    +0.000 HD
ENDBRANCH  20  23
ENDBRANCH  16  17
ENDBRANCH  15  16
ENDBRANCH   2  15
TORSDOF 7
ENDMDL
MODEL 8
REMARK VINA RESULT:    -6.451      3.067      7.478
REMARK INTER + INTRA:         -10.166
REMARK INTER:                  -9.410
REMARK INTRA:                  -0.756
REMARK UNBOUND:                -1.075
REMARK  Name = 
REMARK  8 active torsions:
REMARK  status: ('A' for Active; 'I' for Inactive)
REMARK    1  A    between atoms: C_1  and  C_2
REMARK    2  A    between atoms: C_2  and  C_3
REMARK    3  A    between atoms: C_2  and  C_14
REMARK    4  A    between atoms: C_3  and  O_4
REMARK    5  A    between atoms: O_4  and  C_5
REMARK    6  A    between atoms: C_8  and  C_9
REMARK    7  A    between atoms: C_18  and  O_19
REMARK    8  A    between atoms: O_19  and  C_20
REMARK                            x       y       z     vdW  Elec       q    Type
REMARK                         _______ _______ _______ _____ _____    ______ ____
ROOT
ATOM      1  C   UNL     1      43.001   5.310  12.437  0.00  0.00    +0.000 C 
ATOM      2  C   UNL     1      43.582   5.722  11.079  0.00  0.00    +0.000 C 
ENDROOT
BRANCH   2   3
ATOM      3  C   UNL     1      44.089   4.514  10.302  0.00  0.00    +0.000 A 
ATOM      4  C   UNL     1      43.758   3.225  10.743  0.00  0.00    +0.000 A 
ATOM      5  C   UNL     1      44.238   2.096  10.074  0.00  0.00    +0.000 A 
ATOM      6  C   UNL     1      45.056   2.235   8.952  0.00  0.00    +0.000 A 
ATOM      7  C   UNL     1      45.390   3.507   8.494  0.00  0.00    +0.000 A 
ATOM      8  C   UNL     1      44.896   4.638   9.157  0.00  0.00    +0.000 A 
BRANCH   7   9
ATOM      9  O   UNL     1      46.165   3.756   7.387  0.00  0.00    +0.000 OA
BRANCH   9  10
ATOM     10  C   UNL     1      46.626   2.639   6.588  0.00  0.00    +0.000 C 
ATOM     11  C   UNL     1      48.032   2.079   6.880  0.00  0.00    +0.000 C 
ATOM     12  N   UNL     1      48.402   2.218   5.464  0.00  0.00    +0.000 NA
ATOM     13  C   UNL     1      47.196   3.016   5.204  0.00  0.00    +0.000 C 
ATOM     14  H   UNL     1      48.439   1.338   4.950  0.00  0.00    +0.000 HD
ENDBRANCH   9  10
ENDBRANCH   7   9
ENDBRANCH   2   3
BRANCH   2  15
ATOM     15  C   UNL     1      44.659   6.807  11.241  0.00  0.00    +0.000 C 
BRANCH  15  16
ATOM     16  O   UNL     1      45.180   6.760  12.581  0.00  0.00    +0.000 OA
BRANCH  16  17
ATOM     17  C   UNL     1      46.512   7.109  12.645  0.00  0.00    +0.000 A 
ATOM     18  C   UNL     1      47.370   6.238  13.301  0.00  0.00    +0.000 A 
ATOM     19  C   UNL     1      48.726   6.565  13.364  0.00  0.00    +0.000 A 
ATOM     20  C   UNL     1      49.183   7.749  12.771  0.00  0.00    +0.000 A 
ATOM     21  C   UNL     1      48.241   8.549  12.146  0.00  0.00    +0.000 A 
ATOM     22  N   UNL     1      46.921   8.259  12.070  0.00  0.00    +0.000 NA
BRANCH  20  23
ATOM     23  C   UNL     1      50.624   8.092  12.833  0.00  0.00    +0.000 C 
ATOM     24  N   UNL     1      51.395   7.919  11.717  0.00  0.00    +0.000 N 
ATOM     25  O   UNL     1      51.128   8.520  13.865  0.00  0.00    +0.000 OA
ATOM     26  H   UNL     1      51.087   7.564  10.825  0.00  0.00    +0.000 HD
ATOM     27  H   UNL     1      52.376   8.156  11.803  0.00  0.00    +0.000 HD
ENDBRANCH  20  23
ENDBRANCH  16  17
ENDBRANCH  15  16
ENDBRANCH   2  15
TORSDOF 7
ENDMDL
MODEL 9
REMARK VINA RESULT:    -6.377      1.723      7.921
REMARK INTER + INTRA:         -10.062
REMARK INTER:                  -9.205
REMARK INTRA:                  -0.857
REMARK UNBOUND:                -1.075
REMARK  Name = 
REMARK  8 active torsions:
REMARK  status: ('A' for Active; 'I' for Inactive)
REMARK    1  A    between atoms: C_1  and  C_2
REMARK    2  A    between atoms: C_2  and  C_3
REMARK    3  A    between atoms: C_2  and  C_14
REMARK    4  A    between atoms: C_3  and  O_4
REMARK    5  A    between atoms: O_4  and  C_5
REMARK    6  A    between atoms: C_8  and  C_9
REMARK    7  A    between atoms: C_18  and  O_19
REMARK    8  A    between atoms: O_19  and  C_20
REMARK                            x       y       z     vdW  Elec       q    Type
REMARK                         _______ _______ _______ _____ _____    ______ ____
ROOT
ATOM      1  C   UNL     1      46.232   8.272  12.823  0.00  0.00    +0.000 C 
ATOM      2  C   UNL     1      46.762   7.226  11.835  0.00  0.00    +0.000 C 
ENDROOT
BRANCH   2   3
ATOM      3  C   UNL     1      45.660   6.274  11.389  0.00  0.00    +0.000 A 
ATOM      4  C   UNL     1      44.578   6.025  12.245  0.00  0.00    +0.000 A 
ATOM      5  C   UNL     1      43.570   5.130  11.881  0.00  0.00    +0.000 A 
ATOM      6  C   UNL     1      43.624   4.467  10.654  0.00  0.00    +0.000 A 
ATOM      7  C   UNL     1      44.686   4.707   9.786  0.00  0.00    +0.000 A 
ATOM      8  C   UNL     1      45.689   5.616  10.147  0.00  0.00    +0.000 A 
BRANCH   7   9
ATOM      9  O   UNL     1      44.822   4.129   8.546  0.00  0.00    +0.000 OA
BRANCH   9  10
ATOM     10  C   UNL     1      46.092   3.531   8.187  0.00  0.00    +0.000 C 
ATOM     11  C   UNL     1      46.409   3.363   6.688  0.00  0.00    +0.000 C 
ATOM     12  N   UNL     1      46.695   1.935   6.890  0.00  0.00    +0.000 NA
ATOM     13  C   UNL     1      46.128   1.989   8.244  0.00  0.00    +0.000 C 
ATOM     14  H   UNL     1      47.687   1.697   6.862  0.00  0.00    +0.000 HD
ENDBRANCH   9  10
ENDBRANCH   7   9
ENDBRANCH   2   3
BRANCH   2  15
ATOM     15  C   UNL     1      47.978   6.482  12.413  0.00  0.00    +0.000 C 
BRANCH  15  16
ATOM     16  O   UNL     1      48.290   7.021  13.709  0.00  0.00    +0.000 OA
BRANCH  16  17
ATOM     17  C   UNL     1      48.119   6.100  14.721  0.00  0.00    +0.000 A 
ATOM     18  C   UNL     1      47.219   5.068  14.502  0.00  0.00    +0.000 A 
ATOM     19  C   UNL     1      47.044   4.117  15.509  0.00  0.00    +0.000 A 
ATOM     20  C   UNL     1      47.770   4.226  16.701  0.00  0.00    +0.000 A 
ATOM     21  C   UNL     1      48.638   5.298  16.819  0.00  0.00    +0.000 A 
ATOM     22  N   UNL     1      48.829   6.236  15.861  0.00  0.00    +0.000 NA
BRANCH  20  23
ATOM     23  C   UNL     1      47.588   3.211  17.767  0.00  0.00    +0.000 C 
ATOM     24  N   UNL     1      48.473   3.176  18.808  0.00  0.00    +0.000 N 
ATOM     25  O   UNL     1      46.663   2.408  17.722  0.00  0.00    +0.000 OA
ATOM     26  H   UNL     1      49.272   3.778  18.936  0.00  0.00    +0.000 HD
ATOM     27  H   UNL     1      48.319   2.462  19.510  0.00  0.00    +0.000 HD
ENDBRANCH  20  23
ENDBRANCH  16  17
ENDBRANCH  15  16
ENDBRANCH   2  15
TORSDOF 7
ENDMDL
