MODEL 1
REMARK VINA RESULT:    -8.213      0.000      0.000
REMARK INTER + INTRA:         -12.043
REMARK INTER:                 -11.094
REMARK INTRA:                  -0.949
REMARK UNBOUND:                -0.949
REMARK  Name = 
REMARK  6 active torsions:
REMARK  status: ('A' for Active; 'I' for Inactive)
REMARK    1  A    between atoms: C_2  and  C_4
REMARK    2  A    between atoms: C_7  and  C_8
REMARK    3  A    between atoms: C_8  and  N_9
REMARK    4  A    between atoms: C_16  and  C_17
REMARK    5  A    between atoms: C_17  and  N_18
REMARK    6  A    between atoms: C_19  and  C_21
REMARK                            x       y       z     vdW  Elec       q    Type
REMARK                         _______ _______ _______ _____ _____    ______ ____
ROOT
ATOM      1  C   UNL     1      43.559   4.434  11.591  0.00  0.00    +0.000 A 
ATOM      2  C   UNL     1      43.094   3.115  11.456  0.00  0.00    +0.000 A 
ATOM      3  C   UNL     1      43.714   2.225  10.583  0.00  0.00    +0.000 A 
ATOM      4  C   UNL     1      44.783   2.646   9.789  0.00  0.00    +0.000 A 
ATOM      5  C   UNL     1      45.262   3.955   9.935  0.00  0.00    +0.000 A 
ATOM      6  C   UNL     1      44.687   4.855  10.856  0.00  0.00    +0.000 A 
ENDROOT
BRANCH   1   8
ATOM      7  N   UNL     1      41.997   6.293  11.828  0.00  0.00    +0.000 N 
ATOM      8  C   UNL     1      42.792   5.374  12.459  0.00  0.00    +0.000 C 
ATOM      9  O   UNL     1      42.873   5.352  13.680  0.00  0.00    +0.000 OA
ATOM     10  H   UNL     1      41.478   6.939  12.407  0.00  0.00    +0.000 HD
ATOM     11  H   UNL     1      41.793   6.269  10.839  0.00  0.00    +0.000 HD
ENDBRANCH   1   8
BRANCH   4  12
ATOM     12  C   UNL     1      45.431   1.689   8.812  0.00  0.00    +0.000 C 
BRANCH  12  13
ATOM     13  N   UNL     1      46.457   2.309   7.940  0.00  0.00    +0.000 NA
ATOM     14  C   UNL     1      47.311   1.271   7.333  0.00  0.00    +0.000 C 
ATOM     15  C   UNL     1      48.236   1.797   6.235  0.00  0.00    +0.000 C 
ATOM     16  C   UNL     1      47.449   2.547   5.172  0.00  0.00    +0.000 C 
ATOM     17  C   UNL     1      46.677   3.677   5.833  0.00  0.00    +0.000 C 
ATOM     18  C   UNL     1      45.769   3.145   6.940  0.00  0.00    +0.000 C 
ENDBRANCH  12  13
ENDBRANCH   4  12
BRANCH   6  19
ATOM     19  C   UNL     1      45.325   6.213  11.011  0.00  0.00    +0.000 C 
BRANCH  19  20
ATOM     20  N   UNL     1      46.042   6.337  12.250  0.00  0.00    +0.000 N 
ATOM     21  C   UNL     1      47.382   6.595  12.327  0.00  0.00    +0.000 C 
ATOM     22  O   UNL     1      48.076   6.823  11.340  0.00  0.00    +0.000 OA
ATOM     23  H   UNL     1      45.499   6.132  13.084  0.00  0.00    +0.000 HD
BRANCH  21  24
ATOM     24  C   UNL     1      47.937   6.649  13.685  0.00  0.00    +0.000 A 
ATOM     25  C   UNL     1      48.774   7.690  14.058  0.00  0.00    +0.000 A 
ATOM     26  S   UNL     1      49.282   7.600  15.685  0.00  0.00    +0.000 S 
ATOM     27  C   UNL     1      48.443   6.139  15.928  0.00  0.00    +0.000 A 
ATOM     28  N   UNL     1      48.483   5.501  17.126  0.00  0.00    +0.000 NA
ATOM     29  C   UNL     1      47.827   4.384  17.158  0.00  0.00    +0.000 A 
ATOM     30  N   UNL     1      47.136   3.856  16.099  0.00  0.00    +0.000 N 
ATOM     31  C   UNL     1      47.069   4.465  14.868  0.00  0.00    +0.000 A 
ATOM     32  O   UNL     1      46.453   3.952  13.942  0.00  0.00    +0.000 OA
ATOM     33  C   UNL     1      47.779   5.730  14.785  0.00  0.00    +0.000 A 
ATOM     34  H   UNL     1      46.645   2.978  16.185  0.00  0.00    +0.000 HD
ENDBRANCH  21  24
ENDBRANCH  19  20
ENDBRANCH   6  19
TORSDOF 6
ENDMDL
MODEL 2
REMARK VINA RESULT:    -8.114      3.910      9.577
REMARK INTER + INTRA:         -11.909
REMARK INTER:                 -11.202
REMARK INTRA:                  -0.706
REMARK UNBOUND:                -0.949
REMARK  Name = 
REMARK  6 active torsions:
REMARK  status: ('A' for Active; 'I' for Inactive)
REMARK    1  A    between atoms: C_2  and  C_4
REMARK    2  A    between atoms: C_7  and  C_8
REMARK    3  A    between atoms: C_8  and  N_9
REMARK    4  A    between atoms: C_16  and  C_17
REMARK    5  A    between atoms: C_17  and  N_18
REMARK    6  A    between atoms: C_19  and  C_21
REMARK                            x       y       z     vdW  Elec       q    Type
REMARK                         _______ _______ _______ _____ _____    ______ ____
ROOT
ATOM      1  C   UNL     1      49.953   3.385  17.499  0.00  0.00    +0.000 A 
ATOM      2  C   UNL     1      50.996   3.974  18.233  0.00  0.00    +0.000 A 
ATOM      3  C   UNL     1      50.886   5.278  18.709  0.00  0.00    +0.000 A 
ATOM      4  C   UNL     1      49.751   6.040  18.422  0.00  0.00    +0.000 A 
ATOM      5  C   UNL     1      48.700   5.449  17.708  0.00  0.00    +0.000 A 
ATOM      6  C   UNL     1      48.766   4.110  17.267  0.00  0.00    +0.000 A 
ENDROOT
BRANCH   1   8
ATOM      7  N   UNL     1      50.958   1.166  17.637  0.00  0.00    +0.000 N 
ATOM      8  C   UNL     1      50.168   2.026  16.922  0.00  0.00    +0.000 C 
ATOM      9  O   UNL     1      49.683   1.684  15.852  0.00  0.00    +0.000 OA
ATOM     10  H   UNL     1      51.116   0.245  17.252  0.00  0.00    +0.000 HD
ATOM     11  H   UNL     1      51.271   1.349  18.580  0.00  0.00    +0.000 HD
ENDBRANCH   1   8
BRANCH   4  12
ATOM     12  C   UNL     1      49.649   7.469  18.907  0.00  0.00    +0.000 C 
BRANCH  12  13
ATOM     13  N   UNL     1      48.352   7.808  19.539  0.00  0.00    +0.000 NA
ATOM     14  C   UNL     1      48.439   7.651  21.004  0.00  0.00    +0.000 C 
ATOM     15  C   UNL     1      47.229   8.209  21.756  0.00  0.00    +0.000 C 
ATOM     16  C   UNL     1      46.971   9.658  21.376  0.00  0.00    +0.000 C 
ATOM     17  C   UNL     1      46.776   9.749  19.871  0.00  0.00    +0.000 C 
ATOM     18  C   UNL     1      47.980   9.173  19.127  0.00  0.00    +0.000 C 
ENDBRANCH  12  13
ENDBRANCH   4  12
BRANCH   6  19
ATOM     19  C   UNL     1      47.553   3.529  16.585  0.00  0.00    +0.000 C 
BRANCH  19  20
ATOM     20  N   UNL     1      46.960   4.449  15.655  0.00  0.00    +0.000 N 
ATOM     21  C   UNL     1      46.895   4.227  14.307  0.00  0.00    +0.000 C 
ATOM     22  O   UNL     1      47.267   3.181  13.784  0.00  0.00    +0.000 OA
ATOM     23  H   UNL     1      46.662   5.334  16.055  0.00  0.00    +0.000 HD
BRANCH  21  24
ATOM     24  C   UNL     1      46.283   5.304  13.519  0.00  0.00    +0.000 A 
ATOM     25  C   UNL     1      46.929   6.523  13.379  0.00  0.00    +0.000 A 
ATOM     26  S   UNL     1      46.081   7.630  12.395  0.00  0.00    +0.000 S 
ATOM     27  C   UNL     1      44.798   6.534  12.167  0.00  0.00    +0.000 A 
ATOM     28  N   UNL     1      43.712   6.873  11.424  0.00  0.00    +0.000 NA
ATOM     29  C   UNL     1      42.800   5.956  11.364  0.00  0.00    +0.000 A 
ATOM     30  N   UNL     1      42.881   4.734  11.978  0.00  0.00    +0.000 N 
ATOM     31  C   UNL     1      43.959   4.347  12.740  0.00  0.00    +0.000 A 
ATOM     32  O   UNL     1      43.987   3.251  13.285  0.00  0.00    +0.000 OA
ATOM     33  C   UNL     1      45.018   5.338  12.827  0.00  0.00    +0.000 A 
ATOM     34  H   UNL     1      42.134   4.060  11.896  0.00  0.00    +0.000 HD
ENDBRANCH  21  24
ENDBRANCH  19  20
ENDBRANCH   6  19
TORSDOF 6
ENDMDL
MODEL 3
REMARK VINA RESULT:    -8.054      1.662      2.503
REMARK INTER + INTRA:         -11.829
REMARK INTER:                 -11.077
REMARK INTRA:                  -0.752
REMARK UNBOUND:                -0.949
REMARK  Name = 
REMARK  6 active torsions:
REMARK  status: ('A' for Active; 'I' for Inactive)
REMARK    1  A    between atoms: C_2  and  C_4
REMARK    2  A    between atoms: C_7  and  C_8
REMARK    3  A    between atoms: C_8  and  N_9
REMARK    4  A    between atoms: C_16  and  C_17
REMARK    5  A    between atoms: C_17  and  N_18
REMARK    6  A    between atoms: C_19  and  C_21
REMARK                            x       y       z     vdW  Elec       q    Type
REMARK                         _______ _______ _______ _____ _____    ______ ____
ROOT
ATOM      1  C   UNL     1      44.777   7.071  11.590  0.00  0.00    +0.000 A 
ATOM      2  C   UNL     1      43.503   6.514  11.393  0.00  0.00    +0.000 A 
ATOM      3  C   UNL     1      43.358   5.199  10.957  0.00  0.00    +0.000 A 
ATOM      4  C   UNL     1      44.484   4.427  10.661  0.00  0.00    +0.000 A 
ATOM      5  C   UNL     1      45.757   4.973  10.875  0.00  0.00    +0.000 A 
ATOM      6  C   UNL     1      45.926   6.282  11.373  0.00  0.00    +0.000 A 
ENDROOT
BRANCH   1   8
ATOM      7  N   UNL     1      45.139   8.807  13.266  0.00  0.00    +0.000 N 
ATOM      8  C   UNL     1      44.874   8.515  11.955  0.00  0.00    +0.000 C 
ATOM      9  O   UNL     1      44.708   9.410  11.137  0.00  0.00    +0.000 OA
ATOM     10  H   UNL     1      45.200   9.782  13.526  0.00  0.00    +0.000 HD
ATOM     11  H   UNL     1      45.413   8.114  13.948  0.00  0.00    +0.000 HD
ENDBRANCH   1   8
BRANCH   4  12
ATOM     12  C   UNL     1      44.326   3.012  10.149  0.00  0.00    +0.000 C 
BRANCH  12  13
ATOM     13  N   UNL     1      44.852   2.795   8.780  0.00  0.00    +0.000 NA
ATOM     14  C   UNL     1      45.532   4.010   8.293  0.00  0.00    +0.000 C 
ATOM     15  C   UNL     1      46.312   3.802   6.994  0.00  0.00    +0.000 C 
ATOM     16  C   UNL     1      47.289   2.644   7.125  0.00  0.00    +0.000 C 
ATOM     17  C   UNL     1      46.523   1.391   7.517  0.00  0.00    +0.000 C 
ATOM     18  C   UNL     1      45.732   1.614   8.805  0.00  0.00    +0.000 C 
ENDBRANCH  12  13
ENDBRANCH   4  12
BRANCH   6  19
ATOM     19  C   UNL     1      47.329   6.755  11.659  0.00  0.00    +0.000 C 
BRANCH  19  20
ATOM     20  N   UNL     1      47.806   6.300  12.935  0.00  0.00    +0.000 N 
ATOM     21  C   UNL     1      48.111   7.137  13.972  0.00  0.00    +0.000 C 
ATOM     22  O   UNL     1      47.926   8.350  13.928  0.00  0.00    +0.000 OA
ATOM     23  H   UNL     1      47.990   5.302  12.996  0.00  0.00    +0.000 HD
BRANCH  21  24
ATOM     24  C   UNL     1      48.618   6.481  15.184  0.00  0.00    +0.000 A 
ATOM     25  C   UNL     1      49.733   6.984  15.838  0.00  0.00    +0.000 A 
ATOM     26  S   UNL     1      50.142   6.112  17.247  0.00  0.00    +0.000 S 
ATOM     27  C   UNL     1      48.875   5.003  16.999  0.00  0.00    +0.000 A 
ATOM     28  N   UNL     1      48.677   3.965  17.854  0.00  0.00    +0.000 NA
ATOM     29  C   UNL     1      47.699   3.182  17.524  0.00  0.00    +0.000 A 
ATOM     30  N   UNL     1      46.904   3.350  16.421  0.00  0.00    +0.000 N 
ATOM     31  C   UNL     1      47.068   4.383  15.528  0.00  0.00    +0.000 A 
ATOM     32  O   UNL     1      46.345   4.490  14.545  0.00  0.00    +0.000 OA
ATOM     33  C   UNL     1      48.145   5.298  15.861  0.00  0.00    +0.000 A 
ATOM     34  H   UNL     1      46.157   2.703  16.216  0.00  0.00    +0.000 HD
ENDBRANCH  21  24
ENDBRANCH  19  20
ENDBRANCH   6  19
TORSDOF 6
ENDMDL
MODEL 4
REMARK VINA RESULT:    -7.745      2.309      4.214
REMARK INTER + INTRA:         -11.411
REMARK INTER:                  -9.904
REMARK INTRA:                  -1.507
REMARK UNBOUND:                -0.949
REMARK  Name = 
REMARK  6 active torsions:
REMARK  status: ('A' for Active; 'I' for Inactive)
REMARK    1  A    between atoms: C_2  and  C_4
REMARK    2  A    between atoms: C_7  and  C_8
REMARK    3  A    between atoms: C_8  and  N_9
REMARK    4  A    between atoms: C_16  and  C_17
REMARK    5  A    between atoms: C_17  and  N_18
REMARK    6  A    between atoms: C_19  and  C_21
REMARK                            x       y       z     vdW  Elec       q    Type
REMARK                         _______ _______ _______ _____ _____    ______ ____
ROOT
ATOM      1  C   UNL     1      46.857   8.831  12.152  0.00  0.00    +0.000 A 
ATOM      2  C   UNL     1      45.481   8.892  11.872  0.00  0.00    +0.000 A 
ATOM      3  C   UNL     1      44.739   7.729  11.684  0.00  0.00    +0.000 A 
ATOM      4  C   UNL     1      45.364   6.480  11.722  0.00  0.00    +0.000 A 
ATOM      5  C   UNL     1      46.732   6.415  12.020  0.00  0.00    +0.000 A 
ATOM      6  C   UNL     1      47.490   7.577  12.273  0.00  0.00    +0.000 A 
ENDROOT
BRANCH   1   8
ATOM      7  N   UNL     1      47.832  10.623  13.491  0.00  0.00    +0.000 N 
ATOM      8  C   UNL     1      47.622  10.109  12.239  0.00  0.00    +0.000 C 
ATOM      9  O   UNL     1      48.035  10.694  11.247  0.00  0.00    +0.000 OA
ATOM     10  H   UNL     1      48.344  11.492  13.561  0.00  0.00    +0.000 HD
ATOM     11  H   UNL     1      47.631  10.118  14.342  0.00  0.00    +0.000 HD
ENDBRANCH   1   8
BRANCH   4  12
ATOM     12  C   UNL     1      44.565   5.219  11.478  0.00  0.00    +0.000 C 
BRANCH  12  13
ATOM     13  N   UNL     1      45.183   4.282  10.510  0.00  0.00    +0.000 NA
ATOM     14  C   UNL     1      44.314   3.108  10.305  0.00  0.00    +0.000 C 
ATOM     15  C   UNL     1      44.754   2.210   9.147  0.00  0.00    +0.000 C 
ATOM     16  C   UNL     1      44.903   3.010   7.863  0.00  0.00    +0.000 C 
ATOM     17  C   UNL     1      45.895   4.138   8.095  0.00  0.00    +0.000 C 
ATOM     18  C   UNL     1      45.458   5.019   9.264  0.00  0.00    +0.000 C 
ENDBRANCH  12  13
ENDBRANCH   4  12
BRANCH   6  19
ATOM     19  C   UNL     1      48.934   7.406  12.676  0.00  0.00    +0.000 C 
BRANCH  19  20
ATOM     20  N   UNL     1      49.072   6.678  13.906  0.00  0.00    +0.000 N 
ATOM     21  C   UNL     1      48.935   7.246  15.142  0.00  0.00    +0.000 C 
ATOM     22  O   UNL     1      48.601   8.416  15.306  0.00  0.00    +0.000 OA
ATOM     23  H   UNL     1      49.370   5.712  13.804  0.00  0.00    +0.000 HD
BRANCH  21  24
ATOM     24  C   UNL     1      49.150   6.343  16.279  0.00  0.00    +0.000 A 
ATOM     25  C   UNL     1      50.170   6.589  17.186  0.00  0.00    +0.000 A 
ATOM     26  S   UNL     1      50.234   5.453  18.458  0.00  0.00    +0.000 S 
ATOM     27  C   UNL     1      48.933   4.567  17.810  0.00  0.00    +0.000 A 
ATOM     28  N   UNL     1      48.486   3.436  18.417  0.00  0.00    +0.000 NA
ATOM     29  C   UNL     1      47.515   2.846  17.796  0.00  0.00    +0.000 A 
ATOM     30  N   UNL     1      46.952   3.290  16.628  0.00  0.00    +0.000 N 
ATOM     31  C   UNL     1      47.372   4.428  15.978  0.00  0.00    +0.000 A 
ATOM     32  O   UNL     1      46.852   4.783  14.927  0.00  0.00    +0.000 OA
ATOM     33  C   UNL     1      48.453   5.134  16.643  0.00  0.00    +0.000 A 
ATOM     34  H   UNL     1      46.196   2.784  16.190  0.00  0.00    +0.000 HD
ENDBRANCH  21  24
ENDBRANCH  19  20
ENDBRANCH   6  19
TORSDOF 6
ENDMDL
MODEL 5
REMARK VINA RESULT:    -7.712      3.894      9.513
REMARK INTER + INTRA:         -11.366
REMARK INTER:                 -10.104
REMARK INTRA:                  -1.262
REMARK UNBOUND:                -0.949
REMARK  Name = 
REMARK  6 active torsions:
REMARK  status: ('A' for Active; 'I' for Inactive)
REMARK    1  A    between atoms: C_2  and  C_4
REMARK    2  A    between atoms: C_7  and  C_8
REMARK    3  A    between atoms: C_8  and  N_9
REMARK    4  A    between atoms: C_16  and  C_17
REMARK    5  A    between atoms: C_17  and  N_18
REMARK    6  A    between atoms: C_19  and  C_21
REMARK                            x       y       z     vdW  Elec       q    Type
REMARK                         _______ _______ _______ _____ _____    ______ ____
ROOT
ATOM      1  C   UNL     1      48.154   5.328  17.753  0.00  0.00    +0.000 A 
ATOM      2  C   UNL     1      47.736   5.356  19.094  0.00  0.00    +0.000 A 
ATOM      3  C   UNL     1      47.711   6.551  19.808  0.00  0.00    +0.000 A 
ATOM      4  C   UNL     1      48.149   7.737  19.214  0.00  0.00    +0.000 A 
ATOM      5  C   UNL     1      48.548   7.716  17.871  0.00  0.00    +0.000 A 
ATOM      6  C   UNL     1      48.524   6.528  17.111  0.00  0.00    +0.000 A 
ENDROOT
BRANCH   1   8
ATOM      7  N   UNL     1      47.098   3.440  16.624  0.00  0.00    +0.000 N 
ATOM      8  C   UNL     1      48.262   4.006  17.069  0.00  0.00    +0.000 C 
ATOM      9  O   UNL     1      49.332   3.431  16.921  0.00  0.00    +0.000 OA
ATOM     10  H   UNL     1      47.159   2.541  16.165  0.00  0.00    +0.000 HD
ATOM     11  H   UNL     1      46.213   3.928  16.601  0.00  0.00    +0.000 HD
ENDBRANCH   1   8
BRANCH   4  12
ATOM     12  C   UNL     1      48.159   9.028  20.003  0.00  0.00    +0.000 C 
BRANCH  12  13
ATOM     13  N   UNL     1      47.121  10.003  19.591  0.00  0.00    +0.000 NA
ATOM     14  C   UNL     1      46.221  10.303  20.721  0.00  0.00    +0.000 C 
ATOM     15  C   UNL     1      45.274  11.475  20.460  0.00  0.00    +0.000 C 
ATOM     16  C   UNL     1      46.044  12.714  20.032  0.00  0.00    +0.000 C 
ATOM     17  C   UNL     1      46.867  12.384  18.798  0.00  0.00    +0.000 C 
ATOM     18  C   UNL     1      47.798  11.200  19.061  0.00  0.00    +0.000 C 
ENDBRANCH  12  13
ENDBRANCH   4  12
BRANCH   6  19
ATOM     19  C   UNL     1      48.883   6.616  15.648  0.00  0.00    +0.000 C 
BRANCH  19  20
ATOM     20  N   UNL     1      47.740   6.434  14.797  0.00  0.00    +0.000 N 
ATOM     21  C   UNL     1      47.824   6.239  13.447  0.00  0.00    +0.000 C 
ATOM     22  O   UNL     1      48.893   6.121  12.855  0.00  0.00    +0.000 OA
ATOM     23  H   UNL     1      46.839   6.548  15.255  0.00  0.00    +0.000 HD
BRANCH  21  24
ATOM     24  C   UNL     1      46.540   6.110  12.747  0.00  0.00    +0.000 A 
ATOM     25  C   UNL     1      45.917   7.230  12.216  0.00  0.00    +0.000 A 
ATOM     26  S   UNL     1      44.458   6.872  11.405  0.00  0.00    +0.000 S 
ATOM     27  C   UNL     1      44.585   5.218  11.783  0.00  0.00    +0.000 A 
ATOM     28  N   UNL     1      43.627   4.336  11.395  0.00  0.00    +0.000 NA
ATOM     29  C   UNL     1      43.837   3.117  11.781  0.00  0.00    +0.000 A 
ATOM     30  N   UNL     1      44.918   2.706  12.515  0.00  0.00    +0.000 N 
ATOM     31  C   UNL     1      45.911   3.562  12.931  0.00  0.00    +0.000 A 
ATOM     32  O   UNL     1      46.855   3.158  13.600  0.00  0.00    +0.000 OA
ATOM     33  C   UNL     1      45.729   4.941  12.512  0.00  0.00    +0.000 A 
ATOM     34  H   UNL     1      45.024   1.740  12.788  0.00  0.00    +0.000 HD
ENDBRANCH  21  24
ENDBRANCH  19  20
ENDBRANCH   6  19
TORSDOF 6
ENDMDL
MODEL 6
REMARK VINA RESULT:    -7.474      3.814      6.184
REMARK INTER + INTRA:         -11.044
REMARK INTER:                  -9.948
REMARK INTRA:                  -1.096
REMARK UNBOUND:                -0.949
REMARK  Name = 
REMARK  6 active torsions:
REMARK  status: ('A' for Active; 'I' for Inactive)
REMARK    1  A    between atoms: C_2  and  C_4
REMARK    2  A    between atoms: C_7  and  C_8
REMARK    3  A    between atoms: C_8  and  N_9
REMARK    4  A    between atoms: C_16  and  C_17
REMARK    5  A    between atoms: C_17  and  N_18
REMARK    6  A    between atoms: C_19  and  C_21
REMARK                            x       y       z     vdW  Elec       q    Type
REMARK                         _______ _______ _______ _____ _____    ______ ____
ROOT
ATOM      1  C   UNL     1      45.163   5.239  12.589  0.00  0.00    +0.000 A 
ATOM      2  C   UNL     1      45.291   6.053  11.451  0.00  0.00    +0.000 A 
ATOM      3  C   UNL     1      46.458   6.778  11.220  0.00  0.00    +0.000 A 
ATOM      4  C   UNL     1      47.503   6.745  12.145  0.00  0.00    +0.000 A 
ATOM      5  C   UNL     1      47.386   5.919  13.272  0.00  0.00    +0.000 A 
ATOM      6  C   UNL     1      46.238   5.130  13.494  0.00  0.00    +0.000 A 
ENDROOT
BRANCH   1   8
ATOM      7  N   UNL     1      42.791   5.377  13.143  0.00  0.00    +0.000 N 
ATOM      8  C   UNL     1      43.854   4.569  12.840  0.00  0.00    +0.000 C 
ATOM      9  O   UNL     1      43.722   3.353  12.802  0.00  0.00    +0.000 OA
ATOM     10  H   UNL     1      41.901   4.933  13.323  0.00  0.00    +0.000 HD
ATOM     11  H   UNL     1      42.814   6.384  13.059  0.00  0.00    +0.000 HD
ENDBRANCH   1   8
BRANCH   4  12
ATOM     12  C   UNL     1      48.753   7.564  11.913  0.00  0.00    +0.000 C 
BRANCH  12  13
ATOM     13  N   UNL     1      49.103   8.474  13.031  0.00  0.00    +0.000 NA
ATOM     14  C   UNL     1      50.449   8.160  13.546  0.00  0.00    +0.000 C 
ATOM     15  C   UNL     1      50.990   9.197  14.532  0.00  0.00    +0.000 C 
ATOM     16  C   UNL     1      50.946  10.594  13.933  0.00  0.00    +0.000 C 
ATOM     17  C   UNL     1      49.518  10.912  13.523  0.00  0.00    +0.000 C 
ATOM     18  C   UNL     1      48.979   9.862  12.552  0.00  0.00    +0.000 C 
ENDBRANCH  12  13
ENDBRANCH   4  12
BRANCH   6  19
ATOM     19  C   UNL     1      46.237   4.202  14.684  0.00  0.00    +0.000 C 
BRANCH  19  20
ATOM     20  N   UNL     1      47.395   4.383  15.514  0.00  0.00    +0.000 N 
ATOM     21  C   UNL     1      47.494   3.905  16.791  0.00  0.00    +0.000 C 
ATOM     22  O   UNL     1      46.628   3.207  17.312  0.00  0.00    +0.000 OA
ATOM     23  H   UNL     1      48.121   4.975  15.119  0.00  0.00    +0.000 HD
BRANCH  21  24
ATOM     24  C   UNL     1      48.745   4.225  17.490  0.00  0.00    +0.000 A 
ATOM     25  C   UNL     1      48.874   5.418  18.184  0.00  0.00    +0.000 A 
ATOM     26  S   UNL     1      50.382   5.589  18.963  0.00  0.00    +0.000 S 
ATOM     27  C   UNL     1      50.932   4.098  18.354  0.00  0.00    +0.000 A 
ATOM     28  N   UNL     1      52.183   3.647  18.632  0.00  0.00    +0.000 NA
ATOM     29  C   UNL     1      52.478   2.515  18.076  0.00  0.00    +0.000 A 
ATOM     30  N   UNL     1      51.632   1.798  17.271  0.00  0.00    +0.000 N 
ATOM     31  C   UNL     1      50.358   2.215  16.961  0.00  0.00    +0.000 A 
ATOM     32  O   UNL     1      49.638   1.551  16.225  0.00  0.00    +0.000 OA
ATOM     33  C   UNL     1      49.974   3.475  17.573  0.00  0.00    +0.000 A 
ATOM     34  H   UNL     1      51.921   0.921  16.864  0.00  0.00    +0.000 HD
ENDBRANCH  21  24
ENDBRANCH  19  20
ENDBRANCH   6  19
TORSDOF 6
ENDMDL
MODEL 7
REMARK VINA RESULT:    -7.350      2.868      8.110
REMARK INTER + INTRA:         -10.876
REMARK INTER:                  -9.619
REMARK INTRA:                  -1.257
REMARK UNBOUND:                -0.949
REMARK  Name = 
REMARK  6 active torsions:
REMARK  status: ('A' for Active; 'I' for Inactive)
REMARK    1  A    between atoms: C_2  and  C_4
REMARK    2  A    between atoms: C_7  and  C_8
REMARK    3  A    between atoms: C_8  and  N_9
REMARK    4  A    between atoms: C_16  and  C_17
REMARK    5  A    between atoms: C_17  and  N_18
REMARK    6  A    between atoms: C_19  and  C_21
REMARK                            x       y       z     vdW  Elec       q    Type
REMARK                         _______ _______ _______ _____ _____    ______ ____
ROOT
ATOM      1  C   UNL     1      50.325   8.500  12.699  0.00  0.00    +0.000 A 
ATOM      2  C   UNL     1      51.176   8.369  13.809  0.00  0.00    +0.000 A 
ATOM      3  C   UNL     1      50.733   7.761  14.981  0.00  0.00    +0.000 A 
ATOM      4  C   UNL     1      49.415   7.312  15.088  0.00  0.00    +0.000 A 
ATOM      5  C   UNL     1      48.569   7.423  13.976  0.00  0.00    +0.000 A 
ATOM      6  C   UNL     1      49.014   7.982  12.760  0.00  0.00    +0.000 A 
ENDROOT
BRANCH   1   8
ATOM      7  N   UNL     1      50.480  10.579  11.432  0.00  0.00    +0.000 N 
ATOM      8  C   UNL     1      50.817   9.254  11.510  0.00  0.00    +0.000 C 
ATOM      9  O   UNL     1      51.475   8.725  10.625  0.00  0.00    +0.000 OA
ATOM     10  H   UNL     1      50.803  11.098  10.627  0.00  0.00    +0.000 HD
ATOM     11  H   UNL     1      50.056  11.092  12.192  0.00  0.00    +0.000 HD
ENDBRANCH   1   8
BRANCH   4  12
ATOM     12  C   UNL     1      48.923   6.687  16.375  0.00  0.00    +0.000 C 
BRANCH  12  13
ATOM     13  N   UNL     1      49.028   5.209  16.415  0.00  0.00    +0.000 NA
ATOM     14  C   UNL     1      49.950   4.789  17.487  0.00  0.00    +0.000 C 
ATOM     15  C   UNL     1      49.933   3.284  17.759  0.00  0.00    +0.000 C 
ATOM     16  C   UNL     1      48.520   2.795  18.031  0.00  0.00    +0.000 C 
ATOM     17  C   UNL     1      47.636   3.151  16.847  0.00  0.00    +0.000 C 
ATOM     18  C   UNL     1      47.673   4.654  16.570  0.00  0.00    +0.000 C 
ENDBRANCH  12  13
ENDBRANCH   4  12
BRANCH   6  19
ATOM     19  C   UNL     1      48.064   7.977  11.589  0.00  0.00    +0.000 C 
BRANCH  19  20
ATOM     20  N   UNL     1      47.196   6.833  11.598  0.00  0.00    +0.000 N 
ATOM     21  C   UNL     1      45.832   6.917  11.633  0.00  0.00    +0.000 C 
ATOM     22  O   UNL     1      45.227   7.984  11.576  0.00  0.00    +0.000 OA
ATOM     23  H   UNL     1      47.667   5.936  11.667  0.00  0.00    +0.000 HD
BRANCH  21  24
ATOM     24  C   UNL     1      45.121   5.633  11.674  0.00  0.00    +0.000 A 
ATOM     25  C   UNL     1      44.496   5.217  12.840  0.00  0.00    +0.000 A 
ATOM     26  S   UNL     1      43.690   3.721  12.679  0.00  0.00    +0.000 S 
ATOM     27  C   UNL     1      44.195   3.557  11.061  0.00  0.00    +0.000 A 
ATOM     28  N   UNL     1      43.857   2.462  10.331  0.00  0.00    +0.000 NA
ATOM     29  C   UNL     1      44.338   2.454   9.128  0.00  0.00    +0.000 A 
ATOM     30  N   UNL     1      45.120   3.445   8.595  0.00  0.00    +0.000 N 
ATOM     31  C   UNL     1      45.487   4.570   9.296  0.00  0.00    +0.000 A 
ATOM     32  O   UNL     1      46.200   5.427   8.787  0.00  0.00    +0.000 OA
ATOM     33  C   UNL     1      44.962   4.632  10.648  0.00  0.00    +0.000 A 
ATOM     34  H   UNL     1      45.466   3.381   7.649  0.00  0.00    +0.000 HD
ENDBRANCH  21  24
ENDBRANCH  19  20
ENDBRANCH   6  19
TORSDOF 6
ENDMDL
MODEL 8
REMARK VINA RESULT:    -7.006      3.899      9.744
REMARK INTER + INTRA:         -10.413
REMARK INTER:                  -9.143
REMARK INTRA:                  -1.270
REMARK UNBOUND:                -0.949
REMARK  Name = 
REMARK  6 active torsions:
REMARK  status: ('A' for Active; 'I' for Inactive)
REMARK    1  A    between atoms: C_2  and  C_4
REMARK    2  A    between atoms: C_7  and  C_8
REMARK    3  A    between atoms: C_8  and  N_9
REMARK    4  A    between atoms: C_16  and  C_17
REMARK    5  A    between atoms: C_17  and  N_18
REMARK    6  A    between atoms: C_19  and  C_21
REMARK                            x       y       z     vdW  Elec       q    Type
REMARK                         _______ _______ _______ _____ _____    ______ ____
ROOT
ATOM      1  C   UNL     1      47.791   5.355  18.276  0.00  0.00    +0.000 A 
ATOM      2  C   UNL     1      47.362   5.827  19.528  0.00  0.00    +0.000 A 
ATOM      3  C   UNL     1      47.571   7.153  19.901  0.00  0.00    +0.000 A 
ATOM      4  C   UNL     1      48.257   8.024  19.052  0.00  0.00    +0.000 A 
ATOM      5  C   UNL     1      48.669   7.562  17.795  0.00  0.00    +0.000 A 
ATOM      6  C   UNL     1      48.415   6.240  17.373  0.00  0.00    +0.000 A 
ENDROOT
BRANCH   1   8
ATOM      7  N   UNL     1      48.534   3.048  18.556  0.00  0.00    +0.000 N 
ATOM      8  C   UNL     1      47.637   3.903  17.972  0.00  0.00    +0.000 C 
ATOM      9  O   UNL     1      46.767   3.479  17.224  0.00  0.00    +0.000 OA
ATOM     10  H   UNL     1      48.443   2.062  18.351  0.00  0.00    +0.000 HD
ATOM     11  H   UNL     1      49.181   3.327  19.279  0.00  0.00    +0.000 HD
ENDBRANCH   1   8
BRANCH   4  12
ATOM     12  C   UNL     1      48.519   9.453  19.475  0.00  0.00    +0.000 C 
BRANCH  12  13
ATOM     13  N   UNL     1      49.954   9.821  19.530  0.00  0.00    +0.000 NA
ATOM     14  C   UNL     1      50.116  11.279  19.382  0.00  0.00    +0.000 C 
ATOM     15  C   UNL     1      51.535  11.774  19.668  0.00  0.00    +0.000 C 
ATOM     16  C   UNL     1      52.010  11.307  21.035  0.00  0.00    +0.000 C 
ATOM     17  C   UNL     1      51.931   9.790  21.095  0.00  0.00    +0.000 C 
ATOM     18  C   UNL     1      50.515   9.304  20.791  0.00  0.00    +0.000 C 
ENDBRANCH  12  13
ENDBRANCH   4  12
BRANCH   6  19
ATOM     19  C   UNL     1      48.813   5.857  15.969  0.00  0.00    +0.000 C 
BRANCH  19  20
ATOM     20  N   UNL     1      47.690   5.830  15.075  0.00  0.00    +0.000 N 
ATOM     21  C   UNL     1      47.778   6.109  13.739  0.00  0.00    +0.000 C 
ATOM     22  O   UNL     1      48.845   6.329  13.172  0.00  0.00    +0.000 OA
ATOM     23  H   UNL     1      46.790   5.672  15.518  0.00  0.00    +0.000 HD
BRANCH  21  24
ATOM     24  C   UNL     1      46.511   6.063  13.000  0.00  0.00    +0.000 A 
ATOM     25  C   UNL     1      45.911   7.236  12.566  0.00  0.00    +0.000 A 
ATOM     26  S   UNL     1      44.469   6.976  11.691  0.00  0.00    +0.000 S 
ATOM     27  C   UNL     1      44.572   5.291  11.910  0.00  0.00    +0.000 A 
ATOM     28  N   UNL     1      43.615   4.462  11.415  0.00  0.00    +0.000 NA
ATOM     29  C   UNL     1      43.804   3.209  11.685  0.00  0.00    +0.000 A 
ATOM     30  N   UNL     1      44.863   2.717  12.401  0.00  0.00    +0.000 N 
ATOM     31  C   UNL     1      45.854   3.517  12.922  0.00  0.00    +0.000 A 
ATOM     32  O   UNL     1      46.777   3.039  13.569  0.00  0.00    +0.000 OA
ATOM     33  C   UNL     1      45.694   4.932  12.634  0.00  0.00    +0.000 A 
ATOM     34  H   UNL     1      44.954   1.728  12.581  0.00  0.00    +0.000 HD
ENDBRANCH  21  24
ENDBRANCH  19  20
ENDBRANCH   6  19
TORSDOF 6
ENDMDL
MODEL 9
REMARK VINA RESULT:    -6.997      2.817      4.636
REMARK INTER + INTRA:         -10.401
REMARK INTER:                  -9.407
REMARK INTRA:                  -0.994
REMARK UNBOUND:                -0.949
REMARK  Name = 
REMARK  6 active torsions:
REMARK  status: ('A' for Active; 'I' for Inactive)
REMARK    1  A    between atoms: C_2  and  C_4
REMARK    2  A    between atoms: C_7  and  C_8
REMARK    3  A    between atoms: C_8  and  N_9
REMARK    4  A    between atoms: C_16  and  C_17
REMARK    5  A    between atoms: C_17  and  N_18
REMARK    6  A    between atoms: C_19  and  C_21
REMARK                            x       y       z     vdW  Elec       q    Type
REMARK                         _______ _______ _______ _____ _____    ______ ____
ROOT
ATOM      1  C   UNL     1      46.532   7.642  12.393  0.00  0.00    +0.000 A 
ATOM      2  C   UNL     1      45.334   7.985  11.743  0.00  0.00    +0.000 A 
ATOM      3  C   UNL     1      44.394   7.010  11.418  0.00  0.00    +0.000 A 
ATOM      4  C   UNL     1      44.650   5.664  11.691  0.00  0.00    +0.000 A 
ATOM      5  C   UNL     1      45.835   5.321  12.356  0.00  0.00    +0.000 A 
ATOM      6  C   UNL     1      46.774   6.298  12.747  0.00  0.00    +0.000 A 
ENDROOT
BRANCH   1   8
ATOM      7  N   UNL     1      47.351   9.535  13.694  0.00  0.00    +0.000 N 
ATOM      8  C   UNL     1      47.549   8.709  12.621  0.00  0.00    +0.000 C 
ATOM      9  O   UNL     1      48.511   8.867  11.881  0.00  0.00    +0.000 OA
ATOM     10  H   UNL     1      48.030  10.267  13.854  0.00  0.00    +0.000 HD
ATOM     11  H   UNL     1      46.654   9.369  14.406  0.00  0.00    +0.000 HD
ENDBRANCH   1   8
BRANCH   4  12
ATOM     12  C   UNL     1      43.646   4.602  11.302  0.00  0.00    +0.000 C 
BRANCH  12  13
ATOM     13  N   UNL     1      43.917   3.955   9.995  0.00  0.00    +0.000 NA
ATOM     14  C   UNL     1      45.003   4.660   9.289  0.00  0.00    +0.000 C 
ATOM     15  C   UNL     1      45.512   3.923   8.049  0.00  0.00    +0.000 C 
ATOM     16  C   UNL     1      45.917   2.497   8.390  0.00  0.00    +0.000 C 
ATOM     17  C   UNL     1      44.729   1.780   9.010  0.00  0.00    +0.000 C 
ATOM     18  C   UNL     1      44.215   2.533  10.237  0.00  0.00    +0.000 C 
ENDBRANCH  12  13
ENDBRANCH   4  12
BRANCH   6  19
ATOM     19  C   UNL     1      47.976   5.848  13.539  0.00  0.00    +0.000 C 
BRANCH  19  20
ATOM     20  N   UNL     1      47.808   6.058  14.950  0.00  0.00    +0.000 N 
ATOM     21  C   UNL     1      48.829   6.396  15.793  0.00  0.00    +0.000 C 
ATOM     22  O   UNL     1      49.969   6.629  15.401  0.00  0.00    +0.000 OA
ATOM     23  H   UNL     1      46.879   5.852  15.308  0.00  0.00    +0.000 HD
BRANCH  21  24
ATOM     24  C   UNL     1      48.461   6.531  17.208  0.00  0.00    +0.000 A 
ATOM     25  C   UNL     1      48.365   5.408  18.016  0.00  0.00    +0.000 A 
ATOM     26  S   UNL     1      47.968   5.771  19.636  0.00  0.00    +0.000 S 
ATOM     27  C   UNL     1      47.859   7.436  19.297  0.00  0.00    +0.000 A 
ATOM     28  N   UNL     1      47.525   8.327  20.267  0.00  0.00    +0.000 NA
ATOM     29  C   UNL     1      47.447   9.554  19.860  0.00  0.00    +0.000 A 
ATOM     30  N   UNL     1      47.677   9.965  18.573  0.00  0.00    +0.000 N 
ATOM     31  C   UNL     1      48.016   9.100  17.559  0.00  0.00    +0.000 A 
ATOM     32  O   UNL     1      48.199   9.505  16.417  0.00  0.00    +0.000 OA
ATOM     33  C   UNL     1      48.130   7.711  17.968  0.00  0.00    +0.000 A 
ATOM     34  H   UNL     1      47.598  10.938  18.316  0.00  0.00    +0.000 HD
ENDBRANCH  21  24
ENDBRANCH  19  20
ENDBRANCH   6  19
TORSDOF 6
ENDMDL
