MODEL 1
REMARK VINA RESULT:    -8.153      0.000      0.000
REMARK INTER + INTRA:         -12.705
REMARK INTER:                 -11.490
REMARK INTRA:                  -1.215
REMARK UNBOUND:                -1.215
REMARK  Name = 
REMARK  8 active torsions:
REMARK  status: ('A' for Active; 'I' for Inactive)
REMARK    1  A    between atoms: C_1  and  C_2
REMARK    2  A    between atoms: C_7  and  C_8
REMARK    3  A    between atoms: C_8  and  N_9
REMARK    4  A    between atoms: N_9  and  C_10
REMARK    5  A    between atoms: C_10  and  C_11
REMARK    6  A    between atoms: C_14  and  C_15
REMARK    7  A    between atoms: C_15  and  N_16
REMARK    8  A    between atoms: C_17  and  C_19
REMARK                            x       y       z     vdW  Elec       q    Type
REMARK                         _______ _______ _______ _____ _____    ______ ____
ROOT
ATOM      1  C   UNL     1      44.688   4.073  11.521  0.00  0.00    +0.000 A 
ATOM      2  C   UNL     1      45.242   3.916  12.798  0.00  0.00    +0.000 A 
ATOM      3  C   UNL     1      46.146   4.862  13.316  0.00  0.00    +0.000 A 
ATOM      4  C   UNL     1      46.525   5.989  12.570  0.00  0.00    +0.000 A 
ATOM      5  C   UNL     1      45.981   6.145  11.291  0.00  0.00    +0.000 A 
ATOM      6  C   UNL     1      45.073   5.204  10.780  0.00  0.00    +0.000 A 
ENDROOT
BRANCH   1   7
ATOM      7  C   UNL     1      43.851   2.991  10.859  0.00  0.00    +0.000 C 
BRANCH   7   8
ATOM      8  N   UNL     1      43.991   2.826   9.396  0.00  0.00    +0.000 NA
ATOM      9  H   UNL     1      43.187   2.309   9.046  0.00  0.00    +0.000 HD
BRANCH   8  10
ATOM     10  C   UNL     1      45.210   2.018   9.148  0.00  0.00    +0.000 C 
BRANCH  10  17
ATOM     11  C   UNL     1      46.705  -0.152   7.789  0.00  0.00    +0.000 C 
ATOM     12  C   UNL     1      46.757   1.264   7.274  0.00  0.00    +0.000 A 
ATOM     13  C   UNL     1      47.545   1.522   6.140  0.00  0.00    +0.000 A 
ATOM     14  C   UNL     1      47.639   2.809   5.620  0.00  0.00    +0.000 A 
ATOM     15  C   UNL     1      46.954   3.849   6.237  0.00  0.00    +0.000 A 
ATOM     16  C   UNL     1      46.172   3.613   7.377  0.00  0.00    +0.000 A 
ATOM     17  C   UNL     1      46.051   2.323   7.916  0.00  0.00    +0.000 A 
ENDBRANCH  10  17
ENDBRANCH   8  10
ENDBRANCH   7   8
ENDBRANCH   1   7
BRANCH   4  18
ATOM     18  C   UNL     1      47.541   6.971  13.107  0.00  0.00    +0.000 C 
BRANCH  18  19
ATOM     19  N   UNL     1      47.713   6.829  14.534  0.00  0.00    +0.000 N 
ATOM     20  C   UNL     1      48.954   6.867  15.120  0.00  0.00    +0.000 C 
ATOM     21  O   UNL     1      49.975   7.054  14.462  0.00  0.00    +0.000 OA
ATOM     22  H   UNL     1      46.924   6.463  15.059  0.00  0.00    +0.000 HD
BRANCH  20  23
ATOM     23  C   UNL     1      49.005   6.734  16.584  0.00  0.00    +0.000 A 
ATOM     24  C   UNL     1      49.410   7.815  17.358  0.00  0.00    +0.000 A 
ATOM     25  S   UNL     1      49.393   7.507  19.035  0.00  0.00    +0.000 S 
ATOM     26  C   UNL     1      48.893   5.902  18.789  0.00  0.00    +0.000 A 
ATOM     27  N   UNL     1      48.720   5.054  19.840  0.00  0.00    +0.000 NA
ATOM     28  C   UNL     1      48.355   3.862  19.511  0.00  0.00    +0.000 A 
ATOM     29  N   UNL     1      48.140   3.440  18.223  0.00  0.00    +0.000 N 
ATOM     30  C   UNL     1      48.273   4.266  17.131  0.00  0.00    +0.000 A 
ATOM     31  O   UNL     1      48.023   3.870  16.000  0.00  0.00    +0.000 OA
ATOM     32  C   UNL     1      48.705   5.614  17.447  0.00  0.00    +0.000 A 
ATOM     33  H   UNL     1      47.841   2.495  18.033  0.00  0.00    +0.000 HD
ENDBRANCH  20  23
ENDBRANCH  18  19
ENDBRANCH   4  18
TORSDOF 7
ENDMDL
MODEL 2
REMARK VINA RESULT:    -7.945      0.956      1.819
REMARK INTER + INTRA:         -12.412
REMARK INTER:                 -11.082
REMARK INTRA:                  -1.330
REMARK UNBOUND:                -1.215
REMARK  Name = 
REMARK  8 active torsions:
REMARK  status: ('A' for Active; 'I' for Inactive)
REMARK    1  A    between atoms: C_1  and  C_2
REMARK    2  A    between atoms: C_7  and  C_8
REMARK    3  A    between atoms: C_8  and  N_9
REMARK    4  A    between atoms: N_9  and  C_10
REMARK    5  A    between atoms: C_10  and  C_11
REMARK    6  A    between atoms: C_14  and  C_15
REMARK    7  A    between atoms: C_15  and  N_16
REMARK    8  A    between atoms: C_17  and  C_19
REMARK                            x       y       z     vdW  Elec       q    Type
REMARK                         _______ _______ _______ _____ _____    ______ ____
ROOT
ATOM      1  C   UNL     1      45.084   4.418  12.003  0.00  0.00    +0.000 A 
ATOM      2  C   UNL     1      45.334   5.670  11.427  0.00  0.00    +0.000 A 
ATOM      3  C   UNL     1      46.340   6.513  11.936  0.00  0.00    +0.000 A 
ATOM      4  C   UNL     1      47.120   6.130  13.038  0.00  0.00    +0.000 A 
ATOM      5  C   UNL     1      46.868   4.884  13.622  0.00  0.00    +0.000 A 
ATOM      6  C   UNL     1      45.870   4.041  13.108  0.00  0.00    +0.000 A 
ENDROOT
BRANCH   1   7
ATOM      7  C   UNL     1      43.898   3.558  11.598  0.00  0.00    +0.000 C 
BRANCH   7   8
ATOM      8  N   UNL     1      44.173   2.385  10.741  0.00  0.00    +0.000 NA
ATOM      9  H   UNL     1      45.058   1.971  11.026  0.00  0.00    +0.000 HD
BRANCH   8  10
ATOM     10  C   UNL     1      44.310   2.868   9.345  0.00  0.00    +0.000 C 
BRANCH  10  17
ATOM     11  C   UNL     1      46.105   4.816   8.011  0.00  0.00    +0.000 C 
ATOM     12  C   UNL     1      46.343   3.332   7.886  0.00  0.00    +0.000 A 
ATOM     13  C   UNL     1      47.432   2.904   7.109  0.00  0.00    +0.000 A 
ATOM     14  C   UNL     1      47.700   1.549   6.949  0.00  0.00    +0.000 A 
ATOM     15  C   UNL     1      46.874   0.610   7.558  0.00  0.00    +0.000 A 
ATOM     16  C   UNL     1      45.775   1.018   8.328  0.00  0.00    +0.000 A 
ATOM     17  C   UNL     1      45.488   2.379   8.514  0.00  0.00    +0.000 A 
ENDBRANCH  10  17
ENDBRANCH   8  10
ENDBRANCH   7   8
ENDBRANCH   1   7
BRANCH   4  18
ATOM     18  C   UNL     1      48.159   7.062  13.618  0.00  0.00    +0.000 C 
BRANCH  18  19
ATOM     19  N   UNL     1      48.213   6.965  15.059  0.00  0.00    +0.000 N 
ATOM     20  C   UNL     1      49.330   7.336  15.767  0.00  0.00    +0.000 C 
ATOM     21  O   UNL     1      50.325   7.796  15.212  0.00  0.00    +0.000 OA
ATOM     22  H   UNL     1      47.503   6.395  15.509  0.00  0.00    +0.000 HD
BRANCH  20  23
ATOM     23  C   UNL     1      49.262   7.214  17.231  0.00  0.00    +0.000 A 
ATOM     24  C   UNL     1      49.356   8.354  18.020  0.00  0.00    +0.000 A 
ATOM     25  S   UNL     1      49.237   8.047  19.693  0.00  0.00    +0.000 S 
ATOM     26  C   UNL     1      49.106   6.373  19.430  0.00  0.00    +0.000 A 
ATOM     27  N   UNL     1      49.009   5.507  20.476  0.00  0.00    +0.000 NA
ATOM     28  C   UNL     1      48.932   4.266  20.135  0.00  0.00    +0.000 A 
ATOM     29  N   UNL     1      48.938   3.809  18.841  0.00  0.00    +0.000 N 
ATOM     30  C   UNL     1      49.005   4.647  17.752  0.00  0.00    +0.000 A 
ATOM     31  O   UNL     1      48.955   4.209  16.610  0.00  0.00    +0.000 OA
ATOM     32  C   UNL     1      49.115   6.055  18.082  0.00  0.00    +0.000 A 
ATOM     33  H   UNL     1      48.860   2.824  18.641  0.00  0.00    +0.000 HD
ENDBRANCH  20  23
ENDBRANCH  18  19
ENDBRANCH   4  18
TORSDOF 7
ENDMDL
MODEL 3
REMARK VINA RESULT:    -7.613      1.824      2.253
REMARK INTER + INTRA:         -11.943
REMARK INTER:                 -10.794
REMARK INTRA:                  -1.149
REMARK UNBOUND:                -1.215
REMARK  Name = 
REMARK  8 active torsions:
REMARK  status: ('A' for Active; 'I' for Inactive)
REMARK    1  A    between atoms: C_1  and  C_2
REMARK    2  A    between atoms: C_7  and  C_8
REMARK    3  A    between atoms: C_8  and  N_9
REMARK    4  A    between atoms: N_9  and  C_10
REMARK    5  A    between atoms: C_10  and  C_11
REMARK    6  A    between atoms: C_14  and  C_15
REMARK    7  A    between atoms: C_15  and  N_16
REMARK    8  A    between atoms: C_17  and  C_19
REMARK                            x       y       z     vdW  Elec       q    Type
REMARK                         _______ _______ _______ _____ _____    ______ ____
ROOT
ATOM      1  C   UNL     1      44.874   4.854  11.864  0.00  0.00    +0.000 A 
ATOM      2  C   UNL     1      45.804   4.502  12.851  0.00  0.00    +0.000 A 
ATOM      3  C   UNL     1      46.673   5.462  13.401  0.00  0.00    +0.000 A 
ATOM      4  C   UNL     1      46.641   6.799  12.977  0.00  0.00    +0.000 A 
ATOM      5  C   UNL     1      45.721   7.153  11.986  0.00  0.00    +0.000 A 
ATOM      6  C   UNL     1      44.848   6.196  11.444  0.00  0.00    +0.000 A 
ENDROOT
BRANCH   1   7
ATOM      7  C   UNL     1      44.044   3.819  11.123  0.00  0.00    +0.000 C 
BRANCH   7   8
ATOM      8  N   UNL     1      44.694   2.529  10.807  0.00  0.00    +0.000 NA
ATOM      9  H   UNL     1      45.698   2.625  10.948  0.00  0.00    +0.000 HD
BRANCH   8  10
ATOM     10  C   UNL     1      44.449   2.239   9.373  0.00  0.00    +0.000 C 
BRANCH  10  17
ATOM     11  C   UNL     1      45.683   4.692   8.254  0.00  0.00    +0.000 C 
ATOM     12  C   UNL     1      46.225   3.327   7.912  0.00  0.00    +0.000 A 
ATOM     13  C   UNL     1      47.323   3.256   7.037  0.00  0.00    +0.000 A 
ATOM     14  C   UNL     1      47.863   2.027   6.677  0.00  0.00    +0.000 A 
ATOM     15  C   UNL     1      47.304   0.857   7.181  0.00  0.00    +0.000 A 
ATOM     16  C   UNL     1      46.201   0.908   8.045  0.00  0.00    +0.000 A 
ATOM     17  C   UNL     1      45.642   2.135   8.433  0.00  0.00    +0.000 A 
ENDBRANCH  10  17
ENDBRANCH   8  10
ENDBRANCH   7   8
ENDBRANCH   1   7
BRANCH   4  18
ATOM     18  C   UNL     1      47.617   7.814  13.529  0.00  0.00    +0.000 C 
BRANCH  18  19
ATOM     19  N   UNL     1      48.701   7.175  14.238  0.00  0.00    +0.000 N 
ATOM     20  C   UNL     1      49.518   7.875  15.092  0.00  0.00    +0.000 C 
ATOM     21  O   UNL     1      49.347   9.071  15.316  0.00  0.00    +0.000 OA
ATOM     22  H   UNL     1      48.991   6.259  13.908  0.00  0.00    +0.000 HD
BRANCH  20  23
ATOM     23  C   UNL     1      50.575   7.116  15.776  0.00  0.00    +0.000 A 
ATOM     24  C   UNL     1      51.904   7.485  15.608  0.00  0.00    +0.000 A 
ATOM     25  S   UNL     1      53.004   6.522  16.485  0.00  0.00    +0.000 S 
ATOM     26  C   UNL     1      51.751   5.542  17.083  0.00  0.00    +0.000 A 
ATOM     27  N   UNL     1      52.019   4.478  17.889  0.00  0.00    +0.000 NA
ATOM     28  C   UNL     1      50.979   3.812  18.257  0.00  0.00    +0.000 A 
ATOM     29  N   UNL     1      49.690   4.114  17.897  0.00  0.00    +0.000 N 
ATOM     30  C   UNL     1      49.367   5.195  17.110  0.00  0.00    +0.000 A 
ATOM     31  O   UNL     1      48.201   5.467  16.851  0.00  0.00    +0.000 OA
ATOM     32  C   UNL     1      50.505   5.967  16.650  0.00  0.00    +0.000 A 
ATOM     33  H   UNL     1      48.917   3.560  18.232  0.00  0.00    +0.000 HD
ENDBRANCH  20  23
ENDBRANCH  18  19
ENDBRANCH   4  18
TORSDOF 7
ENDMDL
MODEL 4
REMARK VINA RESULT:    -7.426      3.116      8.912
REMARK INTER + INTRA:         -11.680
REMARK INTER:                  -9.718
REMARK INTRA:                  -1.962
REMARK UNBOUND:                -1.215
REMARK  Name = 
REMARK  8 active torsions:
REMARK  status: ('A' for Active; 'I' for Inactive)
REMARK    1  A    between atoms: C_1  and  C_2
REMARK    2  A    between atoms: C_7  and  C_8
REMARK    3  A    between atoms: C_8  and  N_9
REMARK    4  A    between atoms: N_9  and  C_10
REMARK    5  A    between atoms: C_10  and  C_11
REMARK    6  A    between atoms: C_14  and  C_15
REMARK    7  A    between atoms: C_15  and  N_16
REMARK    8  A    between atoms: C_17  and  C_19
REMARK                            x       y       z     vdW  Elec       q    Type
REMARK                         _______ _______ _______ _____ _____    ______ ____
ROOT
ATOM      1  C   UNL     1      49.039   7.999  16.437  0.00  0.00    +0.000 A 
ATOM      2  C   UNL     1      49.456   6.942  15.617  0.00  0.00    +0.000 A 
ATOM      3  C   UNL     1      49.082   6.888  14.261  0.00  0.00    +0.000 A 
ATOM      4  C   UNL     1      48.278   7.885  13.689  0.00  0.00    +0.000 A 
ATOM      5  C   UNL     1      47.852   8.936  14.506  0.00  0.00    +0.000 A 
ATOM      6  C   UNL     1      48.232   8.993  15.856  0.00  0.00    +0.000 A 
ENDROOT
BRANCH   1   7
ATOM      7  C   UNL     1      49.272   8.003  17.939  0.00  0.00    +0.000 C 
BRANCH   7   8
ATOM      8  N   UNL     1      48.135   7.614  18.801  0.00  0.00    +0.000 NA
ATOM      9  H   UNL     1      48.048   8.294  19.554  0.00  0.00    +0.000 HD
BRANCH   8  10
ATOM     10  C   UNL     1      48.451   6.293  19.398  0.00  0.00    +0.000 C 
BRANCH  10  17
ATOM     11  C   UNL     1      50.916   4.693  19.005  0.00  0.00    +0.000 C 
ATOM     12  C   UNL     1      49.624   4.303  18.333  0.00  0.00    +0.000 A 
ATOM     13  C   UNL     1      49.630   3.166  17.507  0.00  0.00    +0.000 A 
ATOM     14  C   UNL     1      48.472   2.759  16.853  0.00  0.00    +0.000 A 
ATOM     15  C   UNL     1      47.301   3.491  17.014  0.00  0.00    +0.000 A 
ATOM     16  C   UNL     1      47.278   4.635  17.825  0.00  0.00    +0.000 A 
ATOM     17  C   UNL     1      48.430   5.062  18.503  0.00  0.00    +0.000 A 
ENDBRANCH  10  17
ENDBRANCH   8  10
ENDBRANCH   7   8
ENDBRANCH   1   7
BRANCH   4  18
ATOM     18  C   UNL     1      47.831   7.792  12.247  0.00  0.00    +0.000 C 
BRANCH  18  19
ATOM     19  N   UNL     1      47.078   6.583  12.003  0.00  0.00    +0.000 N 
ATOM     20  C   UNL     1      45.706   6.564  12.051  0.00  0.00    +0.000 C 
ATOM     21  O   UNL     1      45.051   7.580  12.274  0.00  0.00    +0.000 OA
ATOM     22  H   UNL     1      47.591   5.707  12.034  0.00  0.00    +0.000 HD
BRANCH  20  23
ATOM     23  C   UNL     1      45.046   5.281  11.763  0.00  0.00    +0.000 A 
ATOM     24  C   UNL     1      44.339   4.633  12.769  0.00  0.00    +0.000 A 
ATOM     25  S   UNL     1      43.614   3.172  12.270  0.00  0.00    +0.000 S 
ATOM     26  C   UNL     1      44.260   3.324  10.706  0.00  0.00    +0.000 A 
ATOM     27  N   UNL     1      44.044   2.365   9.763  0.00  0.00    +0.000 NA
ATOM     28  C   UNL     1      44.605   2.598   8.626  0.00  0.00    +0.000 A 
ATOM     29  N   UNL     1      45.358   3.708   8.340  0.00  0.00    +0.000 N 
ATOM     30  C   UNL     1      45.579   4.718   9.249  0.00  0.00    +0.000 A 
ATOM     31  O   UNL     1      46.214   5.720   8.943  0.00  0.00    +0.000 OA
ATOM     32  C   UNL     1      44.988   4.493  10.554  0.00  0.00    +0.000 A 
ATOM     33  H   UNL     1      45.758   3.838   7.424  0.00  0.00    +0.000 HD
ENDBRANCH  20  23
ENDBRANCH  18  19
ENDBRANCH   4  18
TORSDOF 7
ENDMDL
MODEL 5
REMARK VINA RESULT:    -7.374      1.890      2.966
REMARK INTER + INTRA:         -11.606
REMARK INTER:                 -10.453
REMARK INTRA:                  -1.154
REMARK UNBOUND:                -1.215
REMARK  Name = 
REMARK  8 active torsions:
REMARK  status: ('A' for Active; 'I' for Inactive)
REMARK    1  A    between atoms: C_1  and  C_2
REMARK    2  A    between atoms: C_7  and  C_8
REMARK    3  A    between atoms: C_8  and  N_9
REMARK    4  A    between atoms: N_9  and  C_10
REMARK    5  A    between atoms: C_10  and  C_11
REMARK    6  A    between atoms: C_14  and  C_15
REMARK    7  A    between atoms: C_15  and  N_16
REMARK    8  A    between atoms: C_17  and  C_19
REMARK                            x       y       z     vdW  Elec       q    Type
REMARK                         _______ _______ _______ _____ _____    ______ ____
ROOT
ATOM      1  C   UNL     1      44.963   4.969  11.776  0.00  0.00    +0.000 A 
ATOM      2  C   UNL     1      45.586   6.137  11.316  0.00  0.00    +0.000 A 
ATOM      3  C   UNL     1      46.688   6.685  11.999  0.00  0.00    +0.000 A 
ATOM      4  C   UNL     1      47.195   6.085  13.161  0.00  0.00    +0.000 A 
ATOM      5  C   UNL     1      46.570   4.924  13.628  0.00  0.00    +0.000 A 
ATOM      6  C   UNL     1      45.476   4.373  12.942  0.00  0.00    +0.000 A 
ENDROOT
BRANCH   1   7
ATOM      7  C   UNL     1      43.669   4.446  11.173  0.00  0.00    +0.000 C 
BRANCH   7   8
ATOM      8  N   UNL     1      43.759   3.248  10.311  0.00  0.00    +0.000 NA
ATOM      9  H   UNL     1      44.331   2.549  10.780  0.00  0.00    +0.000 HD
BRANCH   8  10
ATOM     10  C   UNL     1      44.442   3.645   9.055  0.00  0.00    +0.000 C 
BRANCH  10  17
ATOM     11  C   UNL     1      46.716   4.691   7.466  0.00  0.00    +0.000 C 
ATOM     12  C   UNL     1      46.536   3.209   7.679  0.00  0.00    +0.000 A 
ATOM     13  C   UNL     1      47.473   2.343   7.090  0.00  0.00    +0.000 A 
ATOM     14  C   UNL     1      47.358   0.965   7.243  0.00  0.00    +0.000 A 
ATOM     15  C   UNL     1      46.299   0.443   7.979  0.00  0.00    +0.000 A 
ATOM     16  C   UNL     1      45.349   1.292   8.564  0.00  0.00    +0.000 A 
ATOM     17  C   UNL     1      45.446   2.686   8.433  0.00  0.00    +0.000 A 
ENDBRANCH  10  17
ENDBRANCH   8  10
ENDBRANCH   7   8
ENDBRANCH   1   7
BRANCH   4  18
ATOM     18  C   UNL     1      48.341   6.709  13.924  0.00  0.00    +0.000 C 
BRANCH  18  19
ATOM     19  N   UNL     1      48.083   6.730  15.345  0.00  0.00    +0.000 N 
ATOM     20  C   UNL     1      49.076   6.496  16.264  0.00  0.00    +0.000 C 
ATOM     21  O   UNL     1      50.238   6.286  15.922  0.00  0.00    +0.000 OA
ATOM     22  H   UNL     1      47.111   6.684  15.638  0.00  0.00    +0.000 HD
BRANCH  20  23
ATOM     23  C   UNL     1      48.702   6.564  17.684  0.00  0.00    +0.000 A 
ATOM     24  C   UNL     1      48.817   5.431  18.480  0.00  0.00    +0.000 A 
ATOM     25  S   UNL     1      48.366   5.681  20.106  0.00  0.00    +0.000 S 
ATOM     26  C   UNL     1      47.951   7.300  19.797  0.00  0.00    +0.000 A 
ATOM     27  N   UNL     1      47.447   8.093  20.782  0.00  0.00    +0.000 NA
ATOM     28  C   UNL     1      47.160   9.292  20.408  0.00  0.00    +0.000 A 
ATOM     29  N   UNL     1      47.336   9.776  19.136  0.00  0.00    +0.000 N 
ATOM     30  C   UNL     1      47.869   9.023  18.115  0.00  0.00    +0.000 A 
ATOM     31  O   UNL     1      48.061   9.503  17.005  0.00  0.00    +0.000 OA
ATOM     32  C   UNL     1      48.189   7.656  18.479  0.00  0.00    +0.000 A 
ATOM     33  H   UNL     1      47.104  10.732  18.911  0.00  0.00    +0.000 HD
ENDBRANCH  20  23
ENDBRANCH  18  19
ENDBRANCH   4  18
TORSDOF 7
ENDMDL
MODEL 6
REMARK VINA RESULT:    -7.254      4.060      4.997
REMARK INTER + INTRA:         -11.438
REMARK INTER:                 -10.333
REMARK INTRA:                  -1.105
REMARK UNBOUND:                -1.215
REMARK  Name = 
REMARK  8 active torsions:
REMARK  status: ('A' for Active; 'I' for Inactive)
REMARK    1  A    between atoms: C_1  and  C_2
REMARK    2  A    between atoms: C_7  and  C_8
REMARK    3  A    between atoms: C_8  and  N_9
REMARK    4  A    between atoms: N_9  and  C_10
REMARK    5  A    between atoms: C_10  and  C_11
REMARK    6  A    between atoms: C_14  and  C_15
REMARK    7  A    between atoms: C_15  and  N_16
REMARK    8  A    between atoms: C_17  and  C_19
REMARK                            x       y       z     vdW  Elec       q    Type
REMARK                         _______ _______ _______ _____ _____    ______ ____
ROOT
ATOM      1  C   UNL     1      44.594   4.337  11.450  0.00  0.00    +0.000 A 
ATOM      2  C   UNL     1      44.877   5.396  10.578  0.00  0.00    +0.000 A 
ATOM      3  C   UNL     1      45.239   6.664  11.072  0.00  0.00    +0.000 A 
ATOM      4  C   UNL     1      45.322   6.909  12.450  0.00  0.00    +0.000 A 
ATOM      5  C   UNL     1      45.031   5.858  13.325  0.00  0.00    +0.000 A 
ATOM      6  C   UNL     1      44.679   4.592  12.831  0.00  0.00    +0.000 A 
ENDROOT
BRANCH   1   7
ATOM      7  C   UNL     1      44.032   3.011  10.965  0.00  0.00    +0.000 C 
BRANCH   7   8
ATOM      8  N   UNL     1      44.011   2.779   9.504  0.00  0.00    +0.000 NA
ATOM      9  H   UNL     1      43.154   2.285   9.263  0.00  0.00    +0.000 HD
BRANCH   8  10
ATOM     10  C   UNL     1      45.163   1.906   9.170  0.00  0.00    +0.000 C 
BRANCH  10  17
ATOM     11  C   UNL     1      46.702  -0.205   7.767  0.00  0.00    +0.000 C 
ATOM     12  C   UNL     1      46.749   1.228   7.300  0.00  0.00    +0.000 A 
ATOM     13  C   UNL     1      47.554   1.530   6.189  0.00  0.00    +0.000 A 
ATOM     14  C   UNL     1      47.646   2.834   5.714  0.00  0.00    +0.000 A 
ATOM     15  C   UNL     1      46.940   3.848   6.353  0.00  0.00    +0.000 A 
ATOM     16  C   UNL     1      46.141   3.567   7.471  0.00  0.00    +0.000 A 
ATOM     17  C   UNL     1      46.023   2.258   7.964  0.00  0.00    +0.000 A 
ENDBRANCH  10  17
ENDBRANCH   8  10
ENDBRANCH   7   8
ENDBRANCH   1   7
BRANCH   4  18
ATOM     18  C   UNL     1      45.653   8.287  12.977  0.00  0.00    +0.000 C 
BRANCH  18  19
ATOM     19  N   UNL     1      47.006   8.670  12.644  0.00  0.00    +0.000 N 
ATOM     20  C   UNL     1      47.281   9.815  11.937  0.00  0.00    +0.000 C 
ATOM     21  O   UNL     1      46.391  10.584  11.580  0.00  0.00    +0.000 OA
ATOM     22  H   UNL     1      47.723   7.955  12.734  0.00  0.00    +0.000 HD
BRANCH  20  23
ATOM     23  C   UNL     1      48.696  10.115  11.675  0.00  0.00    +0.000 A 
ATOM     24  C   UNL     1      49.107  11.437  11.554  0.00  0.00    +0.000 A 
ATOM     25  S   UNL     1      50.780  11.617  11.276  0.00  0.00    +0.000 S 
ATOM     26  C   UNL     1      51.011   9.933  11.256  0.00  0.00    +0.000 A 
ATOM     27  N   UNL     1      52.242   9.399  11.022  0.00  0.00    +0.000 NA
ATOM     28  C   UNL     1      52.272   8.110  11.019  0.00  0.00    +0.000 A 
ATOM     29  N   UNL     1      51.184   7.303  11.234  0.00  0.00    +0.000 N 
ATOM     30  C   UNL     1      49.928   7.795  11.503  0.00  0.00    +0.000 A 
ATOM     31  O   UNL     1      48.989   7.046  11.741  0.00  0.00    +0.000 OA
ATOM     32  C   UNL     1      49.834   9.243  11.496  0.00  0.00    +0.000 A 
ATOM     33  H   UNL     1      51.278   6.299  11.232  0.00  0.00    +0.000 HD
ENDBRANCH  20  23
ENDBRANCH  18  19
ENDBRANCH   4  18
TORSDOF 7
ENDMDL
MODEL 7
REMARK VINA RESULT:    -7.247      4.237     10.237
REMARK INTER + INTRA:         -11.428
REMARK INTER:                  -9.824
REMARK INTRA:                  -1.604
REMARK UNBOUND:                -1.215
REMARK  Name = 
REMARK  8 active torsions:
REMARK  status: ('A' for Active; 'I' for Inactive)
REMARK    1  A    between atoms: C_1  and  C_2
REMARK    2  A    between atoms: C_7  and  C_8
REMARK    3  A    between atoms: C_8  and  N_9
REMARK    4  A    between atoms: N_9  and  C_10
REMARK    5  A    between atoms: C_10  and  C_11
REMARK    6  A    between atoms: C_14  and  C_15
REMARK    7  A    between atoms: C_15  and  N_16
REMARK    8  A    between atoms: C_17  and  C_19
REMARK                            x       y       z     vdW  Elec       q    Type
REMARK                         _______ _______ _______ _____ _____    ______ ____
ROOT
ATOM      1  C   UNL     1      51.539   3.324  17.680  0.00  0.00    +0.000 A 
ATOM      2  C   UNL     1      50.850   2.152  17.337  0.00  0.00    +0.000 A 
ATOM      3  C   UNL     1      49.470   2.178  17.065  0.00  0.00    +0.000 A 
ATOM      4  C   UNL     1      48.738   3.373  17.133  0.00  0.00    +0.000 A 
ATOM      5  C   UNL     1      49.419   4.543  17.483  0.00  0.00    +0.000 A 
ATOM      6  C   UNL     1      50.798   4.517  17.746  0.00  0.00    +0.000 A 
ENDROOT
BRANCH   1   7
ATOM      7  C   UNL     1      52.984   3.310  18.150  0.00  0.00    +0.000 C 
BRANCH   7   8
ATOM      8  N   UNL     1      53.251   2.773  19.502  0.00  0.00    +0.000 NA
ATOM      9  H   UNL     1      52.388   2.383  19.876  0.00  0.00    +0.000 HD
BRANCH   8  10
ATOM     10  C   UNL     1      53.664   3.906  20.365  0.00  0.00    +0.000 C 
BRANCH  10  17
ATOM     11  C   UNL     1      54.031   6.714  19.487  0.00  0.00    +0.000 C 
ATOM     12  C   UNL     1      52.823   6.306  20.292  0.00  0.00    +0.000 A 
ATOM     13  C   UNL     1      51.886   7.300  20.622  0.00  0.00    +0.000 A 
ATOM     14  C   UNL     1      50.755   6.988  21.369  0.00  0.00    +0.000 A 
ATOM     15  C   UNL     1      50.557   5.681  21.799  0.00  0.00    +0.000 A 
ATOM     16  C   UNL     1      51.487   4.678  21.490  0.00  0.00    +0.000 A 
ATOM     17  C   UNL     1      52.632   4.963  20.730  0.00  0.00    +0.000 A 
ENDBRANCH  10  17
ENDBRANCH   8  10
ENDBRANCH   7   8
ENDBRANCH   1   7
BRANCH   4  18
ATOM     18  C   UNL     1      47.245   3.386  16.897  0.00  0.00    +0.000 C 
BRANCH  18  19
ATOM     19  N   UNL     1      46.870   4.387  15.925  0.00  0.00    +0.000 N 
ATOM     20  C   UNL     1      46.935   4.143  14.575  0.00  0.00    +0.000 C 
ATOM     21  O   UNL     1      47.285   3.052  14.130  0.00  0.00    +0.000 OA
ATOM     22  H   UNL     1      46.791   5.344  16.256  0.00  0.00    +0.000 HD
BRANCH  20  23
ATOM     23  C   UNL     1      46.508   5.228  13.680  0.00  0.00    +0.000 A 
ATOM     24  C   UNL     1      47.335   6.329  13.492  0.00  0.00    +0.000 A 
ATOM     25  S   UNL     1      46.709   7.487  12.408  0.00  0.00    +0.000 S 
ATOM     26  C   UNL     1      45.285   6.586  12.187  0.00  0.00    +0.000 A 
ATOM     27  N   UNL     1      44.284   7.045  11.385  0.00  0.00    +0.000 NA
ATOM     28  C   UNL     1      43.256   6.271  11.319  0.00  0.00    +0.000 A 
ATOM     29  N   UNL     1      43.136   5.074  11.978  0.00  0.00    +0.000 N 
ATOM     30  C   UNL     1      44.130   4.555  12.776  0.00  0.00    +0.000 A 
ATOM     31  O   UNL     1      44.010   3.459  13.308  0.00  0.00    +0.000 OA
ATOM     32  C   UNL     1      45.302   5.399  12.901  0.00  0.00    +0.000 A 
ATOM     33  H   UNL     1      42.308   4.508  11.873  0.00  0.00    +0.000 HD
ENDBRANCH  20  23
ENDBRANCH  18  19
ENDBRANCH   4  18
TORSDOF 7
ENDMDL
MODEL 8
REMARK VINA RESULT:    -7.195      4.173      9.534
REMARK INTER + INTRA:         -11.355
REMARK INTER:                  -9.179
REMARK INTRA:                  -2.176
REMARK UNBOUND:                -1.215
REMARK  Name = 
REMARK  8 active torsions:
REMARK  status: ('A' for Active; 'I' for Inactive)
REMARK    1  A    between atoms: C_1  and  C_2
REMARK    2  A    between atoms: C_7  and  C_8
REMARK    3  A    between atoms: C_8  and  N_9
REMARK    4  A    between atoms: N_9  and  C_10
REMARK    5  A    between atoms: C_10  and  C_11
REMARK    6  A    between atoms: C_14  and  C_15
REMARK    7  A    between atoms: C_15  and  N_16
REMARK    8  A    between atoms: C_17  and  C_19
REMARK                            x       y       z     vdW  Elec       q    Type
REMARK                         _______ _______ _______ _____ _____    ______ ____
ROOT
ATOM      1  C   UNL     1      48.755   5.880  20.106  0.00  0.00    +0.000 A 
ATOM      2  C   UNL     1      47.442   5.986  19.630  0.00  0.00    +0.000 A 
ATOM      3  C   UNL     1      47.020   5.259  18.501  0.00  0.00    +0.000 A 
ATOM      4  C   UNL     1      47.901   4.410  17.813  0.00  0.00    +0.000 A 
ATOM      5  C   UNL     1      49.215   4.307  18.280  0.00  0.00    +0.000 A 
ATOM      6  C   UNL     1      49.632   5.027  19.411  0.00  0.00    +0.000 A 
ENDROOT
BRANCH   1   7
ATOM      7  C   UNL     1      49.296   6.777  21.207  0.00  0.00    +0.000 C 
BRANCH   7   8
ATOM      8  N   UNL     1      50.523   7.548  20.911  0.00  0.00    +0.000 NA
ATOM      9  H   UNL     1      50.979   7.788  21.789  0.00  0.00    +0.000 HD
BRANCH   8  10
ATOM     10  C   UNL     1      50.114   8.806  20.238  0.00  0.00    +0.000 C 
BRANCH  10  17
ATOM     11  C   UNL     1      47.433   9.805  19.462  0.00  0.00    +0.000 C 
ATOM     12  C   UNL     1      48.376   9.239  18.432  0.00  0.00    +0.000 A 
ATOM     13  C   UNL     1      47.939   9.188  17.097  0.00  0.00    +0.000 A 
ATOM     14  C   UNL     1      48.760   8.671  16.101  0.00  0.00    +0.000 A 
ATOM     15  C   UNL     1      50.022   8.190  16.434  0.00  0.00    +0.000 A 
ATOM     16  C   UNL     1      50.471   8.221  17.762  0.00  0.00    +0.000 A 
ATOM     17  C   UNL     1      49.667   8.747  18.785  0.00  0.00    +0.000 A 
ENDBRANCH  10  17
ENDBRANCH   8  10
ENDBRANCH   7   8
ENDBRANCH   1   7
BRANCH   4  18
ATOM     18  C   UNL     1      47.460   3.675  16.567  0.00  0.00    +0.000 C 
BRANCH  18  19
ATOM     19  N   UNL     1      46.841   4.570  15.617  0.00  0.00    +0.000 N 
ATOM     20  C   UNL     1      46.784   4.274  14.277  0.00  0.00    +0.000 C 
ATOM     21  O   UNL     1      47.231   3.222  13.827  0.00  0.00    +0.000 OA
ATOM     22  H   UNL     1      46.667   5.522  15.926  0.00  0.00    +0.000 HD
BRANCH  20  23
ATOM     23  C   UNL     1      46.110   5.249  13.406  0.00  0.00    +0.000 A 
ATOM     24  C   UNL     1      46.747   6.443  13.090  0.00  0.00    +0.000 A 
ATOM     25  S   UNL     1      45.845   7.454  12.054  0.00  0.00    +0.000 S 
ATOM     26  C   UNL     1      44.547   6.357  12.029  0.00  0.00    +0.000 A 
ATOM     27  N   UNL     1      43.408   6.638  11.338  0.00  0.00    +0.000 NA
ATOM     28  C   UNL     1      42.498   5.728  11.416  0.00  0.00    +0.000 A 
ATOM     29  N   UNL     1      42.624   4.557  12.120  0.00  0.00    +0.000 N 
ATOM     30  C   UNL     1      43.765   4.216  12.809  0.00  0.00    +0.000 A 
ATOM     31  O   UNL     1      43.862   3.139  13.384  0.00  0.00    +0.000 OA
ATOM     32  C   UNL     1      44.813   5.218  12.771  0.00  0.00    +0.000 A 
ATOM     33  H   UNL     1      41.878   3.878  12.130  0.00  0.00    +0.000 HD
ENDBRANCH  20  23
ENDBRANCH  18  19
ENDBRANCH   4  18
TORSDOF 7
ENDMDL
MODEL 9
REMARK VINA RESULT:    -6.881      5.256      9.638
REMARK INTER + INTRA:         -10.912
REMARK INTER:                 -10.116
REMARK INTRA:                  -0.796
REMARK UNBOUND:                -1.215
REMARK  Name = 
REMARK  8 active torsions:
REMARK  status: ('A' for Active; 'I' for Inactive)
REMARK    1  A    between atoms: C_1  and  C_2
REMARK    2  A    between atoms: C_7  and  C_8
REMARK    3  A    between atoms: C_8  and  N_9
REMARK    4  A    between atoms: N_9  and  C_10
REMARK    5  A    between atoms: C_10  and  C_11
REMARK    6  A    between atoms: C_14  and  C_15
REMARK    7  A    between atoms: C_15  and  N_16
REMARK    8  A    between atoms: C_17  and  C_19
REMARK                            x       y       z     vdW  Elec       q    Type
REMARK                         _______ _______ _______ _____ _____    ______ ____
ROOT
ATOM      1  C   UNL     1      51.550   2.843  17.552  0.00  0.00    +0.000 A 
ATOM      2  C   UNL     1      50.705   1.828  17.084  0.00  0.00    +0.000 A 
ATOM      3  C   UNL     1      49.331   2.062  16.890  0.00  0.00    +0.000 A 
ATOM      4  C   UNL     1      48.762   3.315  17.163  0.00  0.00    +0.000 A 
ATOM      5  C   UNL     1      49.599   4.329  17.638  0.00  0.00    +0.000 A 
ATOM      6  C   UNL     1      50.971   4.097  17.823  0.00  0.00    +0.000 A 
ENDROOT
BRANCH   1   7
ATOM      7  C   UNL     1      52.996   2.584  17.940  0.00  0.00    +0.000 C 
BRANCH   7   8
ATOM      8  N   UNL     1      53.262   1.431  18.828  0.00  0.00    +0.000 NA
ATOM      9  H   UNL     1      53.247   1.751  19.794  0.00  0.00    +0.000 HD
BRANCH   8  10
ATOM     10  C   UNL     1      54.624   0.930  18.522  0.00  0.00    +0.000 C 
BRANCH  10  17
ATOM     11  C   UNL     1      54.938  -1.520  20.161  0.00  0.00    +0.000 C 
ATOM     12  C   UNL     1      54.914  -1.594  18.656  0.00  0.00    +0.000 A 
ATOM     13  C   UNL     1      55.057  -2.857  18.057  0.00  0.00    +0.000 A 
ATOM     14  C   UNL     1      55.050  -2.990  16.673  0.00  0.00    +0.000 A 
ATOM     15  C   UNL     1      54.909  -1.859  15.876  0.00  0.00    +0.000 A 
ATOM     16  C   UNL     1      54.777  -0.589  16.455  0.00  0.00    +0.000 A 
ATOM     17  C   UNL     1      54.771  -0.427  17.849  0.00  0.00    +0.000 A 
ENDBRANCH  10  17
ENDBRANCH   8  10
ENDBRANCH   7   8
ENDBRANCH   1   7
BRANCH   4  18
ATOM     18  C   UNL     1      47.276   3.546  17.009  0.00  0.00    +0.000 C 
BRANCH  18  19
ATOM     19  N   UNL     1      46.995   4.524  15.983  0.00  0.00    +0.000 N 
ATOM     20  C   UNL     1      47.050   4.208  14.648  0.00  0.00    +0.000 C 
ATOM     21  O   UNL     1      47.312   3.071  14.262  0.00  0.00    +0.000 OA
ATOM     22  H   UNL     1      46.993   5.500  16.266  0.00  0.00    +0.000 HD
BRANCH  20  23
ATOM     23  C   UNL     1      46.723   5.279  13.695  0.00  0.00    +0.000 A 
ATOM     24  C   UNL     1      47.666   6.261  13.415  0.00  0.00    +0.000 A 
ATOM     25  S   UNL     1      47.143   7.415  12.274  0.00  0.00    +0.000 S 
ATOM     26  C   UNL     1      45.618   6.677  12.148  0.00  0.00    +0.000 A 
ATOM     27  N   UNL     1      44.651   7.200  11.344  0.00  0.00    +0.000 NA
ATOM     28  C   UNL     1      43.538   6.551  11.355  0.00  0.00    +0.000 A 
ATOM     29  N   UNL     1      43.301   5.420  12.094  0.00  0.00    +0.000 N 
ATOM     30  C   UNL     1      44.254   4.837  12.898  0.00  0.00    +0.000 A 
ATOM     31  O   UNL     1      44.025   3.798  13.503  0.00  0.00    +0.000 OA
ATOM     32  C   UNL     1      45.521   5.543  12.938  0.00  0.00    +0.000 A 
ATOM     33  H   UNL     1      42.410   4.950  12.047  0.00  0.00    +0.000 HD
ENDBRANCH  20  23
ENDBRANCH  18  19
ENDBRANCH   4  18
TORSDOF 7
ENDMDL
