MODEL 1
REMARK VINA RESULT:    -8.771      0.000      0.000
REMARK INTER + INTRA:         -13.168
REMARK INTER:                 -11.847
REMARK INTRA:                  -1.321
REMARK UNBOUND:                -1.321
REMARK  Name = 
REMARK  6 active torsions:
REMARK  status: ('A' for Active; 'I' for Inactive)
REMARK    1  A    between atoms: C_2  and  C_19
REMARK    2  A    between atoms: N_3  and  C_4
REMARK    3  A    between atoms: C_4  and  C_5
REMARK    4  A    between atoms: C_8  and  C_9
REMARK    5  A    between atoms: C_9  and  C_10
REMARK    6  A    between atoms: C_10  and  C_11
REMARK                            x       y       z     vdW  Elec       q    Type
REMARK                         _______ _______ _______ _____ _____    ______ ____
ROOT
ATOM      1  O   UNL     1      49.451   6.948  13.618  0.00  0.00    +0.000 OA
ATOM      2  C   UNL     1      48.642   6.799  14.528  0.00  0.00    +0.000 C 
ATOM      3  N   UNL     1      47.316   7.130  14.414  0.00  0.00    +0.000 N 
ATOM      4  H   UNL     1      46.758   7.201  15.254  0.00  0.00    +0.000 HD
ENDROOT
BRANCH   2   5
ATOM      5  C   UNL     1      49.026   6.195  15.804  0.00  0.00    +0.000 A 
ATOM      6  C   UNL     1      50.068   6.724  16.554  0.00  0.00    +0.000 A 
ATOM      7  S   UNL     1      50.359   5.869  18.002  0.00  0.00    +0.000 S 
ATOM      8  C   UNL     1      49.084   4.785  17.685  0.00  0.00    +0.000 A 
ATOM      9  N   UNL     1      48.776   3.787  18.558  0.00  0.00    +0.000 NA
ATOM     10  C   UNL     1      47.762   3.067  18.205  0.00  0.00    +0.000 A 
ATOM     11  N   UNL     1      47.033   3.249  17.058  0.00  0.00    +0.000 N 
ATOM     12  C   UNL     1      47.358   4.187  16.116  0.00  0.00    +0.000 A 
ATOM     13  O   UNL     1      46.773   4.215  15.033  0.00  0.00    +0.000 OA
ATOM     14  C   UNL     1      48.458   5.056  16.484  0.00  0.00    +0.000 A 
ATOM     15  H   UNL     1      46.274   2.629  16.819  0.00  0.00    +0.000 HD
ENDBRANCH   2   5
BRANCH   3  16
ATOM     16  C   UNL     1      46.787   7.828  13.275  0.00  0.00    +0.000 C 
BRANCH  16  17
ATOM     17  C   UNL     1      46.076   6.887  12.340  0.00  0.00    +0.000 A 
ATOM     18  C   UNL     1      44.921   6.227  12.767  0.00  0.00    +0.000 A 
ATOM     19  C   UNL     1      44.245   5.351  11.917  0.00  0.00    +0.000 A 
ATOM     20  C   UNL     1      44.707   5.108  10.617  0.00  0.00    +0.000 A 
ATOM     21  C   UNL     1      45.886   5.746  10.204  0.00  0.00    +0.000 A 
ATOM     22  C   UNL     1      46.567   6.623  11.056  0.00  0.00    +0.000 A 
BRANCH  20  23
ATOM     23  C   UNL     1      44.032   4.124   9.680  0.00  0.00    +0.000 C 
BRANCH  23  24
ATOM     24  C   UNL     1      44.666   2.727   9.642  0.00  0.00    +0.000 C 
BRANCH  24  25
ATOM     25  C   UNL     1      45.538   2.495   8.431  0.00  0.00    +0.000 A 
ATOM     26  C   UNL     1      45.720   3.524   7.496  0.00  0.00    +0.000 A 
ATOM     27  C   UNL     1      46.568   3.348   6.402  0.00  0.00    +0.000 A 
ATOM     28  C   UNL     1      47.237   2.139   6.228  0.00  0.00    +0.000 A 
ATOM     29  C   UNL     1      47.050   1.102   7.142  0.00  0.00    +0.000 A 
ATOM     30  C   UNL     1      46.201   1.276   8.237  0.00  0.00    +0.000 A 
ENDBRANCH  24  25
ENDBRANCH  23  24
ENDBRANCH  20  23
ENDBRANCH  16  17
ENDBRANCH   3  16
TORSDOF 6
ENDMDL
MODEL 2
REMARK VINA RESULT:    -8.198      1.600      2.128
REMARK INTER + INTRA:         -12.394
REMARK INTER:                 -11.238
REMARK INTRA:                  -1.157
REMARK UNBOUND:                -1.321
REMARK  Name = 
REMARK  6 active torsions:
REMARK  status: ('A' for Active; 'I' for Inactive)
REMARK    1  A    between atoms: C_2  and  C_19
REMARK    2  A    between atoms: N_3  and  C_4
REMARK    3  A    between atoms: C_4  and  C_5
REMARK    4  A    between atoms: C_8  and  C_9
REMARK    5  A    between atoms: C_9  and  C_10
REMARK    6  A    between atoms: C_10  and  C_11
REMARK                            x       y       z     vdW  Elec       q    Type
REMARK                         _______ _______ _______ _____ _____    ______ ____
ROOT
ATOM      1  O   UNL     1      50.172   6.825  15.179  0.00  0.00    +0.000 OA
ATOM      2  C   UNL     1      49.051   7.038  15.630  0.00  0.00    +0.000 C 
ATOM      3  N   UNL     1      47.950   7.242  14.838  0.00  0.00    +0.000 N 
ATOM      4  H   UNL     1      47.117   7.637  15.254  0.00  0.00    +0.000 HD
ENDROOT
BRANCH   2   5
ATOM      5  C   UNL     1      48.791   7.036  17.069  0.00  0.00    +0.000 A 
ATOM      6  C   UNL     1      48.419   8.204  17.724  0.00  0.00    +0.000 A 
ATOM      7  S   UNL     1      48.171   7.988  19.399  0.00  0.00    +0.000 S 
ATOM      8  C   UNL     1      48.524   6.325  19.295  0.00  0.00    +0.000 A 
ATOM      9  N   UNL     1      48.478   5.526  20.395  0.00  0.00    +0.000 NA
ATOM     10  C   UNL     1      48.732   4.281  20.159  0.00  0.00    +0.000 A 
ATOM     11  N   UNL     1      49.034   3.762  18.926  0.00  0.00    +0.000 N 
ATOM     12  C   UNL     1      49.170   4.543  17.810  0.00  0.00    +0.000 A 
ATOM     13  O   UNL     1      49.590   4.061  16.758  0.00  0.00    +0.000 OA
ATOM     14  C   UNL     1      48.847   5.942  18.008  0.00  0.00    +0.000 A 
ATOM     15  H   UNL     1      49.260   2.786  18.812  0.00  0.00    +0.000 HD
ENDBRANCH   2   5
BRANCH   3  16
ATOM     16  C   UNL     1      48.037   7.382  13.411  0.00  0.00    +0.000 C 
BRANCH  16  17
ATOM     17  C   UNL     1      47.114   6.421  12.711  0.00  0.00    +0.000 A 
ATOM     18  C   UNL     1      46.679   6.699  11.412  0.00  0.00    +0.000 A 
ATOM     19  C   UNL     1      45.822   5.823  10.744  0.00  0.00    +0.000 A 
ATOM     20  C   UNL     1      45.376   4.645  11.357  0.00  0.00    +0.000 A 
ATOM     21  C   UNL     1      45.787   4.387  12.673  0.00  0.00    +0.000 A 
ATOM     22  C   UNL     1      46.643   5.265  13.346  0.00  0.00    +0.000 A 
BRANCH  20  23
ATOM     23  C   UNL     1      44.404   3.692  10.685  0.00  0.00    +0.000 C 
BRANCH  23  24
ATOM     24  C   UNL     1      44.323   3.820   9.158  0.00  0.00    +0.000 C 
BRANCH  24  25
ATOM     25  C   UNL     1      45.403   3.056   8.432  0.00  0.00    +0.000 A 
ATOM     26  C   UNL     1      45.553   1.679   8.653  0.00  0.00    +0.000 A 
ATOM     27  C   UNL     1      46.507   0.946   7.948  0.00  0.00    +0.000 A 
ATOM     28  C   UNL     1      47.327   1.582   7.020  0.00  0.00    +0.000 A 
ATOM     29  C   UNL     1      47.200   2.954   6.804  0.00  0.00    +0.000 A 
ATOM     30  C   UNL     1      46.246   3.690   7.510  0.00  0.00    +0.000 A 
ENDBRANCH  24  25
ENDBRANCH  23  24
ENDBRANCH  20  23
ENDBRANCH  16  17
ENDBRANCH   3  16
TORSDOF 6
ENDMDL
MODEL 3
REMARK VINA RESULT:    -7.990      2.398      3.036
REMARK INTER + INTRA:         -12.113
REMARK INTER:                 -10.799
REMARK INTRA:                  -1.315
REMARK UNBOUND:                -1.321
REMARK  Name = 
REMARK  6 active torsions:
REMARK  status: ('A' for Active; 'I' for Inactive)
REMARK    1  A    between atoms: C_2  and  C_19
REMARK    2  A    between atoms: N_3  and  C_4
REMARK    3  A    between atoms: C_4  and  C_5
REMARK    4  A    between atoms: C_8  and  C_9
REMARK    5  A    between atoms: C_9  and  C_10
REMARK    6  A    between atoms: C_10  and  C_11
REMARK                            x       y       z     vdW  Elec       q    Type
REMARK                         _______ _______ _______ _____ _____    ______ ____
ROOT
ATOM      1  O   UNL     1      50.337   6.163  15.909  0.00  0.00    +0.000 OA
ATOM      2  C   UNL     1      49.186   6.205  16.331  0.00  0.00    +0.000 C 
ATOM      3  N   UNL     1      48.097   6.404  15.521  0.00  0.00    +0.000 N 
ATOM      4  H   UNL     1      47.214   6.657  15.945  0.00  0.00    +0.000 HD
ENDROOT
BRANCH   2   5
ATOM      5  C   UNL     1      48.878   5.988  17.744  0.00  0.00    +0.000 A 
ATOM      6  C   UNL     1      49.124   4.758  18.343  0.00  0.00    +0.000 A 
ATOM      7  S   UNL     1      48.688   4.712  19.992  0.00  0.00    +0.000 S 
ATOM      8  C   UNL     1      48.186   6.340  19.964  0.00  0.00    +0.000 A 
ATOM      9  N   UNL     1      47.707   6.948  21.083  0.00  0.00    +0.000 NA
ATOM     10  C   UNL     1      47.401   8.193  20.922  0.00  0.00    +0.000 A 
ATOM     11  N   UNL     1      47.524   8.884  19.745  0.00  0.00    +0.000 N 
ATOM     12  C   UNL     1      47.925   8.291  18.578  0.00  0.00    +0.000 A 
ATOM     13  O   UNL     1      47.875   8.908  17.513  0.00  0.00    +0.000 OA
ATOM     14  C   UNL     1      48.328   6.906  18.713  0.00  0.00    +0.000 A 
ATOM     15  H   UNL     1      47.232   9.847  19.672  0.00  0.00    +0.000 HD
ENDBRANCH   2   5
BRANCH   3  16
ATOM     16  C   UNL     1      48.217   6.738  14.129  0.00  0.00    +0.000 C 
BRANCH  16  17
ATOM     17  C   UNL     1      47.215   5.984  13.297  0.00  0.00    +0.000 A 
ATOM     18  C   UNL     1      46.693   6.570  12.141  0.00  0.00    +0.000 A 
ATOM     19  C   UNL     1      45.762   5.889  11.355  0.00  0.00    +0.000 A 
ATOM     20  C   UNL     1      45.326   4.604  11.704  0.00  0.00    +0.000 A 
ATOM     21  C   UNL     1      45.826   4.034  12.884  0.00  0.00    +0.000 A 
ATOM     22  C   UNL     1      46.757   4.716  13.676  0.00  0.00    +0.000 A 
BRANCH  20  23
ATOM     23  C   UNL     1      44.278   3.852  10.906  0.00  0.00    +0.000 C 
BRANCH  23  24
ATOM     24  C   UNL     1      44.277   4.145   9.400  0.00  0.00    +0.000 C 
BRANCH  24  25
ATOM     25  C   UNL     1      45.293   3.337   8.629  0.00  0.00    +0.000 A 
ATOM     26  C   UNL     1      45.386   1.953   8.836  0.00  0.00    +0.000 A 
ATOM     27  C   UNL     1      46.278   1.182   8.091  0.00  0.00    +0.000 A 
ATOM     28  C   UNL     1      47.093   1.787   7.137  0.00  0.00    +0.000 A 
ATOM     29  C   UNL     1      47.023   3.165   6.935  0.00  0.00    +0.000 A 
ATOM     30  C   UNL     1      46.131   3.939   7.681  0.00  0.00    +0.000 A 
ENDBRANCH  24  25
ENDBRANCH  23  24
ENDBRANCH  20  23
ENDBRANCH  16  17
ENDBRANCH   3  16
TORSDOF 6
ENDMDL
MODEL 4
REMARK VINA RESULT:    -7.299      3.826      4.955
REMARK INTER + INTRA:         -11.180
REMARK INTER:                  -9.902
REMARK INTRA:                  -1.277
REMARK UNBOUND:                -1.321
REMARK  Name = 
REMARK  6 active torsions:
REMARK  status: ('A' for Active; 'I' for Inactive)
REMARK    1  A    between atoms: C_2  and  C_19
REMARK    2  A    between atoms: N_3  and  C_4
REMARK    3  A    between atoms: C_4  and  C_5
REMARK    4  A    between atoms: C_8  and  C_9
REMARK    5  A    between atoms: C_9  and  C_10
REMARK    6  A    between atoms: C_10  and  C_11
REMARK                            x       y       z     vdW  Elec       q    Type
REMARK                         _______ _______ _______ _____ _____    ______ ____
ROOT
ATOM      1  O   UNL     1      47.632   8.814  14.264  0.00  0.00    +0.000 OA
ATOM      2  C   UNL     1      47.517   9.117  13.081  0.00  0.00    +0.000 C 
ATOM      3  N   UNL     1      46.355   8.947  12.373  0.00  0.00    +0.000 N 
ATOM      4  H   UNL     1      46.388   8.996  11.364  0.00  0.00    +0.000 HD
ENDROOT
BRANCH   2   5
ATOM      5  C   UNL     1      48.612   9.741  12.340  0.00  0.00    +0.000 A 
ATOM      6  C   UNL     1      48.620  11.110  12.106  0.00  0.00    +0.000 A 
ATOM      7  S   UNL     1      49.980  11.635  11.218  0.00  0.00    +0.000 S 
ATOM      8  C   UNL     1      50.613  10.056  11.144  0.00  0.00    +0.000 A 
ATOM      9  N   UNL     1      51.796   9.800  10.522  0.00  0.00    +0.000 NA
ATOM     10  C   UNL     1      52.170   8.564  10.578  0.00  0.00    +0.000 A 
ATOM     11  N   UNL     1      51.468   7.560  11.193  0.00  0.00    +0.000 N 
ATOM     12  C   UNL     1      50.237   7.758  11.759  0.00  0.00    +0.000 A 
ATOM     13  O   UNL     1      49.574   6.803  12.164  0.00  0.00    +0.000 OA
ATOM     14  C   UNL     1      49.792   9.137  11.768  0.00  0.00    +0.000 A 
ATOM     15  H   UNL     1      51.794   6.606  11.170  0.00  0.00    +0.000 HD
ENDBRANCH   2   5
BRANCH   3  16
ATOM     16  C   UNL     1      45.215   8.256  12.908  0.00  0.00    +0.000 C 
BRANCH  16  17
ATOM     17  C   UNL     1      45.133   6.849  12.380  0.00  0.00    +0.000 A 
ATOM     18  C   UNL     1      44.559   6.611  11.129  0.00  0.00    +0.000 A 
ATOM     19  C   UNL     1      44.472   5.315  10.619  0.00  0.00    +0.000 A 
ATOM     20  C   UNL     1      44.955   4.220  11.348  0.00  0.00    +0.000 A 
ATOM     21  C   UNL     1      45.498   4.459  12.619  0.00  0.00    +0.000 A 
ATOM     22  C   UNL     1      45.584   5.757  13.133  0.00  0.00    +0.000 A 
BRANCH  20  23
ATOM     23  C   UNL     1      44.832   2.791  10.853  0.00  0.00    +0.000 C 
BRANCH  23  24
ATOM     24  C   UNL     1      44.350   2.646   9.403  0.00  0.00    +0.000 C 
BRANCH  24  25
ATOM     25  C   UNL     1      45.475   2.558   8.401  0.00  0.00    +0.000 A 
ATOM     26  C   UNL     1      46.164   1.349   8.230  0.00  0.00    +0.000 A 
ATOM     27  C   UNL     1      47.167   1.233   7.268  0.00  0.00    +0.000 A 
ATOM     28  C   UNL     1      47.497   2.326   6.471  0.00  0.00    +0.000 A 
ATOM     29  C   UNL     1      46.831   3.538   6.643  0.00  0.00    +0.000 A 
ATOM     30  C   UNL     1      45.827   3.658   7.607  0.00  0.00    +0.000 A 
ENDBRANCH  24  25
ENDBRANCH  23  24
ENDBRANCH  20  23
ENDBRANCH  16  17
ENDBRANCH   3  16
TORSDOF 6
ENDMDL
MODEL 5
REMARK VINA RESULT:    -7.095      3.354      5.398
REMARK INTER + INTRA:         -10.904
REMARK INTER:                  -9.873
REMARK INTRA:                  -1.031
REMARK UNBOUND:                -1.321
REMARK  Name = 
REMARK  6 active torsions:
REMARK  status: ('A' for Active; 'I' for Inactive)
REMARK    1  A    between atoms: C_2  and  C_19
REMARK    2  A    between atoms: N_3  and  C_4
REMARK    3  A    between atoms: C_4  and  C_5
REMARK    4  A    between atoms: C_8  and  C_9
REMARK    5  A    between atoms: C_9  and  C_10
REMARK    6  A    between atoms: C_10  and  C_11
REMARK                            x       y       z     vdW  Elec       q    Type
REMARK                         _______ _______ _______ _____ _____    ______ ____
ROOT
ATOM      1  O   UNL     1      46.817   8.936  14.034  0.00  0.00    +0.000 OA
ATOM      2  C   UNL     1      47.858   8.665  13.444  0.00  0.00    +0.000 C 
ATOM      3  N   UNL     1      48.275   7.379  13.211  0.00  0.00    +0.000 N 
ATOM      4  H   UNL     1      49.235   7.221  12.933  0.00  0.00    +0.000 HD
ENDROOT
BRANCH   2   5
ATOM      5  C   UNL     1      48.718   9.709  12.887  0.00  0.00    +0.000 A 
ATOM      6  C   UNL     1      50.058   9.789  13.246  0.00  0.00    +0.000 A 
ATOM      7  S   UNL     1      50.881  11.081  12.493  0.00  0.00    +0.000 S 
ATOM      8  C   UNL     1      49.482  11.553  11.643  0.00  0.00    +0.000 A 
ATOM      9  N   UNL     1      49.502  12.610  10.787  0.00  0.00    +0.000 NA
ATOM     10  C   UNL     1      48.379  12.828  10.185  0.00  0.00    +0.000 A 
ATOM     11  N   UNL     1      47.237  12.091  10.366  0.00  0.00    +0.000 N 
ATOM     12  C   UNL     1      47.151  11.073  11.277  0.00  0.00    +0.000 A 
ATOM     13  O   UNL     1      46.068  10.539  11.518  0.00  0.00    +0.000 OA
ATOM     14  C   UNL     1      48.397  10.753  11.944  0.00  0.00    +0.000 A 
ATOM     15  H   UNL     1      46.379  12.335   9.895  0.00  0.00    +0.000 HD
ENDBRANCH   2   5
BRANCH   3  16
ATOM     16  C   UNL     1      47.612   6.236  13.774  0.00  0.00    +0.000 C 
BRANCH  16  17
ATOM     17  C   UNL     1      46.689   5.592  12.774  0.00  0.00    +0.000 A 
ATOM     18  C   UNL     1      46.134   4.340  13.050  0.00  0.00    +0.000 A 
ATOM     19  C   UNL     1      45.275   3.724  12.138  0.00  0.00    +0.000 A 
ATOM     20  C   UNL     1      44.950   4.344  10.924  0.00  0.00    +0.000 A 
ATOM     21  C   UNL     1      45.536   5.585  10.636  0.00  0.00    +0.000 A 
ATOM     22  C   UNL     1      46.400   6.203  11.548  0.00  0.00    +0.000 A 
BRANCH  20  23
ATOM     23  C   UNL     1      44.063   3.687   9.883  0.00  0.00    +0.000 C 
BRANCH  23  24
ATOM     24  C   UNL     1      44.520   2.294   9.429  0.00  0.00    +0.000 C 
BRANCH  24  25
ATOM     25  C   UNL     1      45.554   2.330   8.329  0.00  0.00    +0.000 A 
ATOM     26  C   UNL     1      45.708   3.488   7.554  0.00  0.00    +0.000 A 
ATOM     27  C   UNL     1      46.697   3.560   6.573  0.00  0.00    +0.000 A 
ATOM     28  C   UNL     1      47.537   2.473   6.351  0.00  0.00    +0.000 A 
ATOM     29  C   UNL     1      47.383   1.309   7.103  0.00  0.00    +0.000 A 
ATOM     30  C   UNL     1      46.393   1.234   8.085  0.00  0.00    +0.000 A 
ENDBRANCH  24  25
ENDBRANCH  23  24
ENDBRANCH  20  23
ENDBRANCH  16  17
ENDBRANCH   3  16
TORSDOF 6
ENDMDL
MODEL 6
REMARK VINA RESULT:    -6.953      3.541      7.745
REMARK INTER + INTRA:         -10.713
REMARK INTER:                  -9.123
REMARK INTRA:                  -1.590
REMARK UNBOUND:                -1.321
REMARK  Name = 
REMARK  6 active torsions:
REMARK  status: ('A' for Active; 'I' for Inactive)
REMARK    1  A    between atoms: C_2  and  C_19
REMARK    2  A    between atoms: N_3  and  C_4
REMARK    3  A    between atoms: C_4  and  C_5
REMARK    4  A    between atoms: C_8  and  C_9
REMARK    5  A    between atoms: C_9  and  C_10
REMARK    6  A    between atoms: C_10  and  C_11
REMARK                            x       y       z     vdW  Elec       q    Type
REMARK                         _______ _______ _______ _____ _____    ______ ____
ROOT
ATOM      1  O   UNL     1      45.383   7.870  11.719  0.00  0.00    +0.000 OA
ATOM      2  C   UNL     1      46.111   6.950  11.362  0.00  0.00    +0.000 C 
ATOM      3  N   UNL     1      47.471   6.957  11.538  0.00  0.00    +0.000 N 
ATOM      4  H   UNL     1      48.033   6.291  11.025  0.00  0.00    +0.000 HD
ENDROOT
BRANCH   2   5
ATOM      5  C   UNL     1      45.568   5.732  10.759  0.00  0.00    +0.000 A 
ATOM      6  C   UNL     1      45.795   5.442   9.420  0.00  0.00    +0.000 A 
ATOM      7  S   UNL     1      45.069   3.982   8.913  0.00  0.00    +0.000 S 
ATOM      8  C   UNL     1      44.456   3.679  10.474  0.00  0.00    +0.000 A 
ATOM      9  N   UNL     1      43.734   2.557  10.741  0.00  0.00    +0.000 NA
ATOM     10  C   UNL     1      43.367   2.442  11.975  0.00  0.00    +0.000 A 
ATOM     11  N   UNL     1      43.649   3.348  12.964  0.00  0.00    +0.000 N 
ATOM     12  C   UNL     1      44.302   4.527  12.722  0.00  0.00    +0.000 A 
ATOM     13  O   UNL     1      44.400   5.380  13.605  0.00  0.00    +0.000 OA
ATOM     14  C   UNL     1      44.780   4.685  11.364  0.00  0.00    +0.000 A 
ATOM     15  H   UNL     1      43.302   3.221  13.902  0.00  0.00    +0.000 HD
ENDBRANCH   2   5
BRANCH   3  16
ATOM     16  C   UNL     1      48.184   8.109  12.015  0.00  0.00    +0.000 C 
BRANCH  16  17
ATOM     17  C   UNL     1      48.504   7.986  13.481  0.00  0.00    +0.000 A 
ATOM     18  C   UNL     1      47.849   8.804  14.405  0.00  0.00    +0.000 A 
ATOM     19  C   UNL     1      48.130   8.707  15.768  0.00  0.00    +0.000 A 
ATOM     20  C   UNL     1      49.075   7.789  16.246  0.00  0.00    +0.000 A 
ATOM     21  C   UNL     1      49.755   6.994  15.312  0.00  0.00    +0.000 A 
ATOM     22  C   UNL     1      49.478   7.092  13.944  0.00  0.00    +0.000 A 
BRANCH  20  23
ATOM     23  C   UNL     1      49.447   7.688  17.713  0.00  0.00    +0.000 C 
BRANCH  23  24
ATOM     24  C   UNL     1      48.547   6.767  18.548  0.00  0.00    +0.000 C 
BRANCH  24  25
ATOM     25  C   UNL     1      48.523   5.340  18.054  0.00  0.00    +0.000 A 
ATOM     26  C   UNL     1      47.325   4.786  17.581  0.00  0.00    +0.000 A 
ATOM     27  C   UNL     1      47.296   3.490  17.067  0.00  0.00    +0.000 A 
ATOM     28  C   UNL     1      48.464   2.731  17.026  0.00  0.00    +0.000 A 
ATOM     29  C   UNL     1      49.658   3.265  17.509  0.00  0.00    +0.000 A 
ATOM     30  C   UNL     1      49.688   4.563  18.026  0.00  0.00    +0.000 A 
ENDBRANCH  24  25
ENDBRANCH  23  24
ENDBRANCH  20  23
ENDBRANCH  16  17
ENDBRANCH   3  16
TORSDOF 6
ENDMDL
MODEL 7
REMARK VINA RESULT:    -6.827      4.887      7.113
REMARK INTER + INTRA:         -10.543
REMARK INTER:                  -9.331
REMARK INTRA:                  -1.212
REMARK UNBOUND:                -1.321
REMARK  Name = 
REMARK  6 active torsions:
REMARK  status: ('A' for Active; 'I' for Inactive)
REMARK    1  A    between atoms: C_2  and  C_19
REMARK    2  A    between atoms: N_3  and  C_4
REMARK    3  A    between atoms: C_4  and  C_5
REMARK    4  A    between atoms: C_8  and  C_9
REMARK    5  A    between atoms: C_9  and  C_10
REMARK    6  A    between atoms: C_10  and  C_11
REMARK                            x       y       z     vdW  Elec       q    Type
REMARK                         _______ _______ _______ _____ _____    ______ ____
ROOT
ATOM      1  O   UNL     1      44.539   7.681  11.244  0.00  0.00    +0.000 OA
ATOM      2  C   UNL     1      45.003   6.778  11.930  0.00  0.00    +0.000 C 
ATOM      3  N   UNL     1      45.879   6.995  12.963  0.00  0.00    +0.000 N 
ATOM      4  H   UNL     1      46.398   6.210  13.335  0.00  0.00    +0.000 HD
ENDROOT
BRANCH   2   5
ATOM      5  C   UNL     1      44.610   5.383  11.730  0.00  0.00    +0.000 A 
ATOM      6  C   UNL     1      43.919   4.692  12.718  0.00  0.00    +0.000 A 
ATOM      7  S   UNL     1      43.564   3.079  12.291  0.00  0.00    +0.000 S 
ATOM      8  C   UNL     1      44.294   3.263  10.762  0.00  0.00    +0.000 A 
ATOM      9  N   UNL     1      44.323   2.238   9.868  0.00  0.00    +0.000 NA
ATOM     10  C   UNL     1      44.876   2.534   8.738  0.00  0.00    +0.000 A 
ATOM     11  N   UNL     1      45.407   3.757   8.422  0.00  0.00    +0.000 N 
ATOM     12  C   UNL     1      45.471   4.789   9.319  0.00  0.00    +0.000 A 
ATOM     13  O   UNL     1      46.091   5.817   9.047  0.00  0.00    +0.000 OA
ATOM     14  C   UNL     1      44.821   4.527  10.587  0.00  0.00    +0.000 A 
ATOM     15  H   UNL     1      45.860   3.916   7.534  0.00  0.00    +0.000 HD
ENDBRANCH   2   5
BRANCH   3  16
ATOM     16  C   UNL     1      46.453   8.283  13.235  0.00  0.00    +0.000 C 
BRANCH  16  17
ATOM     17  C   UNL     1      47.804   8.426  12.587  0.00  0.00    +0.000 A 
ATOM     18  C   UNL     1      48.189   9.659  12.054  0.00  0.00    +0.000 A 
ATOM     19  C   UNL     1      49.437   9.815  11.449  0.00  0.00    +0.000 A 
ATOM     20  C   UNL     1      50.334   8.742  11.359  0.00  0.00    +0.000 A 
ATOM     21  C   UNL     1      49.929   7.498  11.865  0.00  0.00    +0.000 A 
ATOM     22  C   UNL     1      48.678   7.338  12.469  0.00  0.00    +0.000 A 
BRANCH  20  23
ATOM     23  C   UNL     1      51.678   8.856  10.664  0.00  0.00    +0.000 C 
BRANCH  23  24
ATOM     24  C   UNL     1      52.627   7.671  10.890  0.00  0.00    +0.000 C 
BRANCH  24  25
ATOM     25  C   UNL     1      52.895   6.868   9.640  0.00  0.00    +0.000 A 
ATOM     26  C   UNL     1      52.275   7.226   8.435  0.00  0.00    +0.000 A 
ATOM     27  C   UNL     1      52.556   6.532   7.258  0.00  0.00    +0.000 A 
ATOM     28  C   UNL     1      53.454   5.468   7.275  0.00  0.00    +0.000 A 
ATOM     29  C   UNL     1      54.064   5.091   8.471  0.00  0.00    +0.000 A 
ATOM     30  C   UNL     1      53.783   5.784   9.651  0.00  0.00    +0.000 A 
ENDBRANCH  24  25
ENDBRANCH  23  24
ENDBRANCH  20  23
ENDBRANCH  16  17
ENDBRANCH   3  16
TORSDOF 6
ENDMDL
MODEL 8
REMARK VINA RESULT:    -6.707      3.828      9.689
REMARK INTER + INTRA:         -10.380
REMARK INTER:                  -9.237
REMARK INTRA:                  -1.143
REMARK UNBOUND:                -1.321
REMARK  Name = 
REMARK  6 active torsions:
REMARK  status: ('A' for Active; 'I' for Inactive)
REMARK    1  A    between atoms: C_2  and  C_19
REMARK    2  A    between atoms: N_3  and  C_4
REMARK    3  A    between atoms: C_4  and  C_5
REMARK    4  A    between atoms: C_8  and  C_9
REMARK    5  A    between atoms: C_9  and  C_10
REMARK    6  A    between atoms: C_10  and  C_11
REMARK                            x       y       z     vdW  Elec       q    Type
REMARK                         _______ _______ _______ _____ _____    ______ ____
ROOT
ATOM      1  O   UNL     1      47.355   3.128  14.089  0.00  0.00    +0.000 OA
ATOM      2  C   UNL     1      46.975   4.209  14.527  0.00  0.00    +0.000 C 
ATOM      3  N   UNL     1      46.941   4.506  15.865  0.00  0.00    +0.000 N 
ATOM      4  H   UNL     1      46.409   5.310  16.172  0.00  0.00    +0.000 HD
ENDROOT
BRANCH   2   5
ATOM      5  C   UNL     1      46.573   5.298  13.637  0.00  0.00    +0.000 A 
ATOM      6  C   UNL     1      47.453   6.330  13.338  0.00  0.00    +0.000 A 
ATOM      7  S   UNL     1      46.787   7.502  12.290  0.00  0.00    +0.000 S 
ATOM      8  C   UNL     1      45.315   6.650  12.180  0.00  0.00    +0.000 A 
ATOM      9  N   UNL     1      44.292   7.111  11.411  0.00  0.00    +0.000 NA
ATOM     10  C   UNL     1      43.252   6.342  11.394  0.00  0.00    +0.000 A 
ATOM     11  N   UNL     1      43.140   5.161  12.080  0.00  0.00    +0.000 N 
ATOM     12  C   UNL     1      44.112   4.703  12.928  0.00  0.00    +0.000 A 
ATOM     13  O   UNL     1      43.909   3.720  13.641  0.00  0.00    +0.000 OA
ATOM     14  C   UNL     1      45.321   5.502  12.947  0.00  0.00    +0.000 A 
ATOM     15  H   UNL     1      42.287   4.624  12.057  0.00  0.00    +0.000 HD
ENDBRANCH   2   5
BRANCH   3  16
ATOM     16  C   UNL     1      47.199   3.527  16.884  0.00  0.00    +0.000 C 
BRANCH  16  17
ATOM     17  C   UNL     1      48.676   3.366  17.126  0.00  0.00    +0.000 A 
ATOM     18  C   UNL     1      49.417   4.441  17.623  0.00  0.00    +0.000 A 
ATOM     19  C   UNL     1      50.788   4.315  17.855  0.00  0.00    +0.000 A 
ATOM     20  C   UNL     1      51.455   3.111  17.594  0.00  0.00    +0.000 A 
ATOM     21  C   UNL     1      50.714   2.046  17.062  0.00  0.00    +0.000 A 
ATOM     22  C   UNL     1      49.341   2.171  16.826  0.00  0.00    +0.000 A 
BRANCH  20  23
ATOM     23  C   UNL     1      52.952   2.949  17.783  0.00  0.00    +0.000 C 
BRANCH  23  24
ATOM     24  C   UNL     1      53.408   2.794  19.241  0.00  0.00    +0.000 C 
BRANCH  24  25
ATOM     25  C   UNL     1      53.493   4.105  19.986  0.00  0.00    +0.000 A 
ATOM     26  C   UNL     1      54.191   5.183  19.422  0.00  0.00    +0.000 A 
ATOM     27  C   UNL     1      54.231   6.418  20.069  0.00  0.00    +0.000 A 
ATOM     28  C   UNL     1      53.581   6.587  21.289  0.00  0.00    +0.000 A 
ATOM     29  C   UNL     1      52.900   5.517  21.868  0.00  0.00    +0.000 A 
ATOM     30  C   UNL     1      52.859   4.279  21.223  0.00  0.00    +0.000 A 
ENDBRANCH  24  25
ENDBRANCH  23  24
ENDBRANCH  20  23
ENDBRANCH  16  17
ENDBRANCH   3  16
TORSDOF 6
ENDMDL
