MODEL 1
REMARK VINA RESULT:    -6.763      0.000      0.000
REMARK INTER + INTRA:         -10.249
REMARK INTER:                  -9.135
REMARK INTRA:                  -1.114
REMARK UNBOUND:                -1.114
REMARK  Name = 
REMARK  8 active torsions:
REMARK  status: ('A' for Active; 'I' for Inactive)
REMARK    1  A    between atoms: C_1  and  C_2
REMARK    2  A    between atoms: C_2  and  C_3
REMARK    3  A    between atoms: C_3  and  N_4
REMARK    4  A    between atoms: C_3  and  C_17
REMARK    5  A    between atoms: C_5  and  C_7
REMARK    6  A    between atoms: C_20  and  C_21
REMARK    7  A    between atoms: C_21  and  C_22
REMARK    8  A    between atoms: C_21  and  N_23
REMARK                            x       y       z     vdW  Elec       q    Type
REMARK                         _______ _______ _______ _____ _____    ______ ____
ROOT
ATOM      1  C   UNL     1      45.626   5.154  13.011  0.00  0.00    +0.000 C 
ENDROOT
BRANCH   1   2
ATOM      2  C   UNL     1      45.556   6.607  12.548  0.00  0.00    +0.000 A 
ATOM      3  C   UNL     1      46.321   7.542  13.264  0.00  0.00    +0.000 A 
ATOM      4  C   UNL     1      46.237   8.904  12.989  0.00  0.00    +0.000 A 
ATOM      5  C   UNL     1      45.416   9.396  11.967  0.00  0.00    +0.000 A 
ATOM      6  C   UNL     1      44.660   8.469  11.230  0.00  0.00    +0.000 A 
ATOM      7  C   UNL     1      44.719   7.093  11.525  0.00  0.00    +0.000 A 
BRANCH   5   8
ATOM      8  C   UNL     1      45.428  10.898  11.700  0.00  0.00    +0.000 C 
ATOM      9  C   UNL     1      46.819  11.360  11.242  0.00  0.00    +0.000 C 
BRANCH   8  10
ATOM     10  N   UNL     1      44.305  11.379  10.913  0.00  0.00    +0.000 NA
ATOM     11  C   UNL     1      42.981  11.422  11.526  0.00  0.00    +0.000 C 
ATOM     12  C   UNL     1      41.957  10.569  10.765  0.00  0.00    +0.000 C 
ATOM     13  O   UNL     1      41.925  10.910   9.372  0.00  0.00    +0.000 OA
ATOM     14  C   UNL     1      43.213  10.688   8.783  0.00  0.00    +0.000 C 
ATOM     15  C   UNL     1      44.315  11.513   9.468  0.00  0.00    +0.000 C 
ENDBRANCH   8  10
ENDBRANCH   5   8
ENDBRANCH   1   2
BRANCH   1  16
ATOM     16  N   UNL     1      46.239   5.112  14.337  0.00  0.00    +0.000 N 
ATOM     17  C   UNL     1      47.072   4.100  14.754  0.00  0.00    +0.000 C 
ATOM     18  O   UNL     1      47.327   3.140  14.029  0.00  0.00    +0.000 OA
ATOM     19  H   UNL     1      46.003   5.873  14.971  0.00  0.00    +0.000 HD
BRANCH  17  20
ATOM     20  C   UNL     1      47.681   4.215  16.094  0.00  0.00    +0.000 A 
ATOM     21  C   UNL     1      47.366   3.268  17.066  0.00  0.00    +0.000 A 
ATOM     22  S   UNL     1      48.183   3.490  18.544  0.00  0.00    +0.000 S 
ATOM     23  C   UNL     1      48.972   4.877  17.958  0.00  0.00    +0.000 A 
ATOM     24  N   UNL     1      49.838   5.566  18.749  0.00  0.00    +0.000 NA
ATOM     25  C   UNL     1      50.364   6.603  18.189  0.00  0.00    +0.000 A 
ATOM     26  N   UNL     1      50.099   7.014  16.908  0.00  0.00    +0.000 N 
ATOM     27  C   UNL     1      49.220   6.359  16.081  0.00  0.00    +0.000 A 
ATOM     28  O   UNL     1      48.977   6.784  14.955  0.00  0.00    +0.000 OA
ATOM     29  C   UNL     1      48.613   5.170  16.653  0.00  0.00    +0.000 A 
ATOM     30  H   UNL     1      50.528   7.846  16.533  0.00  0.00    +0.000 HD
ENDBRANCH  17  20
ENDBRANCH   1  16
BRANCH   1  32
ATOM     31  C   UNL     1      44.350   3.161  12.044  0.00  0.00    +0.000 C 
ATOM     32  C   UNL     1      44.309   4.354  12.990  0.00  0.00    +0.000 C 
ENDBRANCH   1  32
TORSDOF 6
ENDMDL
MODEL 2
REMARK VINA RESULT:    -6.755      3.691      9.858
REMARK INTER + INTRA:         -10.239
REMARK INTER:                  -9.153
REMARK INTRA:                  -1.087
REMARK UNBOUND:                -1.114
REMARK  Name = 
REMARK  8 active torsions:
REMARK  status: ('A' for Active; 'I' for Inactive)
REMARK    1  A    between atoms: C_1  and  C_2
REMARK    2  A    between atoms: C_2  and  C_3
REMARK    3  A    between atoms: C_3  and  N_4
REMARK    4  A    between atoms: C_3  and  C_17
REMARK    5  A    between atoms: C_5  and  C_7
REMARK    6  A    between atoms: C_20  and  C_21
REMARK    7  A    between atoms: C_21  and  C_22
REMARK    8  A    between atoms: C_21  and  N_23
REMARK                            x       y       z     vdW  Elec       q    Type
REMARK                         _______ _______ _______ _____ _____    ______ ____
ROOT
ATOM      1  C   UNL     1      48.959   7.821  15.573  0.00  0.00    +0.000 C 
ENDROOT
BRANCH   1   2
ATOM      2  C   UNL     1      49.479   6.589  16.311  0.00  0.00    +0.000 A 
ATOM      3  C   UNL     1      50.867   6.500  16.503  0.00  0.00    +0.000 A 
ATOM      4  C   UNL     1      51.445   5.365  17.064  0.00  0.00    +0.000 A 
ATOM      5  C   UNL     1      50.667   4.282  17.493  0.00  0.00    +0.000 A 
ATOM      6  C   UNL     1      49.275   4.368  17.326  0.00  0.00    +0.000 A 
ATOM      7  C   UNL     1      48.688   5.502  16.730  0.00  0.00    +0.000 A 
BRANCH   5   8
ATOM      8  C   UNL     1      51.381   3.103  18.148  0.00  0.00    +0.000 C 
ATOM      9  C   UNL     1      51.163   1.816  17.340  0.00  0.00    +0.000 C 
BRANCH   8  10
ATOM     10  N   UNL     1      52.749   3.378  18.553  0.00  0.00    +0.000 NA
ATOM     11  C   UNL     1      53.840   2.702  17.858  0.00  0.00    +0.000 C 
ATOM     12  C   UNL     1      54.705   1.862  18.807  0.00  0.00    +0.000 C 
ATOM     13  O   UNL     1      55.167   2.639  19.920  0.00  0.00    +0.000 OA
ATOM     14  C   UNL     1      54.049   3.140  20.665  0.00  0.00    +0.000 C 
ATOM     15  C   UNL     1      53.121   4.013  19.804  0.00  0.00    +0.000 C 
ENDBRANCH   8  10
ENDBRANCH   5   8
ENDBRANCH   1   2
BRANCH   1  16
ATOM     16  N   UNL     1      47.804   7.434  14.767  0.00  0.00    +0.000 N 
ATOM     17  C   UNL     1      47.907   6.804  13.549  0.00  0.00    +0.000 C 
ATOM     18  O   UNL     1      49.001   6.554  13.048  0.00  0.00    +0.000 OA
ATOM     19  H   UNL     1      46.888   7.675  15.142  0.00  0.00    +0.000 HD
BRANCH  17  20
ATOM     20  C   UNL     1      46.658   6.405  12.870  0.00  0.00    +0.000 A 
ATOM     21  C   UNL     1      45.874   7.383  12.262  0.00  0.00    +0.000 A 
ATOM     22  S   UNL     1      44.495   6.774  11.468  0.00  0.00    +0.000 S 
ATOM     23  C   UNL     1      44.872   5.180  11.926  0.00  0.00    +0.000 A 
ATOM     24  N   UNL     1      44.069   4.147  11.557  0.00  0.00    +0.000 NA
ATOM     25  C   UNL     1      44.461   2.990  11.974  0.00  0.00    +0.000 A 
ATOM     26  N   UNL     1      45.584   2.776  12.729  0.00  0.00    +0.000 N 
ATOM     27  C   UNL     1      46.414   3.791  13.138  0.00  0.00    +0.000 A 
ATOM     28  O   UNL     1      47.389   3.562  13.850  0.00  0.00    +0.000 OA
ATOM     29  C   UNL     1      46.033   5.114  12.679  0.00  0.00    +0.000 A 
ATOM     30  H   UNL     1      45.828   1.848  13.041  0.00  0.00    +0.000 HD
ENDBRANCH  17  20
ENDBRANCH   1  16
BRANCH   1  32
ATOM     31  C   UNL     1      48.225   8.712  17.855  0.00  0.00    +0.000 C 
ATOM     32  C   UNL     1      48.639   9.060  16.430  0.00  0.00    +0.000 C 
ENDBRANCH   1  32
TORSDOF 6
ENDMDL
MODEL 3
REMARK VINA RESULT:    -6.584      3.393      5.305
REMARK INTER + INTRA:         -10.008
REMARK INTER:                  -8.669
REMARK INTRA:                  -1.339
REMARK UNBOUND:                -1.114
REMARK  Name = 
REMARK  8 active torsions:
REMARK  status: ('A' for Active; 'I' for Inactive)
REMARK    1  A    between atoms: C_1  and  C_2
REMARK    2  A    between atoms: C_2  and  C_3
REMARK    3  A    between atoms: C_3  and  N_4
REMARK    4  A    between atoms: C_3  and  C_17
REMARK    5  A    between atoms: C_5  and  C_7
REMARK    6  A    between atoms: C_20  and  C_21
REMARK    7  A    between atoms: C_21  and  C_22
REMARK    8  A    between atoms: C_21  and  N_23
REMARK                            x       y       z     vdW  Elec       q    Type
REMARK                         _______ _______ _______ _____ _____    ______ ____
ROOT
ATOM      1  C   UNL     1      48.445   7.491  13.275  0.00  0.00    +0.000 C 
ENDROOT
BRANCH   1   2
ATOM      2  C   UNL     1      47.174   6.796  12.791  0.00  0.00    +0.000 A 
ATOM      3  C   UNL     1      47.102   5.405  12.970  0.00  0.00    +0.000 A 
ATOM      4  C   UNL     1      46.035   4.668  12.462  0.00  0.00    +0.000 A 
ATOM      5  C   UNL     1      44.976   5.285  11.785  0.00  0.00    +0.000 A 
ATOM      6  C   UNL     1      45.026   6.678  11.617  0.00  0.00    +0.000 A 
ATOM      7  C   UNL     1      46.119   7.424  12.103  0.00  0.00    +0.000 A 
BRANCH   5   8
ATOM      8  C   UNL     1      43.822   4.405  11.311  0.00  0.00    +0.000 C 
ATOM      9  C   UNL     1      42.472   5.091  11.566  0.00  0.00    +0.000 C 
BRANCH   8  10
ATOM     10  N   UNL     1      44.006   3.831   9.988  0.00  0.00    +0.000 NA
ATOM     11  C   UNL     1      44.179   2.388   9.864  0.00  0.00    +0.000 C 
ATOM     12  C   UNL     1      45.511   2.015   9.200  0.00  0.00    +0.000 C 
ATOM     13  O   UNL     1      45.680   2.694   7.948  0.00  0.00    +0.000 OA
ATOM     14  C   UNL     1      45.669   4.112   8.154  0.00  0.00    +0.000 C 
ATOM     15  C   UNL     1      44.362   4.594   8.807  0.00  0.00    +0.000 C 
ENDBRANCH   8  10
ENDBRANCH   5   8
ENDBRANCH   1   2
BRANCH   1  16
ATOM     16  N   UNL     1      48.886   6.855  14.514  0.00  0.00    +0.000 N 
ATOM     17  C   UNL     1      48.853   7.479  15.739  0.00  0.00    +0.000 C 
ATOM     18  O   UNL     1      48.471   8.642  15.856  0.00  0.00    +0.000 OA
ATOM     19  H   UNL     1      49.252   5.908  14.433  0.00  0.00    +0.000 HD
BRANCH  17  20
ATOM     20  C   UNL     1      49.263   6.698  16.924  0.00  0.00    +0.000 A 
ATOM     21  C   UNL     1      50.297   7.176  17.727  0.00  0.00    +0.000 A 
ATOM     22  S   UNL     1      50.625   6.205  19.088  0.00  0.00    +0.000 S 
ATOM     23  C   UNL     1      49.419   5.090  18.647  0.00  0.00    +0.000 A 
ATOM     24  N   UNL     1      49.180   3.992  19.413  0.00  0.00    +0.000 NA
ATOM     25  C   UNL     1      48.246   3.221  18.966  0.00  0.00    +0.000 A 
ATOM     26  N   UNL     1      47.531   3.452  17.819  0.00  0.00    +0.000 N 
ATOM     27  C   UNL     1      47.750   4.538  17.008  0.00  0.00    +0.000 A 
ATOM     28  O   UNL     1      47.116   4.685  15.966  0.00  0.00    +0.000 OA
ATOM     29  C   UNL     1      48.777   5.452  17.474  0.00  0.00    +0.000 A 
ATOM     30  H   UNL     1      46.825   2.801  17.512  0.00  0.00    +0.000 HD
ENDBRANCH  17  20
ENDBRANCH   1  16
BRANCH   1  32
ATOM     31  C   UNL     1      49.616   8.911  11.501  0.00  0.00    +0.000 C 
ATOM     32  C   UNL     1      49.606   7.595  12.268  0.00  0.00    +0.000 C 
ENDBRANCH   1  32
TORSDOF 6
ENDMDL
MODEL 4
REMARK VINA RESULT:    -6.514      2.771      3.905
REMARK INTER + INTRA:          -9.914
REMARK INTER:                  -8.207
REMARK INTRA:                  -1.707
REMARK UNBOUND:                -1.114
REMARK  Name = 
REMARK  8 active torsions:
REMARK  status: ('A' for Active; 'I' for Inactive)
REMARK    1  A    between atoms: C_1  and  C_2
REMARK    2  A    between atoms: C_2  and  C_3
REMARK    3  A    between atoms: C_3  and  N_4
REMARK    4  A    between atoms: C_3  and  C_17
REMARK    5  A    between atoms: C_5  and  C_7
REMARK    6  A    between atoms: C_20  and  C_21
REMARK    7  A    between atoms: C_21  and  C_22
REMARK    8  A    between atoms: C_21  and  N_23
REMARK                            x       y       z     vdW  Elec       q    Type
REMARK                         _______ _______ _______ _____ _____    ______ ____
ROOT
ATOM      1  C   UNL     1      46.180   5.497  13.191  0.00  0.00    +0.000 C 
ENDROOT
BRANCH   1   2
ATOM      2  C   UNL     1      46.608   6.866  12.668  0.00  0.00    +0.000 A 
ATOM      3  C   UNL     1      47.936   6.994  12.229  0.00  0.00    +0.000 A 
ATOM      4  C   UNL     1      48.451   8.228  11.841  0.00  0.00    +0.000 A 
ATOM      5  C   UNL     1      47.659   9.384  11.838  0.00  0.00    +0.000 A 
ATOM      6  C   UNL     1      46.323   9.265  12.256  0.00  0.00    +0.000 A 
ATOM      7  C   UNL     1      45.807   8.025  12.679  0.00  0.00    +0.000 A 
BRANCH   5   8
ATOM      8  C   UNL     1      48.291  10.682  11.345  0.00  0.00    +0.000 C 
ATOM      9  C   UNL     1      47.215  11.669  10.873  0.00  0.00    +0.000 C 
BRANCH   8  10
ATOM     10  N   UNL     1      49.315  11.225  12.223  0.00  0.00    +0.000 NA
ATOM     11  C   UNL     1      50.705  11.207  11.780  0.00  0.00    +0.000 C 
ATOM     12  C   UNL     1      51.612  10.419  12.736  0.00  0.00    +0.000 C 
ATOM     13  O   UNL     1      51.475  10.882  14.086  0.00  0.00    +0.000 OA
ATOM     14  C   UNL     1      50.120  10.720  14.525  0.00  0.00    +0.000 C 
ATOM     15  C   UNL     1      49.126  11.487  13.637  0.00  0.00    +0.000 C 
ENDBRANCH   8  10
ENDBRANCH   5   8
ENDBRANCH   1   2
BRANCH   1  16
ATOM     16  N   UNL     1      46.708   5.322  14.541  0.00  0.00    +0.000 N 
ATOM     17  C   UNL     1      47.283   4.154  14.985  0.00  0.00    +0.000 C 
ATOM     18  O   UNL     1      47.357   3.162  14.262  0.00  0.00    +0.000 OA
ATOM     19  H   UNL     1      46.614   6.116  15.172  0.00  0.00    +0.000 HD
BRANCH  17  20
ATOM     20  C   UNL     1      47.840   4.134  16.352  0.00  0.00    +0.000 A 
ATOM     21  C   UNL     1      47.370   3.190  17.263  0.00  0.00    +0.000 A 
ATOM     22  S   UNL     1      48.141   3.245  18.781  0.00  0.00    +0.000 S 
ATOM     23  C   UNL     1      49.117   4.549  18.296  0.00  0.00    +0.000 A 
ATOM     24  N   UNL     1      50.024   5.090  19.153  0.00  0.00    +0.000 NA
ATOM     25  C   UNL     1      50.695   6.079  18.666  0.00  0.00    +0.000 A 
ATOM     26  N   UNL     1      50.539   6.575  17.398  0.00  0.00    +0.000 N 
ATOM     27  C   UNL     1      49.626   6.071  16.506  0.00  0.00    +0.000 A 
ATOM     28  O   UNL     1      49.487   6.572  15.393  0.00  0.00    +0.000 OA
ATOM     29  C   UNL     1      48.855   4.941  16.993  0.00  0.00    +0.000 A 
ATOM     30  H   UNL     1      51.083   7.364  17.082  0.00  0.00    +0.000 HD
ENDBRANCH  17  20
ENDBRANCH   1  16
BRANCH   1  32
ATOM     31  C   UNL     1      44.365   3.855  12.452  0.00  0.00    +0.000 C 
ATOM     32  C   UNL     1      44.674   5.176  13.145  0.00  0.00    +0.000 C 
ENDBRANCH   1  32
TORSDOF 6
ENDMDL
MODEL 5
REMARK VINA RESULT:    -6.513      3.470      8.921
REMARK INTER + INTRA:          -9.912
REMARK INTER:                  -8.489
REMARK INTRA:                  -1.423
REMARK UNBOUND:                -1.114
REMARK  Name = 
REMARK  8 active torsions:
REMARK  status: ('A' for Active; 'I' for Inactive)
REMARK    1  A    between atoms: C_1  and  C_2
REMARK    2  A    between atoms: C_2  and  C_3
REMARK    3  A    between atoms: C_3  and  N_4
REMARK    4  A    between atoms: C_3  and  C_17
REMARK    5  A    between atoms: C_5  and  C_7
REMARK    6  A    between atoms: C_20  and  C_21
REMARK    7  A    between atoms: C_21  and  C_22
REMARK    8  A    between atoms: C_21  and  N_23
REMARK                            x       y       z     vdW  Elec       q    Type
REMARK                         _______ _______ _______ _____ _____    ______ ____
ROOT
ATOM      1  C   UNL     1      48.452   7.439  14.257  0.00  0.00    +0.000 C 
ENDROOT
BRANCH   1   2
ATOM      2  C   UNL     1      48.856   6.600  15.466  0.00  0.00    +0.000 A 
ATOM      3  C   UNL     1      50.098   6.888  16.055  0.00  0.00    +0.000 A 
ATOM      4  C   UNL     1      50.603   6.106  17.091  0.00  0.00    +0.000 A 
ATOM      5  C   UNL     1      49.881   5.024  17.611  0.00  0.00    +0.000 A 
ATOM      6  C   UNL     1      48.628   4.738  17.043  0.00  0.00    +0.000 A 
ATOM      7  C   UNL     1      48.127   5.508  15.975  0.00  0.00    +0.000 A 
BRANCH   5   8
ATOM      8  C   UNL     1      50.488   4.257  18.782  0.00  0.00    +0.000 C 
ATOM      9  C   UNL     1      51.957   3.909  18.505  0.00  0.00    +0.000 C 
BRANCH   8  10
ATOM     10  N   UNL     1      50.202   4.827  20.088  0.00  0.00    +0.000 NA
ATOM     11  C   UNL     1      48.898   4.580  20.695  0.00  0.00    +0.000 C 
ATOM     12  C   UNL     1      48.134   5.879  20.986  0.00  0.00    +0.000 C 
ATOM     13  O   UNL     1      48.929   6.793  21.754  0.00  0.00    +0.000 OA
ATOM     14  C   UNL     1      50.122   7.131  21.033  0.00  0.00    +0.000 C 
ATOM     15  C   UNL     1      50.971   5.892  20.703  0.00  0.00    +0.000 C 
ENDBRANCH   8  10
ENDBRANCH   5   8
ENDBRANCH   1   2
BRANCH   1  16
ATOM     16  N   UNL     1      47.165   6.959  13.759  0.00  0.00    +0.000 N 
ATOM     17  C   UNL     1      46.860   6.859  12.422  0.00  0.00    +0.000 C 
ATOM     18  O   UNL     1      47.660   7.205  11.555  0.00  0.00    +0.000 OA
ATOM     19  H   UNL     1      46.470   6.713  14.462  0.00  0.00    +0.000 HD
BRANCH  17  20
ATOM     20  C   UNL     1      45.547   6.292  12.054  0.00  0.00    +0.000 A 
ATOM     21  C   UNL     1      44.576   7.128  11.507  0.00  0.00    +0.000 A 
ATOM     22  S   UNL     1      43.134   6.329  11.077  0.00  0.00    +0.000 S 
ATOM     23  C   UNL     1      43.735   4.838  11.629  0.00  0.00    +0.000 A 
ATOM     24  N   UNL     1      42.974   3.713  11.547  0.00  0.00    +0.000 NA
ATOM     25  C   UNL     1      43.542   2.650  12.007  0.00  0.00    +0.000 A 
ATOM     26  N   UNL     1      44.802   2.611  12.543  0.00  0.00    +0.000 N 
ATOM     27  C   UNL     1      45.598   3.724  12.661  0.00  0.00    +0.000 A 
ATOM     28  O   UNL     1      46.706   3.655  13.187  0.00  0.00    +0.000 OA
ATOM     29  C   UNL     1      45.018   4.948  12.139  0.00  0.00    +0.000 A 
ATOM     30  H   UNL     1      45.184   1.750  12.904  0.00  0.00    +0.000 HD
ENDBRANCH  17  20
ENDBRANCH   1  16
BRANCH   1  32
ATOM     31  C   UNL     1      49.455   9.694  13.585  0.00  0.00    +0.000 C 
ATOM     32  C   UNL     1      48.431   8.968  14.448  0.00  0.00    +0.000 C 
ENDBRANCH   1  32
TORSDOF 6
ENDMDL
MODEL 6
REMARK VINA RESULT:    -6.381      3.116      5.106
REMARK INTER + INTRA:          -9.734
REMARK INTER:                  -8.042
REMARK INTRA:                  -1.692
REMARK UNBOUND:                -1.114
REMARK  Name = 
REMARK  8 active torsions:
REMARK  status: ('A' for Active; 'I' for Inactive)
REMARK    1  A    between atoms: C_1  and  C_2
REMARK    2  A    between atoms: C_2  and  C_3
REMARK    3  A    between atoms: C_3  and  N_4
REMARK    4  A    between atoms: C_3  and  C_17
REMARK    5  A    between atoms: C_5  and  C_7
REMARK    6  A    between atoms: C_20  and  C_21
REMARK    7  A    between atoms: C_21  and  C_22
REMARK    8  A    between atoms: C_21  and  N_23
REMARK                            x       y       z     vdW  Elec       q    Type
REMARK                         _______ _______ _______ _____ _____    ______ ____
ROOT
ATOM      1  C   UNL     1      47.963   8.790  14.481  0.00  0.00    +0.000 C 
ENDROOT
BRANCH   1   2
ATOM      2  C   UNL     1      47.057   8.099  13.464  0.00  0.00    +0.000 A 
ATOM      3  C   UNL     1      47.394   6.786  13.099  0.00  0.00    +0.000 A 
ATOM      4  C   UNL     1      46.697   6.114  12.099  0.00  0.00    +0.000 A 
ATOM      5  C   UNL     1      45.611   6.705  11.440  0.00  0.00    +0.000 A 
ATOM      6  C   UNL     1      45.251   8.012  11.810  0.00  0.00    +0.000 A 
ATOM      7  C   UNL     1      45.973   8.706  12.800  0.00  0.00    +0.000 A 
BRANCH   5   8
ATOM      8  C   UNL     1      44.870   5.875  10.396  0.00  0.00    +0.000 C 
ATOM      9  C   UNL     1      45.822   5.430   9.276  0.00  0.00    +0.000 C 
BRANCH   8  10
ATOM     10  N   UNL     1      44.008   4.843  10.947  0.00  0.00    +0.000 NA
ATOM     11  C   UNL     1      43.036   5.210  11.972  0.00  0.00    +0.000 C 
ATOM     12  C   UNL     1      43.247   4.436  13.280  0.00  0.00    +0.000 C 
ATOM     13  O   UNL     1      43.289   3.021  13.050  0.00  0.00    +0.000 OA
ATOM     14  C   UNL     1      44.370   2.700  12.165  0.00  0.00    +0.000 C 
ATOM     15  C   UNL     1      44.245   3.418  10.810  0.00  0.00    +0.000 C 
ENDBRANCH   8  10
ENDBRANCH   5   8
ENDBRANCH   1   2
BRANCH   1  16
ATOM     16  N   UNL     1      48.788   7.779  15.139  0.00  0.00    +0.000 N 
ATOM     17  C   UNL     1      48.960   7.712  16.501  0.00  0.00    +0.000 C 
ATOM     18  O   UNL     1      48.443   8.535  17.254  0.00  0.00    +0.000 OA
ATOM     19  H   UNL     1      49.265   7.116  14.530  0.00  0.00    +0.000 HD
BRANCH  17  20
ATOM     20  C   UNL     1      49.764   6.597  17.042  0.00  0.00    +0.000 A 
ATOM     21  C   UNL     1      50.989   6.874  17.646  0.00  0.00    +0.000 A 
ATOM     22  S   UNL     1      51.780   5.503  18.275  0.00  0.00    +0.000 S 
ATOM     23  C   UNL     1      50.533   4.476  17.742  0.00  0.00    +0.000 A 
ATOM     24  N   UNL     1      50.597   3.137  17.969  0.00  0.00    +0.000 NA
ATOM     25  C   UNL     1      49.594   2.469  17.508  0.00  0.00    +0.000 A 
ATOM     26  N   UNL     1      48.533   3.022  16.839  0.00  0.00    +0.000 N 
ATOM     27  C   UNL     1      48.435   4.366  16.574  0.00  0.00    +0.000 A 
ATOM     28  O   UNL     1      47.488   4.816  15.934  0.00  0.00    +0.000 OA
ATOM     29  C   UNL     1      49.528   5.171  17.089  0.00  0.00    +0.000 A 
ATOM     30  H   UNL     1      47.786   2.443  16.486  0.00  0.00    +0.000 HD
ENDBRANCH  17  20
ENDBRANCH   1  16
BRANCH   1  32
ATOM     31  C   UNL     1      50.073   9.485  13.214  0.00  0.00    +0.000 C 
ATOM     32  C   UNL     1      48.830   9.952  13.962  0.00  0.00    +0.000 C 
ENDBRANCH   1  32
TORSDOF 6
ENDMDL
MODEL 7
REMARK VINA RESULT:    -6.379      3.745      5.859
REMARK INTER + INTRA:          -9.731
REMARK INTER:                  -8.342
REMARK INTRA:                  -1.388
REMARK UNBOUND:                -1.114
REMARK  Name = 
REMARK  8 active torsions:
REMARK  status: ('A' for Active; 'I' for Inactive)
REMARK    1  A    between atoms: C_1  and  C_2
REMARK    2  A    between atoms: C_2  and  C_3
REMARK    3  A    between atoms: C_3  and  N_4
REMARK    4  A    between atoms: C_3  and  C_17
REMARK    5  A    between atoms: C_5  and  C_7
REMARK    6  A    between atoms: C_20  and  C_21
REMARK    7  A    between atoms: C_21  and  C_22
REMARK    8  A    between atoms: C_21  and  N_23
REMARK                            x       y       z     vdW  Elec       q    Type
REMARK                         _______ _______ _______ _____ _____    ______ ____
ROOT
ATOM      1  C   UNL     1      49.693   7.213  16.637  0.00  0.00    +0.000 C 
ENDROOT
BRANCH   1   2
ATOM      2  C   UNL     1      48.817   6.632  15.530  0.00  0.00    +0.000 A 
ATOM      3  C   UNL     1      48.048   5.502  15.853  0.00  0.00    +0.000 A 
ATOM      4  C   UNL     1      47.304   4.835  14.884  0.00  0.00    +0.000 A 
ATOM      5  C   UNL     1      47.264   5.281  13.556  0.00  0.00    +0.000 A 
ATOM      6  C   UNL     1      48.013   6.422  13.225  0.00  0.00    +0.000 A 
ATOM      7  C   UNL     1      48.791   7.082  14.196  0.00  0.00    +0.000 A 
BRANCH   5   8
ATOM      8  C   UNL     1      46.379   4.520  12.573  0.00  0.00    +0.000 C 
ATOM      9  C   UNL     1      46.025   3.130  13.120  0.00  0.00    +0.000 C 
BRANCH   8  10
ATOM     10  N   UNL     1      45.273   5.295  12.035  0.00  0.00    +0.000 NA
ATOM     11  C   UNL     1      44.219   5.743  12.939  0.00  0.00    +0.000 C 
ATOM     12  C   UNL     1      42.837   5.215  12.533  0.00  0.00    +0.000 C 
ATOM     13  O   UNL     1      42.544   5.517  11.162  0.00  0.00    +0.000 OA
ATOM     14  C   UNL     1      43.521   4.910  10.306  0.00  0.00    +0.000 C 
ATOM     15  C   UNL     1      44.948   5.387  10.624  0.00  0.00    +0.000 C 
ENDBRANCH   8  10
ENDBRANCH   5   8
ENDBRANCH   1   2
BRANCH   1  16
ATOM     16  N   UNL     1      50.703   6.224  17.006  0.00  0.00    +0.000 N 
ATOM     17  C   UNL     1      50.732   5.591  18.227  0.00  0.00    +0.000 C 
ATOM     18  O   UNL     1      49.911   5.852  19.104  0.00  0.00    +0.000 OA
ATOM     19  H   UNL     1      51.422   6.028  16.312  0.00  0.00    +0.000 HD
BRANCH  17  20
ATOM     20  C   UNL     1      51.767   4.560  18.446  0.00  0.00    +0.000 A 
ATOM     21  C   UNL     1      52.928   4.900  19.135  0.00  0.00    +0.000 A 
ATOM     22  S   UNL     1      54.006   3.600  19.365  0.00  0.00    +0.000 S 
ATOM     23  C   UNL     1      52.979   2.534  18.529  0.00  0.00    +0.000 A 
ATOM     24  N   UNL     1      53.324   1.229  18.364  0.00  0.00    +0.000 NA
ATOM     25  C   UNL     1      52.463   0.528  17.705  0.00  0.00    +0.000 A 
ATOM     26  N   UNL     1      51.288   1.018  17.196  0.00  0.00    +0.000 N 
ATOM     27  C   UNL     1      50.908   2.331  17.325  0.00  0.00    +0.000 A 
ATOM     28  O   UNL     1      49.867   2.739  16.817  0.00  0.00    +0.000 OA
ATOM     29  C   UNL     1      51.830   3.162  18.076  0.00  0.00    +0.000 A 
ATOM     30  H   UNL     1      50.664   0.422  16.673  0.00  0.00    +0.000 HD
ENDBRANCH  17  20
ENDBRANCH   1  16
BRANCH   1  32
ATOM     31  C   UNL     1      51.822   8.484  16.012  0.00  0.00    +0.000 C 
ATOM     32  C   UNL     1      50.342   8.582  16.362  0.00  0.00    +0.000 C 
ENDBRANCH   1  32
TORSDOF 6
ENDMDL
MODEL 8
REMARK VINA RESULT:    -6.367      3.552      8.088
REMARK INTER + INTRA:          -9.715
REMARK INTER:                  -8.809
REMARK INTRA:                  -0.906
REMARK UNBOUND:                -1.114
REMARK  Name = 
REMARK  8 active torsions:
REMARK  status: ('A' for Active; 'I' for Inactive)
REMARK    1  A    between atoms: C_1  and  C_2
REMARK    2  A    between atoms: C_2  and  C_3
REMARK    3  A    between atoms: C_3  and  N_4
REMARK    4  A    between atoms: C_3  and  C_17
REMARK    5  A    between atoms: C_5  and  C_7
REMARK    6  A    between atoms: C_20  and  C_21
REMARK    7  A    between atoms: C_21  and  C_22
REMARK    8  A    between atoms: C_21  and  N_23
REMARK                            x       y       z     vdW  Elec       q    Type
REMARK                         _______ _______ _______ _____ _____    ______ ____
ROOT
ATOM      1  C   UNL     1      48.514   8.327  12.215  0.00  0.00    +0.000 C 
ENDROOT
BRANCH   1   2
ATOM      2  C   UNL     1      48.653   8.085  13.716  0.00  0.00    +0.000 A 
ATOM      3  C   UNL     1      49.315   6.913  14.114  0.00  0.00    +0.000 A 
ATOM      4  C   UNL     1      49.394   6.549  15.455  0.00  0.00    +0.000 A 
ATOM      5  C   UNL     1      48.849   7.352  16.465  0.00  0.00    +0.000 A 
ATOM      6  C   UNL     1      48.201   8.539  16.082  0.00  0.00    +0.000 A 
ATOM      7  C   UNL     1      48.093   8.895  14.723  0.00  0.00    +0.000 A 
BRANCH   5   8
ATOM      8  C   UNL     1      49.030   6.904  17.912  0.00  0.00    +0.000 C 
ATOM      9  C   UNL     1      48.498   7.966  18.885  0.00  0.00    +0.000 C 
BRANCH   8  10
ATOM     10  N   UNL     1      48.618   5.534  18.174  0.00  0.00    +0.000 NA
ATOM     11  C   UNL     1      49.642   4.525  18.421  0.00  0.00    +0.000 C 
ATOM     12  C   UNL     1      49.581   3.372  17.410  0.00  0.00    +0.000 C 
ATOM     13  O   UNL     1      48.265   2.808  17.339  0.00  0.00    +0.000 OA
ATOM     14  C   UNL     1      47.324   3.808  16.929  0.00  0.00    +0.000 C 
ATOM     15  C   UNL     1      47.296   5.009  17.890  0.00  0.00    +0.000 C 
ENDBRANCH   8  10
ENDBRANCH   5   8
ENDBRANCH   1   2
BRANCH   1  16
ATOM     16  N   UNL     1      47.771   7.215  11.626  0.00  0.00    +0.000 N 
ATOM     17  C   UNL     1      46.407   7.076  11.730  0.00  0.00    +0.000 C 
ATOM     18  O   UNL     1      45.728   7.881  12.365  0.00  0.00    +0.000 OA
ATOM     19  H   UNL     1      48.321   6.511  11.137  0.00  0.00    +0.000 HD
BRANCH  17  20
ATOM     20  C   UNL     1      45.772   5.943  11.028  0.00  0.00    +0.000 A 
ATOM     21  C   UNL     1      45.991   5.782   9.662  0.00  0.00    +0.000 A 
ATOM     22  S   UNL     1      45.245   4.402   8.997  0.00  0.00    +0.000 S 
ATOM     23  C   UNL     1      44.575   3.976  10.500  0.00  0.00    +0.000 A 
ATOM     24  N   UNL     1      43.803   2.863  10.622  0.00  0.00    +0.000 NA
ATOM     25  C   UNL     1      43.349   2.656  11.812  0.00  0.00    +0.000 A 
ATOM     26  N   UNL     1      43.597   3.464  12.891  0.00  0.00    +0.000 N 
ATOM     27  C   UNL     1      44.357   4.605  12.809  0.00  0.00    +0.000 A 
ATOM     28  O   UNL     1      44.520   5.326  13.791  0.00  0.00    +0.000 OA
ATOM     29  C   UNL     1      44.912   4.877  11.496  0.00  0.00    +0.000 A 
ATOM     30  H   UNL     1      43.197   3.258  13.793  0.00  0.00    +0.000 HD
ENDBRANCH  17  20
ENDBRANCH   1  16
BRANCH   1  32
ATOM     31  C   UNL     1      48.960  10.659  11.267  0.00  0.00    +0.000 C 
ATOM     32  C   UNL     1      47.914   9.678  11.782  0.00  0.00    +0.000 C 
ENDBRANCH   1  32
TORSDOF 6
ENDMDL
MODEL 9
REMARK VINA RESULT:    -6.186      3.745      9.302
REMARK INTER + INTRA:          -9.470
REMARK INTER:                  -8.226
REMARK INTRA:                  -1.244
REMARK UNBOUND:                -1.114
REMARK  Name = 
REMARK  8 active torsions:
REMARK  status: ('A' for Active; 'I' for Inactive)
REMARK    1  A    between atoms: C_1  and  C_2
REMARK    2  A    between atoms: C_2  and  C_3
REMARK    3  A    between atoms: C_3  and  N_4
REMARK    4  A    between atoms: C_3  and  C_17
REMARK    5  A    between atoms: C_5  and  C_7
REMARK    6  A    between atoms: C_20  and  C_21
REMARK    7  A    between atoms: C_21  and  C_22
REMARK    8  A    between atoms: C_21  and  N_23
REMARK                            x       y       z     vdW  Elec       q    Type
REMARK                         _______ _______ _______ _____ _____    ______ ____
ROOT
ATOM      1  C   UNL     1      49.079   7.432  15.196  0.00  0.00    +0.000 C 
ENDROOT
BRANCH   1   2
ATOM      2  C   UNL     1      48.848   7.160  16.680  0.00  0.00    +0.000 A 
ATOM      3  C   UNL     1      49.191   8.186  17.577  0.00  0.00    +0.000 A 
ATOM      4  C   UNL     1      49.122   7.992  18.954  0.00  0.00    +0.000 A 
ATOM      5  C   UNL     1      48.675   6.783  19.502  0.00  0.00    +0.000 A 
ATOM      6  C   UNL     1      48.310   5.756  18.615  0.00  0.00    +0.000 A 
ATOM      7  C   UNL     1      48.408   5.937  17.222  0.00  0.00    +0.000 A 
BRANCH   5   8
ATOM      8  C   UNL     1      48.580   6.678  21.021  0.00  0.00    +0.000 C 
ATOM      9  C   UNL     1      47.313   5.918  21.438  0.00  0.00    +0.000 C 
BRANCH   8  10
ATOM     10  N   UNL     1      49.812   6.272  21.676  0.00  0.00    +0.000 NA
ATOM     11  C   UNL     1      50.668   7.296  22.266  0.00  0.00    +0.000 C 
ATOM     12  C   UNL     1      52.077   7.300  21.659  0.00  0.00    +0.000 C 
ATOM     13  O   UNL     1      52.672   5.996  21.710  0.00  0.00    +0.000 OA
ATOM     14  C   UNL     1      51.873   5.063  20.971  0.00  0.00    +0.000 C 
ATOM     15  C   UNL     1      50.436   4.973  21.512  0.00  0.00    +0.000 C 
ENDBRANCH   8  10
ENDBRANCH   5   8
ENDBRANCH   1   2
BRANCH   1  16
ATOM     16  N   UNL     1      47.834   7.188  14.473  0.00  0.00    +0.000 N 
ATOM     17  C   UNL     1      47.736   6.339  13.396  0.00  0.00    +0.000 C 
ATOM     18  O   UNL     1      48.721   5.750  12.954  0.00  0.00    +0.000 OA
ATOM     19  H   UNL     1      47.015   7.704  14.793  0.00  0.00    +0.000 HD
BRANCH  17  20
ATOM     20  C   UNL     1      46.402   6.129  12.800  0.00  0.00    +0.000 A 
ATOM     21  C   UNL     1      45.694   7.227  12.316  0.00  0.00    +0.000 A 
ATOM     22  S   UNL     1      44.198   6.830  11.604  0.00  0.00    +0.000 S 
ATOM     23  C   UNL     1      44.419   5.178  11.937  0.00  0.00    +0.000 A 
ATOM     24  N   UNL     1      43.475   4.268  11.576  0.00  0.00    +0.000 NA
ATOM     25  C   UNL     1      43.759   3.049  11.893  0.00  0.00    +0.000 A 
ATOM     26  N   UNL     1      44.904   2.661  12.540  0.00  0.00    +0.000 N 
ATOM     27  C   UNL     1      45.875   3.547  12.936  0.00  0.00    +0.000 A 
ATOM     28  O   UNL     1      46.866   3.163  13.552  0.00  0.00    +0.000 OA
ATOM     29  C   UNL     1      45.618   4.932  12.587  0.00  0.00    +0.000 A 
ATOM     30  H   UNL     1      45.060   1.693  12.776  0.00  0.00    +0.000 HD
ENDBRANCH  17  20
ENDBRANCH   1  16
BRANCH   1  32
ATOM     31  C   UNL     1      48.649   9.741  14.185  0.00  0.00    +0.000 C 
ATOM     32  C   UNL     1      49.668   8.807  14.825  0.00  0.00    +0.000 C 
ENDBRANCH   1  32
TORSDOF 6
ENDMDL
