MODEL 1
REMARK VINA RESULT:    -8.258      0.000      0.000
REMARK INTER + INTRA:         -12.674
REMARK INTER:                 -11.879
REMARK INTRA:                  -0.795
REMARK UNBOUND:                -0.795
REMARK  Name = 
REMARK  8 active torsions:
REMARK  status: ('A' for Active; 'I' for Inactive)
REMARK    1  A    between atoms: N_1  and  C_2
REMARK    2  A    between atoms: C_7  and  C_8
REMARK    3  A    between atoms: N_10  and  C_11
REMARK    4  A    between atoms: C_11  and  C_12
REMARK    5  A    between atoms: C_15  and  N_16
REMARK    6  A    between atoms: N_16  and  C_17
REMARK    7  A    between atoms: C_17  and  C_18
REMARK    8  A    between atoms: C_18  and  C_19
REMARK                            x       y       z     vdW  Elec       q    Type
REMARK                         _______ _______ _______ _____ _____    ______ ____
ROOT
ATOM      1  C   UNL     1      47.952   6.677  13.717  0.00  0.00    +0.000 C 
ENDROOT
BRANCH   1   2
ATOM      2  C   UNL     1      46.862   6.123  12.838  0.00  0.00    +0.000 A 
ATOM      3  C   UNL     1      46.039   5.101  13.314  0.00  0.00    +0.000 A 
ATOM      4  C   UNL     1      45.054   4.534  12.495  0.00  0.00    +0.000 A 
ATOM      5  C   UNL     1      44.844   4.982  11.186  0.00  0.00    +0.000 A 
ATOM      6  C   UNL     1      45.696   5.986  10.706  0.00  0.00    +0.000 A 
ATOM      7  C   UNL     1      46.680   6.565  11.523  0.00  0.00    +0.000 A 
BRANCH   5   8
ATOM      8  N   UNL     1      43.927   4.374  10.306  0.00  0.00    +0.000 N 
ATOM      9  H   UNL     1      43.046   4.176  10.772  0.00  0.00    +0.000 HD
BRANCH   8  10
ATOM     10  C   UNL     1      44.415   3.246   9.503  0.00  0.00    +0.000 C 
BRANCH  10  11
ATOM     11  C   UNL     1      44.718   3.673   8.061  0.00  0.00    +0.000 C 
BRANCH  11  12
ATOM     12  C   UNL     1      45.846   2.854   7.477  0.00  0.00    +0.000 A 
ATOM     13  C   UNL     1      46.232   1.641   8.055  0.00  0.00    +0.000 A 
ATOM     14  C   UNL     1      47.311   0.958   7.510  0.00  0.00    +0.000 A 
ATOM     15  N   UNL     1      48.021   1.396   6.448  0.00  0.00    +0.000 NA
ATOM     16  C   UNL     1      47.632   2.567   5.903  0.00  0.00    +0.000 A 
ATOM     17  C   UNL     1      46.567   3.321   6.374  0.00  0.00    +0.000 A 
ENDBRANCH  11  12
ENDBRANCH  10  11
ENDBRANCH   8  10
ENDBRANCH   5   8
ENDBRANCH   1   2
BRANCH   1  20
ATOM     18  C   UNL     1      48.967   6.175  15.880  0.00  0.00    +0.000 C 
ATOM     19  O   UNL     1      50.049   6.597  15.483  0.00  0.00    +0.000 OA
ATOM     20  N   UNL     1      47.850   6.164  15.068  0.00  0.00    +0.000 N 
ATOM     21  H   UNL     1      46.943   6.142  15.507  0.00  0.00    +0.000 HD
BRANCH  18  27
ATOM     22  C   UNL     1      47.679   6.067  20.783  0.00  0.00    +0.000 A 
ATOM     23  N   UNL     1      47.419   7.381  20.930  0.00  0.00    +0.000 NA
ATOM     24  C   UNL     1      47.574   8.208  19.882  0.00  0.00    +0.000 A 
ATOM     25  C   UNL     1      48.003   7.807  18.626  0.00  0.00    +0.000 A 
ATOM     26  C   UNL     1      48.333   6.445  18.435  0.00  0.00    +0.000 A 
ATOM     27  C   UNL     1      48.776   5.710  17.258  0.00  0.00    +0.000 A 
ATOM     28  C   UNL     1      48.951   4.370  17.550  0.00  0.00    +0.000 A 
ATOM     29  S   UNL     1      48.603   3.975  19.161  0.00  0.00    +0.000 S 
ATOM     30  C   UNL     1      48.164   5.598  19.543  0.00  0.00    +0.000 A 
BRANCH  22  31
ATOM     31  N   UNL     1      47.427   5.250  21.871  0.00  0.00    +0.000 N 
ATOM     32  H   UNL     1      47.709   5.662  22.750  0.00  0.00    +0.000 HD
ATOM     33  H   UNL     1      47.551   4.256  21.738  0.00  0.00    +0.000 HD
ENDBRANCH  22  31
ENDBRANCH  18  27
ENDBRANCH   1  20
TORSDOF 8
ENDMDL
MODEL 2
REMARK VINA RESULT:    -8.242      1.657      2.387
REMARK INTER + INTRA:         -12.651
REMARK INTER:                 -11.630
REMARK INTRA:                  -1.022
REMARK UNBOUND:                -0.795
REMARK  Name = 
REMARK  8 active torsions:
REMARK  status: ('A' for Active; 'I' for Inactive)
REMARK    1  A    between atoms: N_1  and  C_2
REMARK    2  A    between atoms: C_7  and  C_8
REMARK    3  A    between atoms: N_10  and  C_11
REMARK    4  A    between atoms: C_11  and  C_12
REMARK    5  A    between atoms: C_15  and  N_16
REMARK    6  A    between atoms: N_16  and  C_17
REMARK    7  A    between atoms: C_17  and  C_18
REMARK    8  A    between atoms: C_18  and  C_19
REMARK                            x       y       z     vdW  Elec       q    Type
REMARK                         _______ _______ _______ _____ _____    ______ ____
ROOT
ATOM      1  C   UNL     1      47.346   7.909  13.254  0.00  0.00    +0.000 C 
ENDROOT
BRANCH   1   2
ATOM      2  C   UNL     1      46.425   6.964  12.529  0.00  0.00    +0.000 A 
ATOM      3  C   UNL     1      45.360   7.469  11.781  0.00  0.00    +0.000 A 
ATOM      4  C   UNL     1      44.460   6.606  11.143  0.00  0.00    +0.000 A 
ATOM      5  C   UNL     1      44.604   5.216  11.212  0.00  0.00    +0.000 A 
ATOM      6  C   UNL     1      45.657   4.718  11.991  0.00  0.00    +0.000 A 
ATOM      7  C   UNL     1      46.568   5.576  12.627  0.00  0.00    +0.000 A 
BRANCH   5   8
ATOM      8  N   UNL     1      43.667   4.321  10.660  0.00  0.00    +0.000 N 
ATOM      9  H   UNL     1      43.048   3.949  11.375  0.00  0.00    +0.000 HD
BRANCH   8  10
ATOM     10  C   UNL     1      44.182   3.287   9.754  0.00  0.00    +0.000 C 
BRANCH  10  11
ATOM     11  C   UNL     1      44.822   3.904   8.504  0.00  0.00    +0.000 C 
BRANCH  11  12
ATOM     12  C   UNL     1      45.886   2.995   7.934  0.00  0.00    +0.000 A 
ATOM     13  C   UNL     1      46.814   3.464   7.000  0.00  0.00    +0.000 A 
ATOM     14  C   UNL     1      47.734   2.571   6.469  0.00  0.00    +0.000 A 
ATOM     15  N   UNL     1      47.789   1.262   6.797  0.00  0.00    +0.000 NA
ATOM     16  C   UNL     1      46.888   0.828   7.702  0.00  0.00    +0.000 A 
ATOM     17  C   UNL     1      45.931   1.642   8.290  0.00  0.00    +0.000 A 
ENDBRANCH  11  12
ENDBRANCH  10  11
ENDBRANCH   8  10
ENDBRANCH   5   8
ENDBRANCH   1   2
BRANCH   1  20
ATOM     18  C   UNL     1      48.886   7.027  14.932  0.00  0.00    +0.000 C 
ATOM     19  O   UNL     1      49.795   7.015  14.108  0.00  0.00    +0.000 OA
ATOM     20  N   UNL     1      47.613   7.451  14.603  0.00  0.00    +0.000 N 
ATOM     21  H   UNL     1      47.010   7.767  15.346  0.00  0.00    +0.000 HD
BRANCH  18  27
ATOM     22  C   UNL     1      49.037   4.308  19.208  0.00  0.00    +0.000 A 
ATOM     23  N   UNL     1      48.297   3.264  18.785  0.00  0.00    +0.000 NA
ATOM     24  C   UNL     1      47.800   3.269  17.537  0.00  0.00    +0.000 A 
ATOM     25  C   UNL     1      47.985   4.297  16.625  0.00  0.00    +0.000 A 
ATOM     26  C   UNL     1      48.715   5.435  17.039  0.00  0.00    +0.000 A 
ATOM     27  C   UNL     1      49.105   6.648  16.332  0.00  0.00    +0.000 A 
ATOM     28  C   UNL     1      49.848   7.479  17.150  0.00  0.00    +0.000 A 
ATOM     29  S   UNL     1      50.090   6.858  18.708  0.00  0.00    +0.000 S 
ATOM     30  C   UNL     1      49.226   5.410  18.347  0.00  0.00    +0.000 A 
BRANCH  22  31
ATOM     31  N   UNL     1      49.590   4.216  20.474  0.00  0.00    +0.000 N 
ATOM     32  H   UNL     1      49.285   4.954  21.094  0.00  0.00    +0.000 HD
ATOM     33  H   UNL     1      50.544   3.891  20.537  0.00  0.00    +0.000 HD
ENDBRANCH  22  31
ENDBRANCH  18  27
ENDBRANCH   1  20
TORSDOF 8
ENDMDL
MODEL 3
REMARK VINA RESULT:    -7.815      1.527      2.103
REMARK INTER + INTRA:         -12.036
REMARK INTER:                 -11.217
REMARK INTRA:                  -0.819
REMARK UNBOUND:                -0.795
REMARK  Name = 
REMARK  8 active torsions:
REMARK  status: ('A' for Active; 'I' for Inactive)
REMARK    1  A    between atoms: N_1  and  C_2
REMARK    2  A    between atoms: C_7  and  C_8
REMARK    3  A    between atoms: N_10  and  C_11
REMARK    4  A    between atoms: C_11  and  C_12
REMARK    5  A    between atoms: C_15  and  N_16
REMARK    6  A    between atoms: N_16  and  C_17
REMARK    7  A    between atoms: C_17  and  C_18
REMARK    8  A    between atoms: C_18  and  C_19
REMARK                            x       y       z     vdW  Elec       q    Type
REMARK                         _______ _______ _______ _____ _____    ______ ____
ROOT
ATOM      1  C   UNL     1      47.364   4.044  15.319  0.00  0.00    +0.000 C 
ENDROOT
BRANCH   1   2
ATOM      2  C   UNL     1      46.678   4.443  14.040  0.00  0.00    +0.000 A 
ATOM      3  C   UNL     1      46.050   3.474  13.255  0.00  0.00    +0.000 A 
ATOM      4  C   UNL     1      45.452   3.816  12.036  0.00  0.00    +0.000 A 
ATOM      5  C   UNL     1      45.442   5.135  11.570  0.00  0.00    +0.000 A 
ATOM      6  C   UNL     1      46.102   6.096  12.347  0.00  0.00    +0.000 A 
ATOM      7  C   UNL     1      46.697   5.763  13.575  0.00  0.00    +0.000 A 
BRANCH   5   8
ATOM      8  N   UNL     1      44.932   5.498  10.308  0.00  0.00    +0.000 N 
ATOM      9  H   UNL     1      43.935   5.311  10.246  0.00  0.00    +0.000 HD
BRANCH   8  10
ATOM     10  C   UNL     1      45.675   5.038   9.128  0.00  0.00    +0.000 C 
BRANCH  10  11
ATOM     11  C   UNL     1      44.927   3.914   8.398  0.00  0.00    +0.000 C 
BRANCH  11  12
ATOM     12  C   UNL     1      45.894   2.965   7.727  0.00  0.00    +0.000 A 
ATOM     13  C   UNL     1      46.085   1.668   8.209  0.00  0.00    +0.000 A 
ATOM     14  C   UNL     1      47.026   0.858   7.588  0.00  0.00    +0.000 A 
ATOM     15  N   UNL     1      47.781   1.250   6.539  0.00  0.00    +0.000 NA
ATOM     16  C   UNL     1      47.581   2.505   6.086  0.00  0.00    +0.000 A 
ATOM     17  C   UNL     1      46.664   3.387   6.638  0.00  0.00    +0.000 A 
ENDBRANCH  11  12
ENDBRANCH  10  11
ENDBRANCH   8  10
ENDBRANCH   5   8
ENDBRANCH   1   2
BRANCH   1  20
ATOM     18  C   UNL     1      48.536   5.667  16.717  0.00  0.00    +0.000 C 
ATOM     19  O   UNL     1      49.618   5.253  16.310  0.00  0.00    +0.000 OA
ATOM     20  N   UNL     1      47.342   5.122  16.286  0.00  0.00    +0.000 N 
ATOM     21  H   UNL     1      46.508   5.683  16.362  0.00  0.00    +0.000 HD
BRANCH  18  27
ATOM     22  C   UNL     1      47.926   8.378  20.958  0.00  0.00    +0.000 A 
ATOM     23  N   UNL     1      47.444   7.389  21.736  0.00  0.00    +0.000 NA
ATOM     24  C   UNL     1      47.280   6.160  21.218  0.00  0.00    +0.000 A 
ATOM     25  C   UNL     1      47.566   5.819  19.905  0.00  0.00    +0.000 A 
ATOM     26  C   UNL     1      48.029   6.834  19.037  0.00  0.00    +0.000 A 
ATOM     27  C   UNL     1      48.438   6.804  17.639  0.00  0.00    +0.000 A 
ATOM     28  C   UNL     1      48.849   8.055  17.217  0.00  0.00    +0.000 A 
ATOM     29  S   UNL     1      48.763   9.240  18.425  0.00  0.00    +0.000 S 
ATOM     30  C   UNL     1      48.194   8.112  19.597  0.00  0.00    +0.000 A 
BRANCH  22  31
ATOM     31  N   UNL     1      48.149   9.603  21.562  0.00  0.00    +0.000 N 
ATOM     32  H   UNL     1      47.326  10.190  21.584  0.00  0.00    +0.000 HD
ATOM     33  H   UNL     1      49.049  10.034  21.408  0.00  0.00    +0.000 HD
ENDBRANCH  22  31
ENDBRANCH  18  27
ENDBRANCH   1  20
TORSDOF 8
ENDMDL
MODEL 4
REMARK VINA RESULT:    -7.672      1.805      2.551
REMARK INTER + INTRA:         -11.831
REMARK INTER:                 -10.966
REMARK INTRA:                  -0.865
REMARK UNBOUND:                -0.795
REMARK  Name = 
REMARK  8 active torsions:
REMARK  status: ('A' for Active; 'I' for Inactive)
REMARK    1  A    between atoms: N_1  and  C_2
REMARK    2  A    between atoms: C_7  and  C_8
REMARK    3  A    between atoms: N_10  and  C_11
REMARK    4  A    between atoms: C_11  and  C_12
REMARK    5  A    between atoms: C_15  and  N_16
REMARK    6  A    between atoms: N_16  and  C_17
REMARK    7  A    between atoms: C_17  and  C_18
REMARK    8  A    between atoms: C_18  and  C_19
REMARK                            x       y       z     vdW  Elec       q    Type
REMARK                         _______ _______ _______ _____ _____    ______ ____
ROOT
ATOM      1  C   UNL     1      47.397   4.007  15.156  0.00  0.00    +0.000 C 
ENDROOT
BRANCH   1   2
ATOM      2  C   UNL     1      46.709   4.455  13.894  0.00  0.00    +0.000 A 
ATOM      3  C   UNL     1      45.874   3.572  13.207  0.00  0.00    +0.000 A 
ATOM      4  C   UNL     1      45.266   3.951  12.003  0.00  0.00    +0.000 A 
ATOM      5  C   UNL     1      45.453   5.226  11.458  0.00  0.00    +0.000 A 
ATOM      6  C   UNL     1      46.317   6.095  12.138  0.00  0.00    +0.000 A 
ATOM      7  C   UNL     1      46.924   5.726  13.349  0.00  0.00    +0.000 A 
BRANCH   5   8
ATOM      8  N   UNL     1      44.932   5.607  10.206  0.00  0.00    +0.000 N 
ATOM      9  H   UNL     1      43.929   5.452  10.162  0.00  0.00    +0.000 HD
BRANCH   8  10
ATOM     10  C   UNL     1      45.639   5.126   9.012  0.00  0.00    +0.000 C 
BRANCH  10  11
ATOM     11  C   UNL     1      44.955   3.889   8.416  0.00  0.00    +0.000 C 
BRANCH  11  12
ATOM     12  C   UNL     1      45.967   2.960   7.786  0.00  0.00    +0.000 A 
ATOM     13  C   UNL     1      46.781   3.385   6.733  0.00  0.00    +0.000 A 
ATOM     14  C   UNL     1      47.654   2.473   6.156  0.00  0.00    +0.000 A 
ATOM     15  N   UNL     1      47.766   1.186   6.548  0.00  0.00    +0.000 NA
ATOM     16  C   UNL     1      46.974   0.794   7.568  0.00  0.00    +0.000 A 
ATOM     17  C   UNL     1      46.073   1.630   8.209  0.00  0.00    +0.000 A 
ENDBRANCH  11  12
ENDBRANCH  10  11
ENDBRANCH   8  10
ENDBRANCH   5   8
ENDBRANCH   1   2
BRANCH   1  20
ATOM     18  C   UNL     1      48.436   5.212  17.009  0.00  0.00    +0.000 C 
ATOM     19  O   UNL     1      49.439   4.508  16.919  0.00  0.00    +0.000 OA
ATOM     20  N   UNL     1      47.350   5.037  16.175  0.00  0.00    +0.000 N 
ATOM     21  H   UNL     1      46.720   5.813  16.044  0.00  0.00    +0.000 HD
BRANCH  18  27
ATOM     22  C   UNL     1      48.078   9.890  18.930  0.00  0.00    +0.000 A 
ATOM     23  N   UNL     1      48.295  10.571  17.788  0.00  0.00    +0.000 NA
ATOM     24  C   UNL     1      48.525   9.897  16.649  0.00  0.00    +0.000 A 
ATOM     25  C   UNL     1      48.567   8.514  16.553  0.00  0.00    +0.000 A 
ATOM     26  C   UNL     1      48.392   7.757  17.734  0.00  0.00    +0.000 A 
ATOM     27  C   UNL     1      48.351   6.319  17.967  0.00  0.00    +0.000 A 
ATOM     28  C   UNL     1      48.125   6.042  19.303  0.00  0.00    +0.000 A 
ATOM     29  S   UNL     1      47.959   7.427  20.265  0.00  0.00    +0.000 S 
ATOM     30  C   UNL     1      48.153   8.480  18.914  0.00  0.00    +0.000 A 
BRANCH  22  31
ATOM     31  N   UNL     1      47.769  10.632  20.057  0.00  0.00    +0.000 N 
ATOM     32  H   UNL     1      48.444  10.520  20.803  0.00  0.00    +0.000 HD
ATOM     33  H   UNL     1      46.792  10.721  20.295  0.00  0.00    +0.000 HD
ENDBRANCH  22  31
ENDBRANCH  18  27
ENDBRANCH   1  20
TORSDOF 8
ENDMDL
MODEL 5
REMARK VINA RESULT:    -7.417      2.370      2.876
REMARK INTER + INTRA:         -11.464
REMARK INTER:                 -10.567
REMARK INTRA:                  -0.898
REMARK UNBOUND:                -0.795
REMARK  Name = 
REMARK  8 active torsions:
REMARK  status: ('A' for Active; 'I' for Inactive)
REMARK    1  A    between atoms: N_1  and  C_2
REMARK    2  A    between atoms: C_7  and  C_8
REMARK    3  A    between atoms: N_10  and  C_11
REMARK    4  A    between atoms: C_11  and  C_12
REMARK    5  A    between atoms: C_15  and  N_16
REMARK    6  A    between atoms: N_16  and  C_17
REMARK    7  A    between atoms: C_17  and  C_18
REMARK    8  A    between atoms: C_18  and  C_19
REMARK                            x       y       z     vdW  Elec       q    Type
REMARK                         _______ _______ _______ _____ _____    ______ ____
ROOT
ATOM      1  C   UNL     1      47.021   4.529  14.826  0.00  0.00    +0.000 C 
ENDROOT
BRANCH   1   2
ATOM      2  C   UNL     1      46.141   4.615  13.607  0.00  0.00    +0.000 A 
ATOM      3  C   UNL     1      45.810   3.455  12.905  0.00  0.00    +0.000 A 
ATOM      4  C   UNL     1      45.037   3.518  11.739  0.00  0.00    +0.000 A 
ATOM      5  C   UNL     1      44.552   4.735  11.247  0.00  0.00    +0.000 A 
ATOM      6  C   UNL     1      44.916   5.898  11.940  0.00  0.00    +0.000 A 
ATOM      7  C   UNL     1      45.684   5.842  13.114  0.00  0.00    +0.000 A 
BRANCH   5   8
ATOM      8  N   UNL     1      43.852   4.845  10.031  0.00  0.00    +0.000 N 
ATOM      9  H   UNL     1      42.849   4.891  10.186  0.00  0.00    +0.000 HD
BRANCH   8  10
ATOM     10  C   UNL     1      44.222   3.913   8.958  0.00  0.00    +0.000 C 
BRANCH  10  11
ATOM     11  C   UNL     1      45.494   4.370   8.232  0.00  0.00    +0.000 C 
BRANCH  11  12
ATOM     12  C   UNL     1      46.220   3.195   7.617  0.00  0.00    +0.000 A 
ATOM     13  C   UNL     1      46.180   1.930   8.210  0.00  0.00    +0.000 A 
ATOM     14  C   UNL     1      46.910   0.900   7.632  0.00  0.00    +0.000 A 
ATOM     15  N   UNL     1      47.669   1.045   6.524  0.00  0.00    +0.000 NA
ATOM     16  C   UNL     1      47.693   2.272   5.965  0.00  0.00    +0.000 A 
ATOM     17  C   UNL     1      46.997   3.362   6.466  0.00  0.00    +0.000 A 
ENDBRANCH  11  12
ENDBRANCH  10  11
ENDBRANCH   8  10
ENDBRANCH   5   8
ENDBRANCH   1   2
BRANCH   1  20
ATOM     18  C   UNL     1      48.493   5.917  16.193  0.00  0.00    +0.000 C 
ATOM     19  O   UNL     1      48.576   5.024  17.031  0.00  0.00    +0.000 OA
ATOM     20  N   UNL     1      47.730   5.772  15.050  0.00  0.00    +0.000 N 
ATOM     21  H   UNL     1      47.951   6.351  14.255  0.00  0.00    +0.000 HD
BRANCH  18  27
ATOM     22  C   UNL     1      50.116  10.391  17.941  0.00  0.00    +0.000 A 
ATOM     23  N   UNL     1      49.134  10.601  18.839  0.00  0.00    +0.000 NA
ATOM     24  C   UNL     1      48.151   9.694  18.968  0.00  0.00    +0.000 A 
ATOM     25  C   UNL     1      48.058   8.529  18.222  0.00  0.00    +0.000 A 
ATOM     26  C   UNL     1      49.040   8.288  17.234  0.00  0.00    +0.000 A 
ATOM     27  C   UNL     1      49.244   7.171  16.321  0.00  0.00    +0.000 A 
ATOM     28  C   UNL     1      50.371   7.367  15.546  0.00  0.00    +0.000 A 
ATOM     29  S   UNL     1      51.179   8.820  15.877  0.00  0.00    +0.000 S 
ATOM     30  C   UNL     1      50.059   9.247  17.115  0.00  0.00    +0.000 A 
BRANCH  22  31
ATOM     31  N   UNL     1      51.144  11.317  17.905  0.00  0.00    +0.000 N 
ATOM     32  H   UNL     1      50.834  12.261  18.090  0.00  0.00    +0.000 HD
ATOM     33  H   UNL     1      51.872  11.169  17.219  0.00  0.00    +0.000 HD
ENDBRANCH  22  31
ENDBRANCH  18  27
ENDBRANCH   1  20
TORSDOF 8
ENDMDL
MODEL 6
REMARK VINA RESULT:    -7.196      2.471      3.087
REMARK INTER + INTRA:         -11.147
REMARK INTER:                 -10.430
REMARK INTRA:                  -0.717
REMARK UNBOUND:                -0.795
REMARK  Name = 
REMARK  8 active torsions:
REMARK  status: ('A' for Active; 'I' for Inactive)
REMARK    1  A    between atoms: N_1  and  C_2
REMARK    2  A    between atoms: C_7  and  C_8
REMARK    3  A    between atoms: N_10  and  C_11
REMARK    4  A    between atoms: C_11  and  C_12
REMARK    5  A    between atoms: C_15  and  N_16
REMARK    6  A    between atoms: N_16  and  C_17
REMARK    7  A    between atoms: C_17  and  C_18
REMARK    8  A    between atoms: C_18  and  C_19
REMARK                            x       y       z     vdW  Elec       q    Type
REMARK                         _______ _______ _______ _____ _____    ______ ____
ROOT
ATOM      1  C   UNL     1      46.965   3.749  15.113  0.00  0.00    +0.000 C 
ENDROOT
BRANCH   1   2
ATOM      2  C   UNL     1      46.473   4.328  13.814  0.00  0.00    +0.000 A 
ATOM      3  C   UNL     1      45.674   3.557  12.968  0.00  0.00    +0.000 A 
ATOM      4  C   UNL     1      45.249   4.057  11.730  0.00  0.00    +0.000 A 
ATOM      5  C   UNL     1      45.590   5.346  11.306  0.00  0.00    +0.000 A 
ATOM      6  C   UNL     1      46.420   6.101  12.147  0.00  0.00    +0.000 A 
ATOM      7  C   UNL     1      46.842   5.610  13.393  0.00  0.00    +0.000 A 
BRANCH   5   8
ATOM      8  N   UNL     1      45.259   5.846  10.032  0.00  0.00    +0.000 N 
ATOM      9  H   UNL     1      44.252   5.935   9.921  0.00  0.00    +0.000 HD
BRANCH   8  10
ATOM     10  C   UNL     1      45.907   5.215   8.875  0.00  0.00    +0.000 C 
BRANCH  10  11
ATOM     11  C   UNL     1      45.086   4.030   8.349  0.00  0.00    +0.000 C 
BRANCH  11  12
ATOM     12  C   UNL     1      45.978   3.003   7.689  0.00  0.00    +0.000 A 
ATOM     13  C   UNL     1      46.092   1.709   8.201  0.00  0.00    +0.000 A 
ATOM     14  C   UNL     1      46.967   0.824   7.587  0.00  0.00    +0.000 A 
ATOM     15  N   UNL     1      47.728   1.138   6.517  0.00  0.00    +0.000 NA
ATOM     16  C   UNL     1      47.603   2.392   6.035  0.00  0.00    +0.000 A 
ATOM     17  C   UNL     1      46.755   3.346   6.577  0.00  0.00    +0.000 A 
ENDBRANCH  11  12
ENDBRANCH  10  11
ENDBRANCH   8  10
ENDBRANCH   5   8
ENDBRANCH   1   2
BRANCH   1  20
ATOM     18  C   UNL     1      47.787   4.861  17.126  0.00  0.00    +0.000 C 
ATOM     19  O   UNL     1      46.906   4.327  17.794  0.00  0.00    +0.000 OA
ATOM     20  N   UNL     1      47.900   4.642  15.767  0.00  0.00    +0.000 N 
ATOM     21  H   UNL     1      48.794   4.805  15.332  0.00  0.00    +0.000 HD
BRANCH  18  27
ATOM     22  C   UNL     1      52.260   6.557  18.805  0.00  0.00    +0.000 A 
ATOM     23  N   UNL     1      52.947   5.405  18.685  0.00  0.00    +0.000 NA
ATOM     24  C   UNL     1      52.320   4.305  18.234  0.00  0.00    +0.000 A 
ATOM     25  C   UNL     1      50.980   4.258  17.881  0.00  0.00    +0.000 A 
ATOM     26  C   UNL     1      50.206   5.430  18.035  0.00  0.00    +0.000 A 
ATOM     27  C   UNL     1      48.810   5.718  17.736  0.00  0.00    +0.000 A 
ATOM     28  C   UNL     1      48.502   7.032  18.033  0.00  0.00    +0.000 A 
ATOM     29  S   UNL     1      49.813   7.915  18.644  0.00  0.00    +0.000 S 
ATOM     30  C   UNL     1      50.880   6.569  18.508  0.00  0.00    +0.000 A 
BRANCH  22  31
ATOM     31  N   UNL     1      52.972   7.677  19.200  0.00  0.00    +0.000 N 
ATOM     32  H   UNL     1      53.446   8.136  18.433  0.00  0.00    +0.000 HD
ATOM     33  H   UNL     1      53.429   7.638  20.100  0.00  0.00    +0.000 HD
ENDBRANCH  22  31
ENDBRANCH  18  27
ENDBRANCH   1  20
TORSDOF 8
ENDMDL
MODEL 7
REMARK VINA RESULT:    -7.048      2.938      4.430
REMARK INTER + INTRA:         -10.934
REMARK INTER:                 -10.157
REMARK INTRA:                  -0.776
REMARK UNBOUND:                -0.795
REMARK  Name = 
REMARK  8 active torsions:
REMARK  status: ('A' for Active; 'I' for Inactive)
REMARK    1  A    between atoms: N_1  and  C_2
REMARK    2  A    between atoms: C_7  and  C_8
REMARK    3  A    between atoms: N_10  and  C_11
REMARK    4  A    between atoms: C_11  and  C_12
REMARK    5  A    between atoms: C_15  and  N_16
REMARK    6  A    between atoms: N_16  and  C_17
REMARK    7  A    between atoms: C_17  and  C_18
REMARK    8  A    between atoms: C_18  and  C_19
REMARK                            x       y       z     vdW  Elec       q    Type
REMARK                         _______ _______ _______ _____ _____    ______ ____
ROOT
ATOM      1  C   UNL     1      46.822   5.049  14.523  0.00  0.00    +0.000 C 
ENDROOT
BRANCH   1   2
ATOM      2  C   UNL     1      45.961   5.066  13.288  0.00  0.00    +0.000 A 
ATOM      3  C   UNL     1      44.843   4.235  13.208  0.00  0.00    +0.000 A 
ATOM      4  C   UNL     1      44.059   4.197  12.048  0.00  0.00    +0.000 A 
ATOM      5  C   UNL     1      44.352   4.999  10.940  0.00  0.00    +0.000 A 
ATOM      6  C   UNL     1      45.495   5.807  11.016  0.00  0.00    +0.000 A 
ATOM      7  C   UNL     1      46.281   5.857  12.179  0.00  0.00    +0.000 A 
BRANCH   5   8
ATOM      8  N   UNL     1      43.642   4.918   9.727  0.00  0.00    +0.000 N 
ATOM      9  H   UNL     1      42.690   4.597   9.878  0.00  0.00    +0.000 HD
BRANCH   8  10
ATOM     10  C   UNL     1      44.304   4.238   8.607  0.00  0.00    +0.000 C 
BRANCH  10  11
ATOM     11  C   UNL     1      44.775   2.833   9.003  0.00  0.00    +0.000 C 
BRANCH  11  12
ATOM     12  C   UNL     1      45.910   2.371   8.117  0.00  0.00    +0.000 A 
ATOM     13  C   UNL     1      46.258   1.020   8.035  0.00  0.00    +0.000 A 
ATOM     14  C   UNL     1      47.344   0.660   7.248  0.00  0.00    +0.000 A 
ATOM     15  N   UNL     1      48.096   1.541   6.554  0.00  0.00    +0.000 NA
ATOM     16  C   UNL     1      47.743   2.839   6.644  0.00  0.00    +0.000 A 
ATOM     17  C   UNL     1      46.675   3.298   7.401  0.00  0.00    +0.000 A 
ENDBRANCH  11  12
ENDBRANCH  10  11
ENDBRANCH   8  10
ENDBRANCH   5   8
ENDBRANCH   1   2
BRANCH   1  20
ATOM     18  C   UNL     1      48.793   6.162  15.439  0.00  0.00    +0.000 C 
ATOM     19  O   UNL     1      48.946   5.251  16.248  0.00  0.00    +0.000 OA
ATOM     20  N   UNL     1      47.751   6.160  14.532  0.00  0.00    +0.000 N 
ATOM     21  H   UNL     1      47.849   6.712  13.694  0.00  0.00    +0.000 HD
BRANCH  18  27
ATOM     22  C   UNL     1      51.567   9.966  13.556  0.00  0.00    +0.000 A 
ATOM     23  N   UNL     1      51.346   9.721  12.250  0.00  0.00    +0.000 NA
ATOM     24  C   UNL     1      50.578   8.678  11.893  0.00  0.00    +0.000 A 
ATOM     25  C   UNL     1      49.983   7.802  12.788  0.00  0.00    +0.000 A 
ATOM     26  C   UNL     1      50.225   7.990  14.168  0.00  0.00    +0.000 A 
ATOM     27  C   UNL     1      49.739   7.280  15.344  0.00  0.00    +0.000 A 
ATOM     28  C   UNL     1      50.230   7.850  16.503  0.00  0.00    +0.000 A 
ATOM     29  S   UNL     1      51.235   9.187  16.229  0.00  0.00    +0.000 S 
ATOM     30  C   UNL     1      51.031   9.085  14.520  0.00  0.00    +0.000 A 
BRANCH  22  31
ATOM     31  N   UNL     1      52.300  11.097  13.870  0.00  0.00    +0.000 N 
ATOM     32  H   UNL     1      51.760  11.950  13.808  0.00  0.00    +0.000 HD
ATOM     33  H   UNL     1      53.268  11.113  13.580  0.00  0.00    +0.000 HD
ENDBRANCH  22  31
ENDBRANCH  18  27
ENDBRANCH   1  20
TORSDOF 8
ENDMDL
MODEL 8
REMARK VINA RESULT:    -6.929      3.177      9.113
REMARK INTER + INTRA:         -10.762
REMARK INTER:                  -9.558
REMARK INTRA:                  -1.204
REMARK UNBOUND:                -0.795
REMARK  Name = 
REMARK  8 active torsions:
REMARK  status: ('A' for Active; 'I' for Inactive)
REMARK    1  A    between atoms: N_1  and  C_2
REMARK    2  A    between atoms: C_7  and  C_8
REMARK    3  A    between atoms: N_10  and  C_11
REMARK    4  A    between atoms: C_11  and  C_12
REMARK    5  A    between atoms: C_15  and  N_16
REMARK    6  A    between atoms: N_16  and  C_17
REMARK    7  A    between atoms: C_17  and  C_18
REMARK    8  A    between atoms: C_18  and  C_19
REMARK                            x       y       z     vdW  Elec       q    Type
REMARK                         _______ _______ _______ _____ _____    ______ ____
ROOT
ATOM      1  C   UNL     1      47.320   8.366  13.377  0.00  0.00    +0.000 C 
ENDROOT
BRANCH   1   2
ATOM      2  C   UNL     1      48.248   8.189  14.548  0.00  0.00    +0.000 A 
ATOM      3  C   UNL     1      49.242   7.209  14.505  0.00  0.00    +0.000 A 
ATOM      4  C   UNL     1      50.081   6.991  15.605  0.00  0.00    +0.000 A 
ATOM      5  C   UNL     1      49.973   7.755  16.772  0.00  0.00    +0.000 A 
ATOM      6  C   UNL     1      48.952   8.714  16.819  0.00  0.00    +0.000 A 
ATOM      7  C   UNL     1      48.111   8.945  15.718  0.00  0.00    +0.000 A 
BRANCH   5   8
ATOM      8  N   UNL     1      50.738   7.502  17.927  0.00  0.00    +0.000 N 
ATOM      9  H   UNL     1      51.511   8.156  18.007  0.00  0.00    +0.000 HD
BRANCH   8  10
ATOM     10  C   UNL     1      51.138   6.111  18.175  0.00  0.00    +0.000 C 
BRANCH  10  11
ATOM     11  C   UNL     1      49.974   5.284  18.737  0.00  0.00    +0.000 C 
BRANCH  11  12
ATOM     12  C   UNL     1      49.725   4.054  17.895  0.00  0.00    +0.000 A 
ATOM     13  C   UNL     1      50.720   3.090  17.711  0.00  0.00    +0.000 A 
ATOM     14  C   UNL     1      50.454   2.009  16.882  0.00  0.00    +0.000 A 
ATOM     15  N   UNL     1      49.285   1.828  16.231  0.00  0.00    +0.000 NA
ATOM     16  C   UNL     1      48.336   2.768  16.422  0.00  0.00    +0.000 A 
ATOM     17  C   UNL     1      48.505   3.882  17.231  0.00  0.00    +0.000 A 
ENDBRANCH  11  12
ENDBRANCH  10  11
ENDBRANCH   8  10
ENDBRANCH   5   8
ENDBRANCH   1   2
BRANCH   1  20
ATOM     18  C   UNL     1      45.501   7.103  12.349  0.00  0.00    +0.000 C 
ATOM     19  O   UNL     1      44.885   8.143  12.133  0.00  0.00    +0.000 OA
ATOM     20  N   UNL     1      46.731   7.105  12.976  0.00  0.00    +0.000 N 
ATOM     21  H   UNL     1      47.340   6.314  12.832  0.00  0.00    +0.000 HD
BRANCH  18  27
ATOM     22  C   UNL     1      44.752   2.935   9.560  0.00  0.00    +0.000 A 
ATOM     23  N   UNL     1      45.359   3.360   8.434  0.00  0.00    +0.000 NA
ATOM     24  C   UNL     1      45.890   4.594   8.394  0.00  0.00    +0.000 A 
ATOM     25  C   UNL     1      45.854   5.496   9.446  0.00  0.00    +0.000 A 
ATOM     26  C   UNL     1      45.186   5.113  10.632  0.00  0.00    +0.000 A 
ATOM     27  C   UNL     1      44.997   5.798  11.904  0.00  0.00    +0.000 A 
ATOM     28  C   UNL     1      44.291   5.007  12.791  0.00  0.00    +0.000 A 
ATOM     29  S   UNL     1      43.861   3.495  12.158  0.00  0.00    +0.000 S 
ATOM     30  C   UNL     1      44.638   3.820  10.654  0.00  0.00    +0.000 A 
BRANCH  22  31
ATOM     31  N   UNL     1      44.292   1.630   9.573  0.00  0.00    +0.000 N 
ATOM     32  H   UNL     1      43.662   1.440  10.340  0.00  0.00    +0.000 HD
ATOM     33  H   UNL     1      44.941   0.911   9.287  0.00  0.00    +0.000 HD
ENDBRANCH  22  31
ENDBRANCH  18  27
ENDBRANCH   1  20
TORSDOF 8
ENDMDL
MODEL 9
REMARK VINA RESULT:    -6.882      3.864      9.901
REMARK INTER + INTRA:         -10.694
REMARK INTER:                  -9.233
REMARK INTRA:                  -1.461
REMARK UNBOUND:                -0.795
REMARK  Name = 
REMARK  8 active torsions:
REMARK  status: ('A' for Active; 'I' for Inactive)
REMARK    1  A    between atoms: N_1  and  C_2
REMARK    2  A    between atoms: C_7  and  C_8
REMARK    3  A    between atoms: N_10  and  C_11
REMARK    4  A    between atoms: C_11  and  C_12
REMARK    5  A    between atoms: C_15  and  N_16
REMARK    6  A    between atoms: N_16  and  C_17
REMARK    7  A    between atoms: C_17  and  C_18
REMARK    8  A    between atoms: C_18  and  C_19
REMARK                            x       y       z     vdW  Elec       q    Type
REMARK                         _______ _______ _______ _____ _____    ______ ____
ROOT
ATOM      1  C   UNL     1      47.825   3.773  16.692  0.00  0.00    +0.000 C 
ENDROOT
BRANCH   1   2
ATOM      2  C   UNL     1      48.025   4.424  18.034  0.00  0.00    +0.000 A 
ATOM      3  C   UNL     1      47.080   5.332  18.514  0.00  0.00    +0.000 A 
ATOM      4  C   UNL     1      47.273   5.990  19.736  0.00  0.00    +0.000 A 
ATOM      5  C   UNL     1      48.401   5.748  20.527  0.00  0.00    +0.000 A 
ATOM      6  C   UNL     1      49.361   4.859  20.023  0.00  0.00    +0.000 A 
ATOM      7  C   UNL     1      49.171   4.190  18.803  0.00  0.00    +0.000 A 
BRANCH   5   8
ATOM      8  N   UNL     1      48.671   6.457  21.713  0.00  0.00    +0.000 N 
ATOM      9  H   UNL     1      48.105   6.115  22.484  0.00  0.00    +0.000 HD
BRANCH   8  10
ATOM     10  C   UNL     1      48.694   7.923  21.626  0.00  0.00    +0.000 C 
BRANCH  10  11
ATOM     11  C   UNL     1      49.830   8.414  20.718  0.00  0.00    +0.000 C 
BRANCH  11  12
ATOM     12  C   UNL     1      49.297   8.856  19.375  0.00  0.00    +0.000 A 
ATOM     13  C   UNL     1      48.241   9.766  19.280  0.00  0.00    +0.000 A 
ATOM     14  C   UNL     1      47.756  10.095  18.021  0.00  0.00    +0.000 A 
ATOM     15  N   UNL     1      48.241   9.582  16.870  0.00  0.00    +0.000 NA
ATOM     16  C   UNL     1      49.262   8.707  16.982  0.00  0.00    +0.000 A 
ATOM     17  C   UNL     1      49.816   8.318  18.192  0.00  0.00    +0.000 A 
ENDBRANCH  11  12
ENDBRANCH  10  11
ENDBRANCH   8  10
ENDBRANCH   5   8
ENDBRANCH   1   2
BRANCH   1  20
ATOM     18  C   UNL     1      46.978   4.269  14.456  0.00  0.00    +0.000 C 
ATOM     19  O   UNL     1      47.346   3.167  14.059  0.00  0.00    +0.000 OA
ATOM     20  N   UNL     1      47.178   4.675  15.761  0.00  0.00    +0.000 N 
ATOM     21  H   UNL     1      46.585   5.402  16.129  0.00  0.00    +0.000 HD
BRANCH  18  27
ATOM     22  C   UNL     1      43.388   6.270  11.488  0.00  0.00    +0.000 A 
ATOM     23  N   UNL     1      42.650   5.155  11.321  0.00  0.00    +0.000 NA
ATOM     24  C   UNL     1      43.044   4.008  11.898  0.00  0.00    +0.000 A 
ATOM     25  C   UNL     1      44.189   3.873  12.668  0.00  0.00    +0.000 A 
ATOM     26  C   UNL     1      45.021   5.004  12.833  0.00  0.00    +0.000 A 
ATOM     27  C   UNL     1      46.252   5.202  13.587  0.00  0.00    +0.000 A 
ATOM     28  C   UNL     1      46.698   6.505  13.471  0.00  0.00    +0.000 A 
ATOM     29  S   UNL     1      45.701   7.480  12.508  0.00  0.00    +0.000 S 
ATOM     30  C   UNL     1      44.592   6.193  12.221  0.00  0.00    +0.000 A 
BRANCH  22  31
ATOM     31  N   UNL     1      42.895   7.440  10.936  0.00  0.00    +0.000 N 
ATOM     32  H   UNL     1      43.162   8.266  11.455  0.00  0.00    +0.000 HD
ATOM     33  H   UNL     1      41.973   7.402  10.524  0.00  0.00    +0.000 HD
ENDBRANCH  22  31
ENDBRANCH  18  27
ENDBRANCH   1  20
TORSDOF 8
ENDMDL
