MODEL 1
REMARK VINA RESULT:    -8.783      0.000      0.000
REMARK INTER + INTRA:         -12.402
REMARK INTER:                 -11.864
REMARK INTRA:                  -0.538
REMARK UNBOUND:                -0.538
REMARK  Name = 
REMARK  7 active torsions:
REMARK  status: ('A' for Active; 'I' for Inactive)
REMARK    1  A    between atoms: C_1  and  O_2
REMARK    2  A    between atoms: O_2  and  C_3
REMARK    3  A    between atoms: C_6  and  C_7
REMARK    4  A    between atoms: C_7  and  C_8
REMARK    5  A    between atoms: C_8  and  N_9
REMARK    6  A    between atoms: C_13  and  C_14
REMARK    7  A    between atoms: C_20  and  C_21
REMARK                            x       y       z     vdW  Elec       q    Type
REMARK                         _______ _______ _______ _____ _____    ______ ____
ROOT
ATOM      1  C   UNL     1      43.220   5.068  12.349  0.00  0.00    +0.000 C 
ENDROOT
BRANCH   1   5
ATOM      2  C   UNL     1      47.296   5.861  13.586  0.00  0.00    +0.000 A 
ATOM      3  C   UNL     1      46.699   4.621  13.847  0.00  0.00    +0.000 A 
ATOM      4  C   UNL     1      45.386   4.361  13.449  0.00  0.00    +0.000 A 
ATOM      5  C   UNL     1      44.629   5.351  12.820  0.00  0.00    +0.000 A 
ATOM      6  C   UNL     1      45.227   6.597  12.571  0.00  0.00    +0.000 A 
ATOM      7  C   UNL     1      46.571   6.876  12.913  0.00  0.00    +0.000 A 
BRANCH   7   8
ATOM      8  C   UNL     1      47.193   8.156  12.464  0.00  0.00    +0.000 A 
ATOM      9  C   UNL     1      48.495   8.226  11.940  0.00  0.00    +0.000 A 
ATOM     10  C   UNL     1      49.003   9.405  11.382  0.00  0.00    +0.000 A 
ATOM     11  C   UNL     1      48.233  10.563  11.380  0.00  0.00    +0.000 A 
ATOM     12  C   UNL     1      46.965  10.546  11.950  0.00  0.00    +0.000 A 
ATOM     13  C   UNL     1      46.452   9.356  12.478  0.00  0.00    +0.000 A 
ENDBRANCH   7   8
BRANCH   2  15
ATOM     14  C   UNL     1      48.758   6.561  15.349  0.00  0.00    +0.000 C 
ATOM     15  O   UNL     1      48.570   6.165  14.000  0.00  0.00    +0.000 OA
ENDBRANCH   2  15
ENDBRANCH   1   5
BRANCH   1  16
ATOM     16  C   UNL     1      43.228   4.291  11.028  0.00  0.00    +0.000 C 
BRANCH  16  17
ATOM     17  N   UNL     1      44.017   4.985  10.001  0.00  0.00    +0.000 N 
ATOM     18  C   UNL     1      44.845   4.105   9.275  0.00  0.00    +0.000 A 
ATOM     19  C   UNL     1      45.653   4.612   8.262  0.00  0.00    +0.000 A 
ATOM     20  C   UNL     1      46.452   3.739   7.516  0.00  0.00    +0.000 A 
ATOM     21  C   UNL     1      46.433   2.375   7.792  0.00  0.00    +0.000 A 
ATOM     22  C   UNL     1      45.602   1.955   8.816  0.00  0.00    +0.000 A 
ATOM     23  N   UNL     1      44.817   2.784   9.546  0.00  0.00    +0.000 NA
ATOM     24  H   UNL     1      44.595   5.726  10.388  0.00  0.00    +0.000 HD
BRANCH  21  25
ATOM     25  C   UNL     1      47.277   1.445   7.003  0.00  0.00    +0.000 C 
ATOM     26  N   UNL     1      48.362   1.934   6.332  0.00  0.00    +0.000 N 
ATOM     27  O   UNL     1      47.011   0.247   6.948  0.00  0.00    +0.000 OA
ATOM     28  H   UNL     1      48.670   2.893   6.315  0.00  0.00    +0.000 HD
ATOM     29  H   UNL     1      48.913   1.262   5.810  0.00  0.00    +0.000 HD
ENDBRANCH  21  25
ENDBRANCH  16  17
ENDBRANCH   1  16
TORSDOF 6
ENDMDL
MODEL 2
REMARK VINA RESULT:    -8.693      1.624      3.750
REMARK INTER + INTRA:         -12.280
REMARK INTER:                 -11.522
REMARK INTRA:                  -0.757
REMARK UNBOUND:                -0.538
REMARK  Name = 
REMARK  7 active torsions:
REMARK  status: ('A' for Active; 'I' for Inactive)
REMARK    1  A    between atoms: C_1  and  O_2
REMARK    2  A    between atoms: O_2  and  C_3
REMARK    3  A    between atoms: C_6  and  C_7
REMARK    4  A    between atoms: C_7  and  C_8
REMARK    5  A    between atoms: C_8  and  N_9
REMARK    6  A    between atoms: C_13  and  C_14
REMARK    7  A    between atoms: C_20  and  C_21
REMARK                            x       y       z     vdW  Elec       q    Type
REMARK                         _______ _______ _______ _____ _____    ______ ____
ROOT
ATOM      1  C   UNL     1      43.604   5.494  12.182  0.00  0.00    +0.000 C 
ENDROOT
BRANCH   1   5
ATOM      2  C   UNL     1      47.799   6.239  12.973  0.00  0.00    +0.000 A 
ATOM      3  C   UNL     1      47.177   6.787  11.843  0.00  0.00    +0.000 A 
ATOM      4  C   UNL     1      45.825   6.551  11.586  0.00  0.00    +0.000 A 
ATOM      5  C   UNL     1      45.079   5.726  12.429  0.00  0.00    +0.000 A 
ATOM      6  C   UNL     1      45.708   5.168  13.553  0.00  0.00    +0.000 A 
ATOM      7  C   UNL     1      47.062   5.429  13.873  0.00  0.00    +0.000 A 
BRANCH   7   8
ATOM      8  C   UNL     1      47.617   4.947  15.172  0.00  0.00    +0.000 A 
ATOM      9  C   UNL     1      48.396   5.759  16.014  0.00  0.00    +0.000 A 
ATOM     10  C   UNL     1      48.775   5.341  17.295  0.00  0.00    +0.000 A 
ATOM     11  C   UNL     1      48.425   4.073  17.747  0.00  0.00    +0.000 A 
ATOM     12  C   UNL     1      47.712   3.220  16.914  0.00  0.00    +0.000 A 
ATOM     13  C   UNL     1      47.309   3.655  15.647  0.00  0.00    +0.000 A 
ENDBRANCH   7   8
BRANCH   2  15
ATOM     14  C   UNL     1      49.742   7.630  12.820  0.00  0.00    +0.000 C 
ATOM     15  O   UNL     1      49.135   6.416  13.234  0.00  0.00    +0.000 OA
ENDBRANCH   2  15
ENDBRANCH   1   5
BRANCH   1  16
ATOM     16  C   UNL     1      43.358   4.993  10.755  0.00  0.00    +0.000 C 
BRANCH  16  17
ATOM     17  N   UNL     1      43.647   3.558  10.632  0.00  0.00    +0.000 N 
ATOM     18  C   UNL     1      44.565   3.283   9.598  0.00  0.00    +0.000 A 
ATOM     19  C   UNL     1      44.944   1.965   9.359  0.00  0.00    +0.000 A 
ATOM     20  C   UNL     1      45.879   1.689   8.355  0.00  0.00    +0.000 A 
ATOM     21  C   UNL     1      46.420   2.730   7.607  0.00  0.00    +0.000 A 
ATOM     22  C   UNL     1      45.989   4.009   7.910  0.00  0.00    +0.000 A 
ATOM     23  N   UNL     1      45.088   4.297   8.881  0.00  0.00    +0.000 NA
ATOM     24  H   UNL     1      42.810   3.003  10.477  0.00  0.00    +0.000 HD
BRANCH  21  25
ATOM     25  C   UNL     1      47.413   2.442   6.543  0.00  0.00    +0.000 C 
ATOM     26  N   UNL     1      47.454   3.241   5.435  0.00  0.00    +0.000 N 
ATOM     27  O   UNL     1      48.192   1.499   6.648  0.00  0.00    +0.000 OA
ATOM     28  H   UNL     1      46.867   4.039   5.252  0.00  0.00    +0.000 HD
ATOM     29  H   UNL     1      48.151   3.010   4.736  0.00  0.00    +0.000 HD
ENDBRANCH  21  25
ENDBRANCH  16  17
ENDBRANCH   1  16
TORSDOF 6
ENDMDL
MODEL 3
REMARK VINA RESULT:    -7.584      3.306      7.383
REMARK INTER + INTRA:         -10.782
REMARK INTER:                 -10.512
REMARK INTRA:                  -0.270
REMARK UNBOUND:                -0.538
REMARK  Name = 
REMARK  7 active torsions:
REMARK  status: ('A' for Active; 'I' for Inactive)
REMARK    1  A    between atoms: C_1  and  O_2
REMARK    2  A    between atoms: O_2  and  C_3
REMARK    3  A    between atoms: C_6  and  C_7
REMARK    4  A    between atoms: C_7  and  C_8
REMARK    5  A    between atoms: C_8  and  N_9
REMARK    6  A    between atoms: C_13  and  C_14
REMARK    7  A    between atoms: C_20  and  C_21
REMARK                            x       y       z     vdW  Elec       q    Type
REMARK                         _______ _______ _______ _____ _____    ______ ____
ROOT
ATOM      1  C   UNL     1      46.824   7.784  12.186  0.00  0.00    +0.000 C 
ENDROOT
BRANCH   1   5
ATOM      2  C   UNL     1      43.990   4.661  11.190  0.00  0.00    +0.000 A 
ATOM      3  C   UNL     1      43.707   5.586  12.204  0.00  0.00    +0.000 A 
ATOM      4  C   UNL     1      44.616   6.595  12.527  0.00  0.00    +0.000 A 
ATOM      5  C   UNL     1      45.847   6.673  11.873  0.00  0.00    +0.000 A 
ATOM      6  C   UNL     1      46.133   5.737  10.866  0.00  0.00    +0.000 A 
ATOM      7  C   UNL     1      45.213   4.735  10.477  0.00  0.00    +0.000 A 
BRANCH   7   8
ATOM      8  C   UNL     1      45.510   3.886   9.285  0.00  0.00    +0.000 A 
ATOM      9  C   UNL     1      45.867   4.426   8.038  0.00  0.00    +0.000 A 
ATOM     10  C   UNL     1      46.292   3.615   6.979  0.00  0.00    +0.000 A 
ATOM     11  C   UNL     1      46.320   2.232   7.128  0.00  0.00    +0.000 A 
ATOM     12  C   UNL     1      45.910   1.662   8.327  0.00  0.00    +0.000 A 
ATOM     13  C   UNL     1      45.517   2.480   9.392  0.00  0.00    +0.000 A 
ENDBRANCH   7   8
BRANCH   2  15
ATOM     14  C   UNL     1      43.149   2.478  11.700  0.00  0.00    +0.000 C 
ATOM     15  O   UNL     1      43.137   3.632  10.876  0.00  0.00    +0.000 OA
ENDBRANCH   2  15
ENDBRANCH   1   5
BRANCH   1  16
ATOM     16  C   UNL     1      48.242   7.234  12.371  0.00  0.00    +0.000 C 
BRANCH  16  17
ATOM     17  N   UNL     1      48.775   7.557  13.701  0.00  0.00    +0.000 N 
ATOM     18  C   UNL     1      48.429   6.590  14.667  0.00  0.00    +0.000 A 
ATOM     19  C   UNL     1      48.865   6.755  15.978  0.00  0.00    +0.000 A 
ATOM     20  C   UNL     1      48.553   5.782  16.935  0.00  0.00    +0.000 A 
ATOM     21  C   UNL     1      47.811   4.662  16.568  0.00  0.00    +0.000 A 
ATOM     22  C   UNL     1      47.418   4.578  15.244  0.00  0.00    +0.000 A 
ATOM     23  N   UNL     1      47.715   5.507  14.303  0.00  0.00    +0.000 NA
ATOM     24  H   UNL     1      48.469   8.468  14.032  0.00  0.00    +0.000 HD
BRANCH  21  25
ATOM     25  C   UNL     1      47.479   3.628  17.578  0.00  0.00    +0.000 C 
ATOM     26  N   UNL     1      48.150   3.617  18.768  0.00  0.00    +0.000 N 
ATOM     27  O   UNL     1      46.613   2.786  17.354  0.00  0.00    +0.000 OA
ATOM     28  H   UNL     1      48.870   4.261  19.053  0.00  0.00    +0.000 HD
ATOM     29  H   UNL     1      47.886   2.895  19.429  0.00  0.00    +0.000 HD
ENDBRANCH  21  25
ENDBRANCH  16  17
ENDBRANCH   1  16
TORSDOF 6
ENDMDL
MODEL 4
REMARK VINA RESULT:    -7.502      2.804      3.727
REMARK INTER + INTRA:         -10.671
REMARK INTER:                  -9.843
REMARK INTRA:                  -0.828
REMARK UNBOUND:                -0.538
REMARK  Name = 
REMARK  7 active torsions:
REMARK  status: ('A' for Active; 'I' for Inactive)
REMARK    1  A    between atoms: C_1  and  O_2
REMARK    2  A    between atoms: O_2  and  C_3
REMARK    3  A    between atoms: C_6  and  C_7
REMARK    4  A    between atoms: C_7  and  C_8
REMARK    5  A    between atoms: C_8  and  N_9
REMARK    6  A    between atoms: C_13  and  C_14
REMARK    7  A    between atoms: C_20  and  C_21
REMARK                            x       y       z     vdW  Elec       q    Type
REMARK                         _______ _______ _______ _____ _____    ______ ____
ROOT
ATOM      1  C   UNL     1      44.179   5.426  12.114  0.00  0.00    +0.000 C 
ENDROOT
BRANCH   1   5
ATOM      2  C   UNL     1      45.744   9.460  11.872  0.00  0.00    +0.000 A 
ATOM      3  C   UNL     1      46.510   8.429  12.432  0.00  0.00    +0.000 A 
ATOM      4  C   UNL     1      46.010   7.127  12.511  0.00  0.00    +0.000 A 
ATOM      5  C   UNL     1      44.717   6.840  12.071  0.00  0.00    +0.000 A 
ATOM      6  C   UNL     1      43.948   7.877  11.521  0.00  0.00    +0.000 A 
ATOM      7  C   UNL     1      44.442   9.195  11.378  0.00  0.00    +0.000 A 
BRANCH   7   8
ATOM      8  C   UNL     1      43.638  10.205  10.628  0.00  0.00    +0.000 A 
ATOM      9  C   UNL     1      43.779  10.415   9.246  0.00  0.00    +0.000 A 
ATOM     10  C   UNL     1      42.911  11.253   8.536  0.00  0.00    +0.000 A 
ATOM     11  C   UNL     1      41.906  11.944   9.205  0.00  0.00    +0.000 A 
ATOM     12  C   UNL     1      41.780  11.810  10.583  0.00  0.00    +0.000 A 
ATOM     13  C   UNL     1      42.632  10.947  11.282  0.00  0.00    +0.000 A 
ENDBRANCH   7   8
BRANCH   2  15
ATOM     14  C   UNL     1      47.559  11.007  12.079  0.00  0.00    +0.000 C 
ATOM     15  O   UNL     1      46.188  10.758  11.817  0.00  0.00    +0.000 OA
ENDBRANCH   2  15
ENDBRANCH   1   5
BRANCH   1  16
ATOM     16  C   UNL     1      43.641   5.001  10.743  0.00  0.00    +0.000 C 
BRANCH  16  17
ATOM     17  N   UNL     1      43.814   3.559  10.522  0.00  0.00    +0.000 N 
ATOM     18  C   UNL     1      44.728   3.282   9.484  0.00  0.00    +0.000 A 
ATOM     19  C   UNL     1      45.003   1.957   9.158  0.00  0.00    +0.000 A 
ATOM     20  C   UNL     1      45.933   1.676   8.151  0.00  0.00    +0.000 A 
ATOM     21  C   UNL     1      46.573   2.718   7.487  0.00  0.00    +0.000 A 
ATOM     22  C   UNL     1      46.242   4.005   7.875  0.00  0.00    +0.000 A 
ATOM     23  N   UNL     1      45.348   4.297   8.850  0.00  0.00    +0.000 NA
ATOM     24  H   UNL     1      42.938   3.089  10.315  0.00  0.00    +0.000 HD
BRANCH  21  25
ATOM     25  C   UNL     1      47.561   2.424   6.420  0.00  0.00    +0.000 C 
ATOM     26  N   UNL     1      47.458   3.068   5.220  0.00  0.00    +0.000 N 
ATOM     27  O   UNL     1      48.465   1.613   6.606  0.00  0.00    +0.000 OA
ATOM     28  H   UNL     1      46.762   3.750   4.966  0.00  0.00    +0.000 HD
ATOM     29  H   UNL     1      48.157   2.840   4.522  0.00  0.00    +0.000 HD
ENDBRANCH  21  25
ENDBRANCH  16  17
ENDBRANCH   1  16
TORSDOF 6
ENDMDL
MODEL 5
REMARK VINA RESULT:    -7.267      1.809      3.071
REMARK INTER + INTRA:         -10.354
REMARK INTER:                  -9.532
REMARK INTRA:                  -0.822
REMARK UNBOUND:                -0.538
REMARK  Name = 
REMARK  7 active torsions:
REMARK  status: ('A' for Active; 'I' for Inactive)
REMARK    1  A    between atoms: C_1  and  O_2
REMARK    2  A    between atoms: O_2  and  C_3
REMARK    3  A    between atoms: C_6  and  C_7
REMARK    4  A    between atoms: C_7  and  C_8
REMARK    5  A    between atoms: C_8  and  N_9
REMARK    6  A    between atoms: C_13  and  C_14
REMARK    7  A    between atoms: C_20  and  C_21
REMARK                            x       y       z     vdW  Elec       q    Type
REMARK                         _______ _______ _______ _____ _____    ______ ____
ROOT
ATOM      1  C   UNL     1      44.402   5.858  12.248  0.00  0.00    +0.000 C 
ENDROOT
BRANCH   1   5
ATOM      2  C   UNL     1      46.631   9.562  11.949  0.00  0.00    +0.000 A 
ATOM      3  C   UNL     1      45.237   9.554  11.810  0.00  0.00    +0.000 A 
ATOM      4  C   UNL     1      44.515   8.363  11.907  0.00  0.00    +0.000 A 
ATOM      5  C   UNL     1      45.176   7.150  12.102  0.00  0.00    +0.000 A 
ATOM      6  C   UNL     1      46.575   7.159  12.230  0.00  0.00    +0.000 A 
ATOM      7  C   UNL     1      47.332   8.354  12.190  0.00  0.00    +0.000 A 
BRANCH   7   8
ATOM      8  C   UNL     1      48.791   8.310  12.505  0.00  0.00    +0.000 A 
ATOM      9  C   UNL     1      49.779   8.176  11.515  0.00  0.00    +0.000 A 
ATOM     10  C   UNL     1      51.141   8.294  11.814  0.00  0.00    +0.000 A 
ATOM     11  C   UNL     1      51.552   8.499  13.127  0.00  0.00    +0.000 A 
ATOM     12  C   UNL     1      50.603   8.570  14.140  0.00  0.00    +0.000 A 
ATOM     13  C   UNL     1      49.242   8.483  13.830  0.00  0.00    +0.000 A 
ENDBRANCH   7   8
BRANCH   2  15
ATOM     14  C   UNL     1      46.696  11.953  11.835  0.00  0.00    +0.000 C 
ATOM     15  O   UNL     1      47.376  10.708  11.819  0.00  0.00    +0.000 OA
ENDBRANCH   2  15
ENDBRANCH   1   5
BRANCH   1  16
ATOM     16  C   UNL     1      43.830   5.405  10.900  0.00  0.00    +0.000 C 
BRANCH  16  17
ATOM     17  N   UNL     1      43.914   3.946  10.744  0.00  0.00    +0.000 N 
ATOM     18  C   UNL     1      44.738   3.569   9.664  0.00  0.00    +0.000 A 
ATOM     19  C   UNL     1      44.921   2.217   9.390  0.00  0.00    +0.000 A 
ATOM     20  C   UNL     1      45.764   1.836   8.340  0.00  0.00    +0.000 A 
ATOM     21  C   UNL     1      46.409   2.807   7.581  0.00  0.00    +0.000 A 
ATOM     22  C   UNL     1      46.171   4.128   7.921  0.00  0.00    +0.000 A 
ATOM     23  N   UNL     1      45.363   4.517   8.937  0.00  0.00    +0.000 NA
ATOM     24  H   UNL     1      43.003   3.515  10.621  0.00  0.00    +0.000 HD
BRANCH  21  25
ATOM     25  C   UNL     1      47.304   2.408   6.468  0.00  0.00    +0.000 C 
ATOM     26  N   UNL     1      47.255   3.100   5.291  0.00  0.00    +0.000 N 
ATOM     27  O   UNL     1      48.084   1.467   6.594  0.00  0.00    +0.000 OA
ATOM     28  H   UNL     1      46.659   3.885   5.085  0.00  0.00    +0.000 HD
ATOM     29  H   UNL     1      47.888   2.795   4.559  0.00  0.00    +0.000 HD
ENDBRANCH  21  25
ENDBRANCH  16  17
ENDBRANCH   1  16
TORSDOF 6
ENDMDL
MODEL 6
REMARK VINA RESULT:    -7.029      1.758      2.068
REMARK INTER + INTRA:         -10.032
REMARK INTER:                 -10.757
REMARK INTRA:                   0.725
REMARK UNBOUND:                -0.538
REMARK  Name = 
REMARK  7 active torsions:
REMARK  status: ('A' for Active; 'I' for Inactive)
REMARK    1  A    between atoms: C_1  and  O_2
REMARK    2  A    between atoms: O_2  and  C_3
REMARK    3  A    between atoms: C_6  and  C_7
REMARK    4  A    between atoms: C_7  and  C_8
REMARK    5  A    between atoms: C_8  and  N_9
REMARK    6  A    between atoms: C_13  and  C_14
REMARK    7  A    between atoms: C_20  and  C_21
REMARK                            x       y       z     vdW  Elec       q    Type
REMARK                         _______ _______ _______ _____ _____    ______ ____
ROOT
ATOM      1  C   UNL     1      44.942   5.706  10.496  0.00  0.00    +0.000 C 
ENDROOT
BRANCH   1   5
ATOM      2  C   UNL     1      47.139   5.204  14.197  0.00  0.00    +0.000 A 
ATOM      3  C   UNL     1      46.279   4.199  13.735  0.00  0.00    +0.000 A 
ATOM      4  C   UNL     1      45.570   4.356  12.542  0.00  0.00    +0.000 A 
ATOM      5  C   UNL     1      45.673   5.539  11.809  0.00  0.00    +0.000 A 
ATOM      6  C   UNL     1      46.527   6.549  12.281  0.00  0.00    +0.000 A 
ATOM      7  C   UNL     1      47.300   6.403  13.457  0.00  0.00    +0.000 A 
BRANCH   7   8
ATOM      8  C   UNL     1      48.314   7.441  13.805  0.00  0.00    +0.000 A 
ATOM      9  C   UNL     1      49.656   7.360  13.399  0.00  0.00    +0.000 A 
ATOM     10  C   UNL     1      50.553   8.415  13.601  0.00  0.00    +0.000 A 
ATOM     11  C   UNL     1      50.138   9.565  14.265  0.00  0.00    +0.000 A 
ATOM     12  C   UNL     1      48.834   9.651  14.739  0.00  0.00    +0.000 A 
ATOM     13  C   UNL     1      47.935   8.605  14.506  0.00  0.00    +0.000 A 
ENDBRANCH   7   8
BRANCH   2  15
ATOM     14  C   UNL     1      47.423   4.087  16.295  0.00  0.00    +0.000 C 
ATOM     15  O   UNL     1      47.818   5.100  15.385  0.00  0.00    +0.000 OA
ENDBRANCH   2  15
ENDBRANCH   1   5
BRANCH   1  16
ATOM     16  C   UNL     1      43.698   4.811  10.443  0.00  0.00    +0.000 C 
BRANCH  16  17
ATOM     17  N   UNL     1      44.062   3.391  10.350  0.00  0.00    +0.000 N 
ATOM     18  C   UNL     1      44.934   3.129   9.273  0.00  0.00    +0.000 A 
ATOM     19  C   UNL     1      45.374   1.827   9.057  0.00  0.00    +0.000 A 
ATOM     20  C   UNL     1      46.264   1.566   8.010  0.00  0.00    +0.000 A 
ATOM     21  C   UNL     1      46.702   2.607   7.197  0.00  0.00    +0.000 A 
ATOM     22  C   UNL     1      46.216   3.871   7.482  0.00  0.00    +0.000 A 
ATOM     23  N   UNL     1      45.357   4.144   8.494  0.00  0.00    +0.000 NA
ATOM     24  H   UNL     1      43.251   2.786  10.263  0.00  0.00    +0.000 HD
BRANCH  21  25
ATOM     25  C   UNL     1      47.648   2.337   6.087  0.00  0.00    +0.000 C 
ATOM     26  N   UNL     1      47.669   3.176   5.009  0.00  0.00    +0.000 N 
ATOM     27  O   UNL     1      48.405   1.371   6.127  0.00  0.00    +0.000 OA
ATOM     28  H   UNL     1      47.097   3.994   4.878  0.00  0.00    +0.000 HD
ATOM     29  H   UNL     1      48.335   2.955   4.276  0.00  0.00    +0.000 HD
ENDBRANCH  21  25
ENDBRANCH  16  17
ENDBRANCH   1  16
TORSDOF 6
ENDMDL
MODEL 7
REMARK VINA RESULT:    -6.860      3.996      7.559
REMARK INTER + INTRA:          -9.804
REMARK INTER:                  -8.711
REMARK INTRA:                  -1.093
REMARK UNBOUND:                -0.538
REMARK  Name = 
REMARK  7 active torsions:
REMARK  status: ('A' for Active; 'I' for Inactive)
REMARK    1  A    between atoms: C_1  and  O_2
REMARK    2  A    between atoms: O_2  and  C_3
REMARK    3  A    between atoms: C_6  and  C_7
REMARK    4  A    between atoms: C_7  and  C_8
REMARK    5  A    between atoms: C_8  and  N_9
REMARK    6  A    between atoms: C_13  and  C_14
REMARK    7  A    between atoms: C_20  and  C_21
REMARK                            x       y       z     vdW  Elec       q    Type
REMARK                         _______ _______ _______ _____ _____    ______ ____
ROOT
ATOM      1  C   UNL     1      48.554   9.000  12.779  0.00  0.00    +0.000 C 
ENDROOT
BRANCH   1   5
ATOM      2  C   UNL     1      44.465   8.757  11.364  0.00  0.00    +0.000 A 
ATOM      3  C   UNL     1      45.158   9.975  11.341  0.00  0.00    +0.000 A 
ATOM      4  C   UNL     1      46.476  10.057  11.794  0.00  0.00    +0.000 A 
ATOM      5  C   UNL     1      47.113   8.933  12.321  0.00  0.00    +0.000 A 
ATOM      6  C   UNL     1      46.412   7.717  12.354  0.00  0.00    +0.000 A 
ATOM      7  C   UNL     1      45.095   7.586  11.854  0.00  0.00    +0.000 A 
BRANCH   7   8
ATOM      8  C   UNL     1      44.475   6.231  11.761  0.00  0.00    +0.000 A 
ATOM      9  C   UNL     1      44.645   5.393  10.646  0.00  0.00    +0.000 A 
ATOM     10  C   UNL     1      44.187   4.070  10.643  0.00  0.00    +0.000 A 
ATOM     11  C   UNL     1      43.498   3.568  11.742  0.00  0.00    +0.000 A 
ATOM     12  C   UNL     1      43.255   4.392  12.834  0.00  0.00    +0.000 A 
ATOM     13  C   UNL     1      43.743   5.703  12.844  0.00  0.00    +0.000 A 
ENDBRANCH   7   8
BRANCH   2  15
ATOM     14  C   UNL     1      42.485   9.828  10.546  0.00  0.00    +0.000 C 
ATOM     15  O   UNL     1      43.156   8.650  10.965  0.00  0.00    +0.000 OA
ENDBRANCH   2  15
ENDBRANCH   1   5
BRANCH   1  16
ATOM     16  C   UNL     1      49.062   7.616  13.195  0.00  0.00    +0.000 C 
BRANCH  16  17
ATOM     17  N   UNL     1      49.623   7.636  14.553  0.00  0.00    +0.000 N 
ATOM     18  C   UNL     1      49.087   6.619  15.370  0.00  0.00    +0.000 A 
ATOM     19  C   UNL     1      49.524   6.504  16.686  0.00  0.00    +0.000 A 
ATOM     20  C   UNL     1      49.020   5.477  17.492  0.00  0.00    +0.000 A 
ATOM     21  C   UNL     1      48.091   4.581  16.972  0.00  0.00    +0.000 A 
ATOM     22  C   UNL     1      47.711   4.767  15.654  0.00  0.00    +0.000 A 
ATOM     23  N   UNL     1      48.191   5.752  14.857  0.00  0.00    +0.000 NA
ATOM     24  H   UNL     1      49.486   8.528  15.018  0.00  0.00    +0.000 HD
BRANCH  21  25
ATOM     25  C   UNL     1      47.555   3.490  17.821  0.00  0.00    +0.000 C 
ATOM     26  N   UNL     1      48.188   3.184  18.993  0.00  0.00    +0.000 N 
ATOM     27  O   UNL     1      46.555   2.862  17.482  0.00  0.00    +0.000 OA
ATOM     28  H   UNL     1      49.007   3.636  19.365  0.00  0.00    +0.000 HD
ATOM     29  H   UNL     1      47.784   2.434  19.544  0.00  0.00    +0.000 HD
ENDBRANCH  21  25
ENDBRANCH  16  17
ENDBRANCH   1  16
TORSDOF 6
ENDMDL
MODEL 8
REMARK VINA RESULT:    -6.843      4.448      6.624
REMARK INTER + INTRA:          -9.781
REMARK INTER:                  -9.002
REMARK INTRA:                  -0.779
REMARK UNBOUND:                -0.538
REMARK  Name = 
REMARK  7 active torsions:
REMARK  status: ('A' for Active; 'I' for Inactive)
REMARK    1  A    between atoms: C_1  and  O_2
REMARK    2  A    between atoms: O_2  and  C_3
REMARK    3  A    between atoms: C_6  and  C_7
REMARK    4  A    between atoms: C_7  and  C_8
REMARK    5  A    between atoms: C_8  and  N_9
REMARK    6  A    between atoms: C_13  and  C_14
REMARK    7  A    between atoms: C_20  and  C_21
REMARK                            x       y       z     vdW  Elec       q    Type
REMARK                         _______ _______ _______ _____ _____    ______ ____
ROOT
ATOM      1  C   UNL     1      47.181   3.887  17.311  0.00  0.00    +0.000 C 
ENDROOT
BRANCH   1   5
ATOM      2  C   UNL     1      49.621   6.981  19.115  0.00  0.00    +0.000 A 
ATOM      3  C   UNL     1      50.192   6.028  18.261  0.00  0.00    +0.000 A 
ATOM      4  C   UNL     1      49.409   5.030  17.676  0.00  0.00    +0.000 A 
ATOM      5  C   UNL     1      48.048   4.938  17.969  0.00  0.00    +0.000 A 
ATOM      6  C   UNL     1      47.480   5.887  18.834  0.00  0.00    +0.000 A 
ATOM      7  C   UNL     1      48.233   6.943  19.402  0.00  0.00    +0.000 A 
BRANCH   7   8
ATOM      8  C   UNL     1      47.533   8.014  20.171  0.00  0.00    +0.000 A 
ATOM      9  C   UNL     1      47.331   7.943  21.560  0.00  0.00    +0.000 A 
ATOM     10  C   UNL     1      46.814   9.023  22.285  0.00  0.00    +0.000 A 
ATOM     11  C   UNL     1      46.437  10.189  21.626  0.00  0.00    +0.000 A 
ATOM     12  C   UNL     1      46.563  10.267  20.244  0.00  0.00    +0.000 A 
ATOM     13  C   UNL     1      47.110   9.196  19.530  0.00  0.00    +0.000 A 
ENDBRANCH   7   8
BRANCH   2  15
ATOM     14  C   UNL     1      51.378   7.535  20.644  0.00  0.00    +0.000 C 
ATOM     15  O   UNL     1      50.367   7.949  19.739  0.00  0.00    +0.000 OA
ENDBRANCH   2  15
ENDBRANCH   1   5
BRANCH   1  16
ATOM     16  C   UNL     1      47.458   3.810  15.806  0.00  0.00    +0.000 C 
BRANCH  16  17
ATOM     17  N   UNL     1      47.000   5.021  15.113  0.00  0.00    +0.000 N 
ATOM     18  C   UNL     1      46.355   4.729  13.893  0.00  0.00    +0.000 A 
ATOM     19  C   UNL     1      45.859   5.775  13.120  0.00  0.00    +0.000 A 
ATOM     20  C   UNL     1      45.190   5.490  11.924  0.00  0.00    +0.000 A 
ATOM     21  C   UNL     1      45.027   4.169  11.519  0.00  0.00    +0.000 A 
ATOM     22  C   UNL     1      45.551   3.191  12.347  0.00  0.00    +0.000 A 
ATOM     23  N   UNL     1      46.197   3.447  13.510  0.00  0.00    +0.000 NA
ATOM     24  H   UNL     1      47.755   5.675  14.930  0.00  0.00    +0.000 HD
BRANCH  21  25
ATOM     25  C   UNL     1      44.317   3.861  10.254  0.00  0.00    +0.000 C 
ATOM     26  N   UNL     1      44.360   4.763   9.228  0.00  0.00    +0.000 N 
ATOM     27  O   UNL     1      43.694   2.811  10.121  0.00  0.00    +0.000 OA
ATOM     28  H   UNL     1      44.843   5.647   9.231  0.00  0.00    +0.000 HD
ATOM     29  H   UNL     1      43.865   4.509   8.381  0.00  0.00    +0.000 HD
ENDBRANCH  21  25
ENDBRANCH  16  17
ENDBRANCH   1  16
TORSDOF 6
ENDMDL
MODEL 9
REMARK VINA RESULT:    -6.668      3.564      6.364
REMARK INTER + INTRA:          -9.545
REMARK INTER:                  -8.516
REMARK INTRA:                  -1.028
REMARK UNBOUND:                -0.538
REMARK  Name = 
REMARK  7 active torsions:
REMARK  status: ('A' for Active; 'I' for Inactive)
REMARK    1  A    between atoms: C_1  and  O_2
REMARK    2  A    between atoms: O_2  and  C_3
REMARK    3  A    between atoms: C_6  and  C_7
REMARK    4  A    between atoms: C_7  and  C_8
REMARK    5  A    between atoms: C_8  and  N_9
REMARK    6  A    between atoms: C_13  and  C_14
REMARK    7  A    between atoms: C_20  and  C_21
REMARK                            x       y       z     vdW  Elec       q    Type
REMARK                         _______ _______ _______ _____ _____    ______ ____
ROOT
ATOM      1  C   UNL     1      48.361   9.058  14.334  0.00  0.00    +0.000 C 
ENDROOT
BRANCH   1   5
ATOM      2  C   UNL     1      48.537   7.241  18.264  0.00  0.00    +0.000 A 
ATOM      3  C   UNL     1      48.145   8.578  18.112  0.00  0.00    +0.000 A 
ATOM      4  C   UNL     1      48.085   9.167  16.847  0.00  0.00    +0.000 A 
ATOM      5  C   UNL     1      48.459   8.444  15.713  0.00  0.00    +0.000 A 
ATOM      6  C   UNL     1      48.863   7.108  15.870  0.00  0.00    +0.000 A 
ATOM      7  C   UNL     1      48.884   6.465  17.129  0.00  0.00    +0.000 A 
BRANCH   7   8
ATOM      8  C   UNL     1      49.156   4.999  17.202  0.00  0.00    +0.000 A 
ATOM      9  C   UNL     1      48.188   4.030  16.888  0.00  0.00    +0.000 A 
ATOM     10  C   UNL     1      48.506   2.669  16.812  0.00  0.00    +0.000 A 
ATOM     11  C   UNL     1      49.797   2.237  17.099  0.00  0.00    +0.000 A 
ATOM     12  C   UNL     1      50.762   3.163  17.477  0.00  0.00    +0.000 A 
ATOM     13  C   UNL     1      50.446   4.525  17.521  0.00  0.00    +0.000 A 
ENDBRANCH   7   8
BRANCH   2  15
ATOM     14  C   UNL     1      47.454   6.350  20.204  0.00  0.00    +0.000 C 
ATOM     15  O   UNL     1      48.647   6.644  19.495  0.00  0.00    +0.000 OA
ENDBRANCH   2  15
ENDBRANCH   1   5
BRANCH   1  16
ATOM     16  C   UNL     1      48.206   7.975  13.260  0.00  0.00    +0.000 C 
BRANCH  16  17
ATOM     17  N   UNL     1      47.004   8.195  12.445  0.00  0.00    +0.000 N 
ATOM     18  C   UNL     1      46.240   7.020  12.287  0.00  0.00    +0.000 A 
ATOM     19  C   UNL     1      45.066   7.069  11.542  0.00  0.00    +0.000 A 
ATOM     20  C   UNL     1      44.287   5.914  11.409  0.00  0.00    +0.000 A 
ATOM     21  C   UNL     1      44.691   4.731  12.021  0.00  0.00    +0.000 A 
ATOM     22  C   UNL     1      45.871   4.771  12.743  0.00  0.00    +0.000 A 
ATOM     23  N   UNL     1      46.636   5.880  12.887  0.00  0.00    +0.000 NA
ATOM     24  H   UNL     1      47.220   8.566  11.524  0.00  0.00    +0.000 HD
BRANCH  21  25
ATOM     25  C   UNL     1      43.868   3.505  11.885  0.00  0.00    +0.000 C 
ATOM     26  N   UNL     1      44.206   2.391  12.601  0.00  0.00    +0.000 N 
ATOM     27  O   UNL     1      42.893   3.482  11.138  0.00  0.00    +0.000 OA
ATOM     28  H   UNL     1      44.979   2.305  13.241  0.00  0.00    +0.000 HD
ATOM     29  H   UNL     1      43.613   1.578  12.480  0.00  0.00    +0.000 HD
ENDBRANCH  21  25
ENDBRANCH  16  17
ENDBRANCH   1  16
TORSDOF 6
ENDMDL
