MODEL 1
REMARK VINA RESULT:    -8.791      0.000      0.000
REMARK INTER + INTRA:         -12.061
REMARK INTER:                 -11.360
REMARK INTRA:                  -0.701
REMARK UNBOUND:                -0.701
REMARK  Name = 
REMARK  5 active torsions:
REMARK  status: ('A' for Active; 'I' for Inactive)
REMARK    1  A    between atoms: C_2  and  C_19
REMARK    2  A    between atoms: N_3  and  C_4
REMARK    3  A    between atoms: C_4  and  C_5
REMARK    4  A    between atoms: C_8  and  C_9
REMARK    5  A    between atoms: C_9  and  N_10
REMARK                            x       y       z     vdW  Elec       q    Type
REMARK                         _______ _______ _______ _____ _____    ______ ____
ROOT
ATOM      1  C   UNL     1      46.935   7.224  13.060  0.00  0.00    +0.000 C 
ENDROOT
BRANCH   1   2
ATOM      2  C   UNL     1      46.267   6.165  12.222  0.00  0.00    +0.000 A 
ATOM      3  C   UNL     1      46.079   6.369  10.850  0.00  0.00    +0.000 A 
ATOM      4  C   UNL     1      45.445   5.402  10.069  0.00  0.00    +0.000 A 
ATOM      5  C   UNL     1      44.963   4.221  10.650  0.00  0.00    +0.000 A 
ATOM      6  C   UNL     1      45.149   4.017  12.025  0.00  0.00    +0.000 A 
ATOM      7  C   UNL     1      45.785   4.986  12.805  0.00  0.00    +0.000 A 
BRANCH   5   8
ATOM      8  C   UNL     1      44.237   3.195   9.812  0.00  0.00    +0.000 C 
BRANCH   8   9
ATOM      9  N   UNL     1      45.107   2.057   9.541  0.00  0.00    +0.000 N 
ATOM     10  C   UNL     1      45.800   2.170   8.322  0.00  0.00    +0.000 A 
ATOM     11  C   UNL     1      46.671   1.146   7.955  0.00  0.00    +0.000 A 
ATOM     12  C   UNL     1      47.382   1.245   6.758  0.00  0.00    +0.000 A 
ATOM     13  C   UNL     1      47.210   2.364   5.957  0.00  0.00    +0.000 A 
ATOM     14  C   UNL     1      46.338   3.341   6.397  0.00  0.00    +0.000 A 
ATOM     15  N   UNL     1      45.642   3.265   7.552  0.00  0.00    +0.000 NA
ATOM     16  H   UNL     1      44.600   1.178   9.562  0.00  0.00    +0.000 HD
ENDBRANCH   8   9
ENDBRANCH   5   8
ENDBRANCH   1   2
BRANCH   1  19
ATOM     17  O   UNL     1      49.557   6.847  14.025  0.00  0.00    +0.000 OA
ATOM     18  C   UNL     1      48.608   6.610  14.766  0.00  0.00    +0.000 C 
ATOM     19  N   UNL     1      47.305   6.705  14.351  0.00  0.00    +0.000 N 
ATOM     20  H   UNL     1      46.566   6.687  15.044  0.00  0.00    +0.000 HD
BRANCH  18  21
ATOM     21  C   UNL     1      48.812   6.143  16.144  0.00  0.00    +0.000 A 
ATOM     22  C   UNL     1      49.455   6.962  17.062  0.00  0.00    +0.000 A 
ATOM     23  S   UNL     1      49.631   6.254  18.603  0.00  0.00    +0.000 S 
ATOM     24  C   UNL     1      48.809   4.846  18.112  0.00  0.00    +0.000 A 
ATOM     25  N   UNL     1      48.586   3.829  18.986  0.00  0.00    +0.000 NA
ATOM     26  C   UNL     1      47.911   2.844  18.491  0.00  0.00    +0.000 A 
ATOM     27  N   UNL     1      47.451   2.780  17.202  0.00  0.00    +0.000 N 
ATOM     28  C   UNL     1      47.724   3.748  16.267  0.00  0.00    +0.000 A 
ATOM     29  O   UNL     1      47.420   3.590  15.089  0.00  0.00    +0.000 OA
ATOM     30  C   UNL     1      48.433   4.904  16.782  0.00  0.00    +0.000 A 
ATOM     31  H   UNL     1      46.957   1.966  16.869  0.00  0.00    +0.000 HD
ENDBRANCH  18  21
ENDBRANCH   1  19
TORSDOF 5
ENDMDL
MODEL 2
REMARK VINA RESULT:    -8.289      1.804      2.528
REMARK INTER + INTRA:         -11.413
REMARK INTER:                 -10.749
REMARK INTRA:                  -0.664
REMARK UNBOUND:                -0.701
REMARK  Name = 
REMARK  5 active torsions:
REMARK  status: ('A' for Active; 'I' for Inactive)
REMARK    1  A    between atoms: C_2  and  C_19
REMARK    2  A    between atoms: N_3  and  C_4
REMARK    3  A    between atoms: C_4  and  C_5
REMARK    4  A    between atoms: C_8  and  C_9
REMARK    5  A    between atoms: C_9  and  N_10
REMARK                            x       y       z     vdW  Elec       q    Type
REMARK                         _______ _______ _______ _____ _____    ______ ____
ROOT
ATOM      1  C   UNL     1      47.715   6.710  13.679  0.00  0.00    +0.000 C 
ENDROOT
BRANCH   1   2
ATOM      2  C   UNL     1      46.782   5.953  12.771  0.00  0.00    +0.000 A 
ATOM      3  C   UNL     1      46.269   4.711  13.166  0.00  0.00    +0.000 A 
ATOM      4  C   UNL     1      45.418   3.994  12.325  0.00  0.00    +0.000 A 
ATOM      5  C   UNL     1      45.083   4.493  11.058  0.00  0.00    +0.000 A 
ATOM      6  C   UNL     1      45.598   5.735  10.661  0.00  0.00    +0.000 A 
ATOM      7  C   UNL     1      46.448   6.452  11.505  0.00  0.00    +0.000 A 
BRANCH   5   8
ATOM      8  C   UNL     1      44.197   3.695  10.130  0.00  0.00    +0.000 C 
BRANCH   8   9
ATOM      9  N   UNL     1      44.812   2.407   9.829  0.00  0.00    +0.000 N 
ATOM     10  C   UNL     1      45.568   2.422   8.642  0.00  0.00    +0.000 A 
ATOM     11  C   UNL     1      46.213   1.250   8.251  0.00  0.00    +0.000 A 
ATOM     12  C   UNL     1      46.982   1.245   7.087  0.00  0.00    +0.000 A 
ATOM     13  C   UNL     1      47.092   2.410   6.342  0.00  0.00    +0.000 A 
ATOM     14  C   UNL     1      46.434   3.533   6.803  0.00  0.00    +0.000 A 
ATOM     15  N   UNL     1      45.685   3.559   7.927  0.00  0.00    +0.000 NA
ATOM     16  H   UNL     1      44.127   1.661   9.785  0.00  0.00    +0.000 HD
ENDBRANCH   8   9
ENDBRANCH   5   8
ENDBRANCH   1   2
BRANCH   1  19
ATOM     17  O   UNL     1      49.899   6.553  15.454  0.00  0.00    +0.000 OA
ATOM     18  C   UNL     1      48.793   6.181  15.834  0.00  0.00    +0.000 C 
ATOM     19  N   UNL     1      47.697   6.164  15.012  0.00  0.00    +0.000 N 
ATOM     20  H   UNL     1      46.778   6.032  15.419  0.00  0.00    +0.000 HD
BRANCH  18  21
ATOM     21  C   UNL     1      48.585   5.664  17.194  0.00  0.00    +0.000 A 
ATOM     22  C   UNL     1      48.779   4.315  17.457  0.00  0.00    +0.000 A 
ATOM     23  S   UNL     1      48.468   3.883  19.077  0.00  0.00    +0.000 S 
ATOM     24  C   UNL     1      48.112   5.494  19.496  0.00  0.00    +0.000 A 
ATOM     25  N   UNL     1      47.790   5.826  20.775  0.00  0.00    +0.000 NA
ATOM     26  C   UNL     1      47.590   7.090  20.959  0.00  0.00    +0.000 A 
ATOM     27  N   UNL     1      47.671   8.046  19.981  0.00  0.00    +0.000 N 
ATOM     28  C   UNL     1      47.912   7.743  18.664  0.00  0.00    +0.000 A 
ATOM     29  O   UNL     1      47.836   8.605  17.794  0.00  0.00    +0.000 OA
ATOM     30  C   UNL     1      48.199   6.344  18.409  0.00  0.00    +0.000 A 
ATOM     31  H   UNL     1      47.470   9.013  20.187  0.00  0.00    +0.000 HD
ENDBRANCH  18  21
ENDBRANCH   1  19
TORSDOF 5
ENDMDL
MODEL 3
REMARK VINA RESULT:    -8.083      2.575      4.587
REMARK INTER + INTRA:         -11.147
REMARK INTER:                 -10.199
REMARK INTRA:                  -0.948
REMARK UNBOUND:                -0.701
REMARK  Name = 
REMARK  5 active torsions:
REMARK  status: ('A' for Active; 'I' for Inactive)
REMARK    1  A    between atoms: C_2  and  C_19
REMARK    2  A    between atoms: N_3  and  C_4
REMARK    3  A    between atoms: C_4  and  C_5
REMARK    4  A    between atoms: C_8  and  C_9
REMARK    5  A    between atoms: C_9  and  N_10
REMARK                            x       y       z     vdW  Elec       q    Type
REMARK                         _______ _______ _______ _____ _____    ______ ____
ROOT
ATOM      1  C   UNL     1      47.180   5.259  14.347  0.00  0.00    +0.000 C 
ENDROOT
BRANCH   1   2
ATOM      2  C   UNL     1      46.358   4.935  13.128  0.00  0.00    +0.000 A 
ATOM      3  C   UNL     1      45.811   3.656  12.968  0.00  0.00    +0.000 A 
ATOM      4  C   UNL     1      45.062   3.340  11.834  0.00  0.00    +0.000 A 
ATOM      5  C   UNL     1      44.866   4.292  10.823  0.00  0.00    +0.000 A 
ATOM      6  C   UNL     1      45.416   5.572  10.981  0.00  0.00    +0.000 A 
ATOM      7  C   UNL     1      46.163   5.886  12.117  0.00  0.00    +0.000 A 
BRANCH   5   8
ATOM      8  C   UNL     1      44.093   3.935   9.575  0.00  0.00    +0.000 C 
BRANCH   8   9
ATOM      9  N   UNL     1      44.843   4.326   8.387  0.00  0.00    +0.000 N 
ATOM     10  C   UNL     1      45.666   3.298   7.891  0.00  0.00    +0.000 A 
ATOM     11  C   UNL     1      46.428   3.549   6.752  0.00  0.00    +0.000 A 
ATOM     12  C   UNL     1      47.238   2.539   6.231  0.00  0.00    +0.000 A 
ATOM     13  C   UNL     1      47.267   1.302   6.858  0.00  0.00    +0.000 A 
ATOM     14  C   UNL     1      46.473   1.128   7.975  0.00  0.00    +0.000 A 
ATOM     15  N   UNL     1      45.681   2.092   8.494  0.00  0.00    +0.000 NA
ATOM     16  H   UNL     1      45.400   5.158   8.548  0.00  0.00    +0.000 HD
ENDBRANCH   8   9
ENDBRANCH   5   8
ENDBRANCH   1   2
BRANCH   1  19
ATOM     17  O   UNL     1      49.582   6.377  15.313  0.00  0.00    +0.000 OA
ATOM     18  C   UNL     1      48.736   7.115  14.818  0.00  0.00    +0.000 C 
ATOM     19  N   UNL     1      47.518   6.659  14.386  0.00  0.00    +0.000 N 
ATOM     20  H   UNL     1      46.939   7.265  13.817  0.00  0.00    +0.000 HD
BRANCH  18  21
ATOM     21  C   UNL     1      48.954   8.565  14.712  0.00  0.00    +0.000 A 
ATOM     22  C   UNL     1      49.109   9.325  15.863  0.00  0.00    +0.000 A 
ATOM     23  S   UNL     1      49.326  10.989  15.559  0.00  0.00    +0.000 S 
ATOM     24  C   UNL     1      49.271  10.745  13.875  0.00  0.00    +0.000 A 
ATOM     25  N   UNL     1      49.427  11.786  13.014  0.00  0.00    +0.000 NA
ATOM     26  C   UNL     1      49.409  11.449  11.767  0.00  0.00    +0.000 A 
ATOM     27  N   UNL     1      49.237  10.171  11.304  0.00  0.00    +0.000 N 
ATOM     28  C   UNL     1      48.995   9.105  12.135  0.00  0.00    +0.000 A 
ATOM     29  O   UNL     1      48.705   8.004  11.680  0.00  0.00    +0.000 OA
ATOM     30  C   UNL     1      49.059   9.417  13.550  0.00  0.00    +0.000 A 
ATOM     31  H   UNL     1      49.201   9.981  10.313  0.00  0.00    +0.000 HD
ENDBRANCH  18  21
ENDBRANCH   1  19
TORSDOF 5
ENDMDL
MODEL 4
REMARK VINA RESULT:    -7.962      3.331      5.407
REMARK INTER + INTRA:         -10.990
REMARK INTER:                 -10.576
REMARK INTRA:                  -0.414
REMARK UNBOUND:                -0.701
REMARK  Name = 
REMARK  5 active torsions:
REMARK  status: ('A' for Active; 'I' for Inactive)
REMARK    1  A    between atoms: C_2  and  C_19
REMARK    2  A    between atoms: N_3  and  C_4
REMARK    3  A    between atoms: C_4  and  C_5
REMARK    4  A    between atoms: C_8  and  C_9
REMARK    5  A    between atoms: C_9  and  N_10
REMARK                            x       y       z     vdW  Elec       q    Type
REMARK                         _______ _______ _______ _____ _____    ______ ____
ROOT
ATOM      1  C   UNL     1      47.415   6.215  13.789  0.00  0.00    +0.000 C 
ENDROOT
BRANCH   1   2
ATOM      2  C   UNL     1      46.536   5.446  12.838  0.00  0.00    +0.000 A 
ATOM      3  C   UNL     1      46.169   4.127  13.131  0.00  0.00    +0.000 A 
ATOM      4  C   UNL     1      45.369   3.400  12.248  0.00  0.00    +0.000 A 
ATOM      5  C   UNL     1      44.941   3.970  11.041  0.00  0.00    +0.000 A 
ATOM      6  C   UNL     1      45.310   5.290  10.746  0.00  0.00    +0.000 A 
ATOM      7  C   UNL     1      46.109   6.017  11.632  0.00  0.00    +0.000 A 
BRANCH   5   8
ATOM      8  C   UNL     1      44.112   3.167  10.065  0.00  0.00    +0.000 C 
BRANCH   8   9
ATOM      9  N   UNL     1      44.830   1.962   9.665  0.00  0.00    +0.000 N 
ATOM     10  C   UNL     1      45.614   2.145   8.511  0.00  0.00    +0.000 A 
ATOM     11  C   UNL     1      46.355   1.067   8.034  0.00  0.00    +0.000 A 
ATOM     12  C   UNL     1      47.153   1.229   6.900  0.00  0.00    +0.000 A 
ATOM     13  C   UNL     1      47.195   2.465   6.272  0.00  0.00    +0.000 A 
ATOM     14  C   UNL     1      46.442   3.488   6.814  0.00  0.00    +0.000 A 
ATOM     15  N   UNL     1      45.664   3.352   7.911  0.00  0.00    +0.000 NA
ATOM     16  H   UNL     1      44.205   1.176   9.528  0.00  0.00    +0.000 HD
ENDBRANCH   8   9
ENDBRANCH   5   8
ENDBRANCH   1   2
BRANCH   1  19
ATOM     17  O   UNL     1      49.206   7.413  11.971  0.00  0.00    +0.000 OA
ATOM     18  C   UNL     1      48.333   8.102  12.491  0.00  0.00    +0.000 C 
ATOM     19  N   UNL     1      47.467   7.610  13.432  0.00  0.00    +0.000 N 
ATOM     20  H   UNL     1      46.653   8.157  13.687  0.00  0.00    +0.000 HD
BRANCH  18  21
ATOM     21  C   UNL     1      48.199   9.532  12.179  0.00  0.00    +0.000 A 
ATOM     22  C   UNL     1      49.331  10.287  11.908  0.00  0.00    +0.000 A 
ATOM     23  S   UNL     1      48.997  11.930  11.594  0.00  0.00    +0.000 S 
ATOM     24  C   UNL     1      47.321  11.678  11.760  0.00  0.00    +0.000 A 
ATOM     25  N   UNL     1      46.442  12.700  11.580  0.00  0.00    +0.000 NA
ATOM     26  C   UNL     1      45.201  12.355  11.690  0.00  0.00    +0.000 A 
ATOM     27  N   UNL     1      44.762  11.090  11.976  0.00  0.00    +0.000 N 
ATOM     28  C   UNL     1      45.618  10.049  12.244  0.00  0.00    +0.000 A 
ATOM     29  O   UNL     1      45.192   8.967  12.635  0.00  0.00    +0.000 OA
ATOM     30  C   UNL     1      47.024  10.366  12.080  0.00  0.00    +0.000 A 
ATOM     31  H   UNL     1      43.778  10.895  12.080  0.00  0.00    +0.000 HD
ENDBRANCH  18  21
ENDBRANCH   1  19
TORSDOF 5
ENDMDL
MODEL 5
REMARK VINA RESULT:    -7.900      1.418      1.866
REMARK INTER + INTRA:         -10.910
REMARK INTER:                 -10.324
REMARK INTRA:                  -0.586
REMARK UNBOUND:                -0.701
REMARK  Name = 
REMARK  5 active torsions:
REMARK  status: ('A' for Active; 'I' for Inactive)
REMARK    1  A    between atoms: C_2  and  C_19
REMARK    2  A    between atoms: N_3  and  C_4
REMARK    3  A    between atoms: C_4  and  C_5
REMARK    4  A    between atoms: C_8  and  C_9
REMARK    5  A    between atoms: C_9  and  N_10
REMARK                            x       y       z     vdW  Elec       q    Type
REMARK                         _______ _______ _______ _____ _____    ______ ____
ROOT
ATOM      1  C   UNL     1      48.219   7.095  13.524  0.00  0.00    +0.000 C 
ENDROOT
BRANCH   1   2
ATOM      2  C   UNL     1      47.131   6.353  12.795  0.00  0.00    +0.000 A 
ATOM      3  C   UNL     1      46.753   5.071  13.212  0.00  0.00    +0.000 A 
ATOM      4  C   UNL     1      45.758   4.368  12.532  0.00  0.00    +0.000 A 
ATOM      5  C   UNL     1      45.137   4.923  11.404  0.00  0.00    +0.000 A 
ATOM      6  C   UNL     1      45.517   6.205  10.984  0.00  0.00    +0.000 A 
ATOM      7  C   UNL     1      46.513   6.909  11.667  0.00  0.00    +0.000 A 
BRANCH   5   8
ATOM      8  C   UNL     1      44.092   4.142  10.642  0.00  0.00    +0.000 C 
BRANCH   8   9
ATOM      9  N   UNL     1      44.596   2.815  10.310  0.00  0.00    +0.000 N 
ATOM     10  C   UNL     1      45.304   2.783   9.094  0.00  0.00    +0.000 A 
ATOM     11  C   UNL     1      45.843   1.570   8.671  0.00  0.00    +0.000 A 
ATOM     12  C   UNL     1      46.565   1.518   7.478  0.00  0.00    +0.000 A 
ATOM     13  C   UNL     1      46.735   2.677   6.737  0.00  0.00    +0.000 A 
ATOM     14  C   UNL     1      46.181   3.843   7.230  0.00  0.00    +0.000 A 
ATOM     15  N   UNL     1      45.480   3.915   8.383  0.00  0.00    +0.000 NA
ATOM     16  H   UNL     1      43.855   2.123  10.287  0.00  0.00    +0.000 HD
ENDBRANCH   8   9
ENDBRANCH   5   8
ENDBRANCH   1   2
BRANCH   1  19
ATOM     17  O   UNL     1      50.255   6.671  15.428  0.00  0.00    +0.000 OA
ATOM     18  C   UNL     1      49.103   6.847  15.814  0.00  0.00    +0.000 C 
ATOM     19  N   UNL     1      48.049   6.994  14.951  0.00  0.00    +0.000 N 
ATOM     20  H   UNL     1      47.161   7.325  15.310  0.00  0.00    +0.000 HD
BRANCH  18  21
ATOM     21  C   UNL     1      48.768   6.848  17.245  0.00  0.00    +0.000 A 
ATOM     22  C   UNL     1      48.292   8.009  17.841  0.00  0.00    +0.000 A 
ATOM     23  S   UNL     1      47.980   7.841  19.509  0.00  0.00    +0.000 S 
ATOM     24  C   UNL     1      48.421   6.197  19.483  0.00  0.00    +0.000 A 
ATOM     25  N   UNL     1      48.351   5.438  20.609  0.00  0.00    +0.000 NA
ATOM     26  C   UNL     1      48.671   4.199  20.433  0.00  0.00    +0.000 A 
ATOM     27  N   UNL     1      49.066   3.654  19.241  0.00  0.00    +0.000 N 
ATOM     28  C   UNL     1      49.229   4.401  18.100  0.00  0.00    +0.000 A 
ATOM     29  O   UNL     1      49.720   3.910  17.089  0.00  0.00    +0.000 OA
ATOM     30  C   UNL     1      48.831   5.790  18.226  0.00  0.00    +0.000 A 
ATOM     31  H   UNL     1      49.334   2.683  19.179  0.00  0.00    +0.000 HD
ENDBRANCH  18  21
ENDBRANCH   1  19
TORSDOF 5
ENDMDL
MODEL 6
REMARK VINA RESULT:    -7.251      4.754      7.357
REMARK INTER + INTRA:         -10.071
REMARK INTER:                  -9.150
REMARK INTRA:                  -0.921
REMARK UNBOUND:                -0.701
REMARK  Name = 
REMARK  5 active torsions:
REMARK  status: ('A' for Active; 'I' for Inactive)
REMARK    1  A    between atoms: C_2  and  C_19
REMARK    2  A    between atoms: N_3  and  C_4
REMARK    3  A    between atoms: C_4  and  C_5
REMARK    4  A    between atoms: C_8  and  C_9
REMARK    5  A    between atoms: C_9  and  N_10
REMARK                            x       y       z     vdW  Elec       q    Type
REMARK                         _______ _______ _______ _____ _____    ______ ____
ROOT
ATOM      1  C   UNL     1      46.421   8.283  13.126  0.00  0.00    +0.000 C 
ENDROOT
BRANCH   1   2
ATOM      2  C   UNL     1      47.798   8.404  12.528  0.00  0.00    +0.000 A 
ATOM      3  C   UNL     1      48.657   7.298  12.513  0.00  0.00    +0.000 A 
ATOM      4  C   UNL     1      49.941   7.404  11.977  0.00  0.00    +0.000 A 
ATOM      5  C   UNL     1      50.402   8.627  11.468  0.00  0.00    +0.000 A 
ATOM      6  C   UNL     1      49.543   9.735  11.486  0.00  0.00    +0.000 A 
ATOM      7  C   UNL     1      48.258   9.626  12.021  0.00  0.00    +0.000 A 
BRANCH   5   8
ATOM      8  C   UNL     1      51.808   8.751  10.930  0.00  0.00    +0.000 C 
BRANCH   8   9
ATOM      9  N   UNL     1      52.492   7.466  11.001  0.00  0.00    +0.000 N 
ATOM     10  C   UNL     1      52.846   6.958   9.738  0.00  0.00    +0.000 A 
ATOM     11  C   UNL     1      53.513   5.737   9.675  0.00  0.00    +0.000 A 
ATOM     12  C   UNL     1      53.889   5.222   8.434  0.00  0.00    +0.000 A 
ATOM     13  C   UNL     1      53.593   5.939   7.285  0.00  0.00    +0.000 A 
ATOM     14  C   UNL     1      52.941   7.147   7.430  0.00  0.00    +0.000 A 
ATOM     15  N   UNL     1      52.569   7.664   8.623  0.00  0.00    +0.000 NA
ATOM     16  H   UNL     1      51.946   6.774  11.503  0.00  0.00    +0.000 HD
ENDBRANCH   8   9
ENDBRANCH   5   8
ENDBRANCH   1   2
BRANCH   1  19
ATOM     17  O   UNL     1      44.600   7.671  11.063  0.00  0.00    +0.000 OA
ATOM     18  C   UNL     1      45.012   6.767  11.784  0.00  0.00    +0.000 C 
ATOM     19  N   UNL     1      45.846   6.992  12.847  0.00  0.00    +0.000 N 
ATOM     20  H   UNL     1      46.306   6.204  13.288  0.00  0.00    +0.000 HD
BRANCH  18  21
ATOM     21  C   UNL     1      44.582   5.376  11.587  0.00  0.00    +0.000 A 
ATOM     22  C   UNL     1      43.845   4.736  12.573  0.00  0.00    +0.000 A 
ATOM     23  S   UNL     1      43.454   3.120  12.193  0.00  0.00    +0.000 S 
ATOM     24  C   UNL     1      44.213   3.235  10.673  0.00  0.00    +0.000 A 
ATOM     25  N   UNL     1      44.214   2.182   9.813  0.00  0.00    +0.000 NA
ATOM     26  C   UNL     1      44.786   2.425   8.680  0.00  0.00    +0.000 A 
ATOM     27  N   UNL     1      45.365   3.618   8.335  0.00  0.00    +0.000 N 
ATOM     28  C   UNL     1      45.458   4.677   9.203  0.00  0.00    +0.000 A 
ATOM     29  O   UNL     1      46.108   5.676   8.912  0.00  0.00    +0.000 OA
ATOM     30  C   UNL     1      44.784   4.479  10.472  0.00  0.00    +0.000 A 
ATOM     31  H   UNL     1      45.824   3.731   7.444  0.00  0.00    +0.000 HD
ENDBRANCH  18  21
ENDBRANCH   1  19
TORSDOF 5
ENDMDL
MODEL 7
REMARK VINA RESULT:    -7.229      3.961      5.970
REMARK INTER + INTRA:         -10.043
REMARK INTER:                  -9.336
REMARK INTRA:                  -0.706
REMARK UNBOUND:                -0.701
REMARK  Name = 
REMARK  5 active torsions:
REMARK  status: ('A' for Active; 'I' for Inactive)
REMARK    1  A    between atoms: C_2  and  C_19
REMARK    2  A    between atoms: N_3  and  C_4
REMARK    3  A    between atoms: C_4  and  C_5
REMARK    4  A    between atoms: C_8  and  C_9
REMARK    5  A    between atoms: C_9  and  N_10
REMARK                            x       y       z     vdW  Elec       q    Type
REMARK                         _______ _______ _______ _____ _____    ______ ____
ROOT
ATOM      1  C   UNL     1      46.339   4.226  14.161  0.00  0.00    +0.000 C 
ENDROOT
BRANCH   1   2
ATOM      2  C   UNL     1      45.914   5.424  13.353  0.00  0.00    +0.000 A 
ATOM      3  C   UNL     1      46.712   6.574  13.326  0.00  0.00    +0.000 A 
ATOM      4  C   UNL     1      46.318   7.695  12.595  0.00  0.00    +0.000 A 
ATOM      5  C   UNL     1      45.103   7.698  11.895  0.00  0.00    +0.000 A 
ATOM      6  C   UNL     1      44.301   6.548  11.924  0.00  0.00    +0.000 A 
ATOM      7  C   UNL     1      44.698   5.426  12.655  0.00  0.00    +0.000 A 
BRANCH   5   8
ATOM      8  C   UNL     1      44.656   8.928  11.141  0.00  0.00    +0.000 C 
BRANCH   8   9
ATOM      9  N   UNL     1      43.224   8.865  10.876  0.00  0.00    +0.000 N 
ATOM     10  C   UNL     1      42.592  10.120  10.960  0.00  0.00    +0.000 A 
ATOM     11  C   UNL     1      41.222  10.191  10.719  0.00  0.00    +0.000 A 
ATOM     12  C   UNL     1      40.577  11.427  10.779  0.00  0.00    +0.000 A 
ATOM     13  C   UNL     1      41.315  12.563  11.076  0.00  0.00    +0.000 A 
ATOM     14  C   UNL     1      42.671  12.412  11.290  0.00  0.00    +0.000 A 
ATOM     15  N   UNL     1      43.314  11.225  11.235  0.00  0.00    +0.000 NA
ATOM     16  H   UNL     1      42.753   8.208  11.489  0.00  0.00    +0.000 HD
ENDBRANCH   8   9
ENDBRANCH   5   8
ENDBRANCH   1   2
BRANCH   1  19
ATOM     17  O   UNL     1      46.555   3.408  16.850  0.00  0.00    +0.000 OA
ATOM     18  C   UNL     1      47.457   4.078  16.355  0.00  0.00    +0.000 C 
ATOM     19  N   UNL     1      47.396   4.569  15.078  0.00  0.00    +0.000 N 
ATOM     20  H   UNL     1      48.236   4.947  14.655  0.00  0.00    +0.000 HD
BRANCH  18  21
ATOM     21  C   UNL     1      48.646   4.453  17.133  0.00  0.00    +0.000 A 
ATOM     22  C   UNL     1      48.703   5.695  17.750  0.00  0.00    +0.000 A 
ATOM     23  S   UNL     1      50.163   5.976  18.585  0.00  0.00    +0.000 S 
ATOM     24  C   UNL     1      50.750   4.427  18.195  0.00  0.00    +0.000 A 
ATOM     25  N   UNL     1      51.965   4.009  18.640  0.00  0.00    +0.000 NA
ATOM     26  C   UNL     1      52.262   2.796  18.306  0.00  0.00    +0.000 A 
ATOM     27  N   UNL     1      51.463   1.971  17.560  0.00  0.00    +0.000 N 
ATOM     28  C   UNL     1      50.268   2.381  17.023  0.00  0.00    +0.000 A 
ATOM     29  O   UNL     1      49.648   1.665  16.243  0.00  0.00    +0.000 OA
ATOM     30  C   UNL     1      49.857   3.717  17.411  0.00  0.00    +0.000 A 
ATOM     31  H   UNL     1      51.770   1.044  17.307  0.00  0.00    +0.000 HD
ENDBRANCH  18  21
ENDBRANCH   1  19
TORSDOF 5
ENDMDL
MODEL 8
REMARK VINA RESULT:    -6.919      3.973     10.265
REMARK INTER + INTRA:          -9.642
REMARK INTER:                  -9.003
REMARK INTRA:                  -0.638
REMARK UNBOUND:                -0.701
REMARK  Name = 
REMARK  5 active torsions:
REMARK  status: ('A' for Active; 'I' for Inactive)
REMARK    1  A    between atoms: C_2  and  C_19
REMARK    2  A    between atoms: N_3  and  C_4
REMARK    3  A    between atoms: C_4  and  C_5
REMARK    4  A    between atoms: C_8  and  C_9
REMARK    5  A    between atoms: C_9  and  N_10
REMARK                            x       y       z     vdW  Elec       q    Type
REMARK                         _______ _______ _______ _____ _____    ______ ____
ROOT
ATOM      1  C   UNL     1      47.408   3.672  16.689  0.00  0.00    +0.000 C 
ENDROOT
BRANCH   1   2
ATOM      2  C   UNL     1      47.696   4.369  17.993  0.00  0.00    +0.000 A 
ATOM      3  C   UNL     1      46.880   5.422  18.423  0.00  0.00    +0.000 A 
ATOM      4  C   UNL     1      47.149   6.085  19.620  0.00  0.00    +0.000 A 
ATOM      5  C   UNL     1      48.256   5.725  20.401  0.00  0.00    +0.000 A 
ATOM      6  C   UNL     1      49.076   4.672  19.969  0.00  0.00    +0.000 A 
ATOM      7  C   UNL     1      48.804   4.008  18.771  0.00  0.00    +0.000 A 
BRANCH   5   8
ATOM      8  C   UNL     1      48.572   6.474  21.675  0.00  0.00    +0.000 C 
BRANCH   8   9
ATOM      9  N   UNL     1      47.406   7.229  22.119  0.00  0.00    +0.000 N 
ATOM     10  C   UNL     1      47.533   8.614  21.908  0.00  0.00    +0.000 A 
ATOM     11  C   UNL     1      46.479   9.443  22.285  0.00  0.00    +0.000 A 
ATOM     12  C   UNL     1      46.575  10.818  22.069  0.00  0.00    +0.000 A 
ATOM     13  C   UNL     1      47.720  11.334  21.480  0.00  0.00    +0.000 A 
ATOM     14  C   UNL     1      48.716  10.446  21.123  0.00  0.00    +0.000 A 
ATOM     15  N   UNL     1      48.641   9.111  21.322  0.00  0.00    +0.000 NA
ATOM     16  H   UNL     1      47.191   7.053  23.095  0.00  0.00    +0.000 HD
ENDBRANCH   8   9
ENDBRANCH   5   8
ENDBRANCH   1   2
BRANCH   1  19
ATOM     17  O   UNL     1      47.229   3.210  13.913  0.00  0.00    +0.000 OA
ATOM     18  C   UNL     1      46.835   4.280  14.368  0.00  0.00    +0.000 C 
ATOM     19  N   UNL     1      46.947   4.606  15.694  0.00  0.00    +0.000 N 
ATOM     20  H   UNL     1      46.440   5.409  16.048  0.00  0.00    +0.000 HD
BRANCH  18  21
ATOM     21  C   UNL     1      46.265   5.317  13.496  0.00  0.00    +0.000 A 
ATOM     22  C   UNL     1      47.004   6.456  13.205  0.00  0.00    +0.000 A 
ATOM     23  S   UNL     1      46.183   7.566  12.204  0.00  0.00    +0.000 S 
ATOM     24  C   UNL     1      44.830   6.540  12.082  0.00  0.00    +0.000 A 
ATOM     25  N   UNL     1      43.756   6.890  11.326  0.00  0.00    +0.000 NA
ATOM     26  C   UNL     1      42.822   5.997  11.287  0.00  0.00    +0.000 A 
ATOM     27  N   UNL     1      42.860   4.796  11.943  0.00  0.00    +0.000 N 
ATOM     28  C   UNL     1      43.888   4.439  12.782  0.00  0.00    +0.000 A 
ATOM     29  O   UNL     1      43.822   3.422  13.463  0.00  0.00    +0.000 OA
ATOM     30  C   UNL     1      44.990   5.381  12.820  0.00  0.00    +0.000 A 
ATOM     31  H   UNL     1      42.081   4.156  11.897  0.00  0.00    +0.000 HD
ENDBRANCH  18  21
ENDBRANCH   1  19
TORSDOF 5
ENDMDL
MODEL 9
REMARK VINA RESULT:    -6.800      4.093      9.909
REMARK INTER + INTRA:          -9.489
REMARK INTER:                  -8.517
REMARK INTRA:                  -0.972
REMARK UNBOUND:                -0.701
REMARK  Name = 
REMARK  5 active torsions:
REMARK  status: ('A' for Active; 'I' for Inactive)
REMARK    1  A    between atoms: C_2  and  C_19
REMARK    2  A    between atoms: N_3  and  C_4
REMARK    3  A    between atoms: C_4  and  C_5
REMARK    4  A    between atoms: C_8  and  C_9
REMARK    5  A    between atoms: C_9  and  N_10
REMARK                            x       y       z     vdW  Elec       q    Type
REMARK                         _______ _______ _______ _____ _____    ______ ____
ROOT
ATOM      1  C   UNL     1      48.060   4.700  16.275  0.00  0.00    +0.000 C 
ENDROOT
BRANCH   1   2
ATOM      2  C   UNL     1      48.122   5.772  17.331  0.00  0.00    +0.000 A 
ATOM      3  C   UNL     1      49.057   6.809  17.227  0.00  0.00    +0.000 A 
ATOM      4  C   UNL     1      49.134   7.796  18.210  0.00  0.00    +0.000 A 
ATOM      5  C   UNL     1      48.293   7.752  19.331  0.00  0.00    +0.000 A 
ATOM      6  C   UNL     1      47.359   6.713  19.437  0.00  0.00    +0.000 A 
ATOM      7  C   UNL     1      47.282   5.726  18.452  0.00  0.00    +0.000 A 
BRANCH   5   8
ATOM      8  C   UNL     1      48.408   8.797  20.417  0.00  0.00    +0.000 C 
BRANCH   8   9
ATOM      9  N   UNL     1      48.406  10.134  19.834  0.00  0.00    +0.000 N 
ATOM     10  C   UNL     1      47.191  10.817  20.026  0.00  0.00    +0.000 A 
ATOM     11  C   UNL     1      47.068  12.109  19.520  0.00  0.00    +0.000 A 
ATOM     12  C   UNL     1      45.879  12.813  19.714  0.00  0.00    +0.000 A 
ATOM     13  C   UNL     1      44.842  12.212  20.411  0.00  0.00    +0.000 A 
ATOM     14  C   UNL     1      45.045  10.934  20.892  0.00  0.00    +0.000 A 
ATOM     15  N   UNL     1      46.189  10.236  20.716  0.00  0.00    +0.000 NA
ATOM     16  H   UNL     1      48.631  10.116  18.845  0.00  0.00    +0.000 HD
ENDBRANCH   8   9
ENDBRANCH   5   8
ENDBRANCH   1   2
BRANCH   1  19
ATOM     17  O   UNL     1      48.578   6.116  13.892  0.00  0.00    +0.000 OA
ATOM     18  C   UNL     1      47.450   5.676  14.092  0.00  0.00    +0.000 C 
ATOM     19  N   UNL     1      47.102   5.035  15.253  0.00  0.00    +0.000 N 
ATOM     20  H   UNL     1      46.226   4.528  15.291  0.00  0.00    +0.000 HD
BRANCH  18  21
ATOM     21  C   UNL     1      46.370   5.865  13.113  0.00  0.00    +0.000 A 
ATOM     22  C   UNL     1      46.031   7.146  12.699  0.00  0.00    +0.000 A 
ATOM     23  S   UNL     1      44.742   7.184  11.584  0.00  0.00    +0.000 S 
ATOM     24  C   UNL     1      44.625   5.486  11.576  0.00  0.00    +0.000 A 
ATOM     25  N   UNL     1      43.716   4.854  10.786  0.00  0.00    +0.000 NA
ATOM     26  C   UNL     1      43.770   3.564  10.846  0.00  0.00    +0.000 A 
ATOM     27  N   UNL     1      44.639   2.852  11.630  0.00  0.00    +0.000 N 
ATOM     28  C   UNL     1      45.515   3.451  12.501  0.00  0.00    +0.000 A 
ATOM     29  O   UNL     1      46.176   2.783  13.290  0.00  0.00    +0.000 OA
ATOM     30  C   UNL     1      45.536   4.900  12.436  0.00  0.00    +0.000 A 
ATOM     31  H   UNL     1      44.606   1.844  11.654  0.00  0.00    +0.000 HD
ENDBRANCH  18  21
ENDBRANCH   1  19
TORSDOF 5
ENDMDL
