MODEL 1
REMARK VINA RESULT:    -8.519      0.000      0.000
REMARK INTER + INTRA:         -11.096
REMARK INTER:                 -10.511
REMARK INTRA:                  -0.585
REMARK UNBOUND:                -0.585
REMARK  Name = 
REMARK  5 active torsions:
REMARK  status: ('A' for Active; 'I' for Inactive)
REMARK    1  A    between atoms: C_1  and  C_2
REMARK    2  A    between atoms: C_9  and  C_10
REMARK    3  A    between atoms: C_10  and  N_11
REMARK    4  A    between atoms: N_11  and  C_12
REMARK    5  A    between atoms: C_15  and  C_16
REMARK                            x       y       z     vdW  Elec       q    Type
REMARK                         _______ _______ _______ _____ _____    ______ ____
ROOT
ATOM      1  C   UNL     1      48.838   7.439  15.421  0.00  0.00    +0.000 C 
ATOM      2  C   UNL     1      49.376   7.990  14.097  0.00  0.00    +0.000 C 
ATOM      3  C   UNL     1      49.213   6.975  12.930  0.00  0.00    +0.000 C 
ATOM      4  N   UNL     1      47.848   6.961  12.403  0.00  0.00    +0.000 N 
ATOM      5  C   UNL     1      47.023   5.880  12.607  0.00  0.00    +0.000 A 
ATOM      6  N   UNL     1      47.495   4.824  13.288  0.00  0.00    +0.000 NA
ATOM      7  C   UNL     1      46.687   3.760  13.437  0.00  0.00    +0.000 A 
ATOM      8  C   UNL     1      45.418   3.690  12.919  0.00  0.00    +0.000 A 
ATOM      9  C   UNL     1      45.007   4.788  12.196  0.00  0.00    +0.000 A 
ATOM     10  N   UNL     1      45.792   5.887  12.065  0.00  0.00    +0.000 NA
ATOM     11  C   UNL     1      47.272   8.266  12.091  0.00  0.00    +0.000 C 
ATOM     12  C   UNL     1      47.432   9.228  13.289  0.00  0.00    +0.000 C 
ATOM     13  N   UNL     1      48.813   9.330  13.799  0.00  0.00    +0.000 NA
ATOM     14  H   UNL     1      48.818   9.900  14.644  0.00  0.00    +0.000 HD
ENDROOT
BRANCH   9  15
ATOM     15  C   UNL     1      43.684   4.755  11.443  0.00  0.00    +0.000 C 
BRANCH  15  16
ATOM     16  N   UNL     1      43.846   4.926  10.000  0.00  0.00    +0.000 N 
ATOM     17  H   UNL     1      42.987   5.165   9.515  0.00  0.00    +0.000 HD
BRANCH  16  18
ATOM     18  C   UNL     1      44.650   4.046   9.266  0.00  0.00    +0.000 A 
ATOM     19  C   UNL     1      44.675   2.658   9.450  0.00  0.00    +0.000 A 
ATOM     20  C   UNL     1      45.539   1.841   8.712  0.00  0.00    +0.000 A 
ATOM     21  C   UNL     1      46.426   2.395   7.789  0.00  0.00    +0.000 A 
ATOM     22  C   UNL     1      46.454   3.782   7.625  0.00  0.00    +0.000 A 
ATOM     23  C   UNL     1      45.583   4.592   8.368  0.00  0.00    +0.000 A 
BRANCH  21  24
ATOM     24  C   UNL     1      47.345   1.490   7.054  0.00  0.00    +0.000 C 
ATOM     25  N   UNL     1      48.507   2.014   6.554  0.00  0.00    +0.000 N 
ATOM     26  O   UNL     1      47.076   0.308   6.872  0.00  0.00    +0.000 OA
ATOM     27  H   UNL     1      48.702   3.005   6.518  0.00  0.00    +0.000 HD
ATOM     28  H   UNL     1      49.083   1.393   5.998  0.00  0.00    +0.000 HD
ENDBRANCH  21  24
ENDBRANCH  16  18
ENDBRANCH  15  16
ENDBRANCH   9  15
TORSDOF 4
ENDMDL
MODEL 2
REMARK VINA RESULT:    -7.807      1.426      2.591
REMARK INTER + INTRA:         -10.217
REMARK INTER:                  -9.711
REMARK INTRA:                  -0.506
REMARK UNBOUND:                -0.585
REMARK  Name = 
REMARK  5 active torsions:
REMARK  status: ('A' for Active; 'I' for Inactive)
REMARK    1  A    between atoms: C_1  and  C_2
REMARK    2  A    between atoms: C_9  and  C_10
REMARK    3  A    between atoms: C_10  and  N_11
REMARK    4  A    between atoms: N_11  and  C_12
REMARK    5  A    between atoms: C_15  and  C_16
REMARK                            x       y       z     vdW  Elec       q    Type
REMARK                         _______ _______ _______ _____ _____    ______ ____
ROOT
ATOM      1  C   UNL     1      49.080   9.915  11.545  0.00  0.00    +0.000 C 
ATOM      2  C   UNL     1      49.309   9.387  12.964  0.00  0.00    +0.000 C 
ATOM      3  C   UNL     1      47.973   9.091  13.703  0.00  0.00    +0.000 C 
ATOM      4  N   UNL     1      47.391   7.813  13.291  0.00  0.00    +0.000 N 
ATOM      5  C   UNL     1      46.241   7.770  12.538  0.00  0.00    +0.000 A 
ATOM      6  N   UNL     1      45.647   8.924  12.197  0.00  0.00    +0.000 NA
ATOM      7  C   UNL     1      44.499   8.858  11.501  0.00  0.00    +0.000 A 
ATOM      8  C   UNL     1      43.897   7.680  11.135  0.00  0.00    +0.000 A 
ATOM      9  C   UNL     1      44.535   6.531  11.550  0.00  0.00    +0.000 A 
ATOM     10  N   UNL     1      45.712   6.575  12.222  0.00  0.00    +0.000 NA
ATOM     11  C   UNL     1      48.297   6.668  13.298  0.00  0.00    +0.000 C 
ATOM     12  C   UNL     1      49.595   7.001  12.529  0.00  0.00    +0.000 C 
ATOM     13  N   UNL     1      50.255   8.244  12.971  0.00  0.00    +0.000 NA
ATOM     14  H   UNL     1      51.040   8.446  12.354  0.00  0.00    +0.000 HD
ENDROOT
BRANCH   9  15
ATOM     15  C   UNL     1      43.875   5.175  11.340  0.00  0.00    +0.000 C 
BRANCH  15  16
ATOM     16  N   UNL     1      43.685   4.846   9.928  0.00  0.00    +0.000 N 
ATOM     17  H   UNL     1      42.731   4.594   9.688  0.00  0.00    +0.000 HD
BRANCH  16  18
ATOM     18  C   UNL     1      44.631   4.073   9.245  0.00  0.00    +0.000 A 
ATOM     19  C   UNL     1      45.560   4.585   8.331  0.00  0.00    +0.000 A 
ATOM     20  C   UNL     1      46.449   3.747   7.648  0.00  0.00    +0.000 A 
ATOM     21  C   UNL     1      46.412   2.366   7.839  0.00  0.00    +0.000 A 
ATOM     22  C   UNL     1      45.460   1.827   8.708  0.00  0.00    +0.000 A 
ATOM     23  C   UNL     1      44.575   2.677   9.388  0.00  0.00    +0.000 A 
BRANCH  21  24
ATOM     24  C   UNL     1      47.353   1.516   7.067  0.00  0.00    +0.000 C 
ATOM     25  N   UNL     1      48.477   2.102   6.548  0.00  0.00    +0.000 N 
ATOM     26  O   UNL     1      47.134   0.326   6.871  0.00  0.00    +0.000 OA
ATOM     27  H   UNL     1      48.625   3.101   6.523  0.00  0.00    +0.000 HD
ATOM     28  H   UNL     1      49.067   1.517   5.967  0.00  0.00    +0.000 HD
ENDBRANCH  21  24
ENDBRANCH  16  18
ENDBRANCH  15  16
ENDBRANCH   9  15
TORSDOF 4
ENDMDL
MODEL 3
REMARK VINA RESULT:    -7.071      2.403      3.549
REMARK INTER + INTRA:          -9.310
REMARK INTER:                  -8.917
REMARK INTRA:                  -0.393
REMARK UNBOUND:                -0.585
REMARK  Name = 
REMARK  5 active torsions:
REMARK  status: ('A' for Active; 'I' for Inactive)
REMARK    1  A    between atoms: C_1  and  C_2
REMARK    2  A    between atoms: C_9  and  C_10
REMARK    3  A    between atoms: C_10  and  N_11
REMARK    4  A    between atoms: N_11  and  C_12
REMARK    5  A    between atoms: C_15  and  C_16
REMARK                            x       y       z     vdW  Elec       q    Type
REMARK                         _______ _______ _______ _____ _____    ______ ____
ROOT
ATOM      1  C   UNL     1      50.671   4.972  16.743  0.00  0.00    +0.000 C 
ATOM      2  C   UNL     1      49.630   4.935  17.867  0.00  0.00    +0.000 C 
ATOM      3  C   UNL     1      48.293   5.611  17.450  0.00  0.00    +0.000 C 
ATOM      4  N   UNL     1      47.470   4.732  16.619  0.00  0.00    +0.000 N 
ATOM      5  C   UNL     1      47.278   4.998  15.284  0.00  0.00    +0.000 A 
ATOM      6  N   UNL     1      47.847   6.092  14.752  0.00  0.00    +0.000 NA
ATOM      7  C   UNL     1      47.609   6.358  13.456  0.00  0.00    +0.000 A 
ATOM      8  C   UNL     1      46.806   5.584  12.655  0.00  0.00    +0.000 A 
ATOM      9  C   UNL     1      46.219   4.499  13.270  0.00  0.00    +0.000 A 
ATOM     10  N   UNL     1      46.475   4.192  14.566  0.00  0.00    +0.000 NA
ATOM     11  C   UNL     1      47.275   3.376  17.124  0.00  0.00    +0.000 C 
ATOM     12  C   UNL     1      48.631   2.737  17.496  0.00  0.00    +0.000 C 
ATOM     13  N   UNL     1      49.458   3.561  18.399  0.00  0.00    +0.000 NA
ATOM     14  H   UNL     1      50.370   3.121  18.515  0.00  0.00    +0.000 HD
ENDROOT
BRANCH   9  15
ATOM     15  C   UNL     1      45.187   3.666  12.522  0.00  0.00    +0.000 C 
BRANCH  15  16
ATOM     16  N   UNL     1      44.777   4.270  11.255  0.00  0.00    +0.000 N 
ATOM     17  H   UNL     1      43.793   4.514  11.214  0.00  0.00    +0.000 HD
BRANCH  16  18
ATOM     18  C   UNL     1      45.255   3.765  10.040  0.00  0.00    +0.000 A 
ATOM     19  C   UNL     1      45.314   2.403   9.718  0.00  0.00    +0.000 A 
ATOM     20  C   UNL     1      45.848   1.965   8.502  0.00  0.00    +0.000 A 
ATOM     21  C   UNL     1      46.369   2.877   7.584  0.00  0.00    +0.000 A 
ATOM     22  C   UNL     1      46.368   4.237   7.905  0.00  0.00    +0.000 A 
ATOM     23  C   UNL     1      45.828   4.666   9.127  0.00  0.00    +0.000 A 
BRANCH  21  24
ATOM     24  C   UNL     1      46.955   2.360   6.322  0.00  0.00    +0.000 C 
ATOM     25  N   UNL     1      46.984   3.191   5.233  0.00  0.00    +0.000 N 
ATOM     26  O   UNL     1      47.385   1.216   6.233  0.00  0.00    +0.000 OA
ATOM     27  H   UNL     1      46.492   4.073   5.192  0.00  0.00    +0.000 HD
ATOM     28  H   UNL     1      47.325   2.792   4.367  0.00  0.00    +0.000 HD
ENDBRANCH  21  24
ENDBRANCH  16  18
ENDBRANCH  15  16
ENDBRANCH   9  15
TORSDOF 4
ENDMDL
MODEL 4
REMARK VINA RESULT:    -6.768      3.026      5.228
REMARK INTER + INTRA:          -8.936
REMARK INTER:                  -8.506
REMARK INTRA:                  -0.430
REMARK UNBOUND:                -0.585
REMARK  Name = 
REMARK  5 active torsions:
REMARK  status: ('A' for Active; 'I' for Inactive)
REMARK    1  A    between atoms: C_1  and  C_2
REMARK    2  A    between atoms: C_9  and  C_10
REMARK    3  A    between atoms: C_10  and  N_11
REMARK    4  A    between atoms: N_11  and  C_12
REMARK    5  A    between atoms: C_15  and  C_16
REMARK                            x       y       z     vdW  Elec       q    Type
REMARK                         _______ _______ _______ _____ _____    ______ ____
ROOT
ATOM      1  C   UNL     1      50.996   3.645  17.714  0.00  0.00    +0.000 C 
ATOM      2  C   UNL     1      49.662   3.884  18.426  0.00  0.00    +0.000 C 
ATOM      3  C   UNL     1      49.128   5.328  18.201  0.00  0.00    +0.000 C 
ATOM      4  N   UNL     1      48.489   5.479  16.894  0.00  0.00    +0.000 N 
ATOM      5  C   UNL     1      49.077   6.230  15.903  0.00  0.00    +0.000 A 
ATOM      6  N   UNL     1      50.245   6.841  16.159  0.00  0.00    +0.000 NA
ATOM      7  C   UNL     1      50.779   7.607  15.193  0.00  0.00    +0.000 A 
ATOM      8  C   UNL     1      50.189   7.811  13.970  0.00  0.00    +0.000 A 
ATOM      9  C   UNL     1      48.973   7.190  13.783  0.00  0.00    +0.000 A 
ATOM     10  N   UNL     1      48.434   6.384  14.731  0.00  0.00    +0.000 NA
ATOM     11  C   UNL     1      47.504   4.460  16.544  0.00  0.00    +0.000 C 
ATOM     12  C   UNL     1      48.090   3.046  16.755  0.00  0.00    +0.000 C 
ATOM     13  N   UNL     1      48.673   2.830  18.093  0.00  0.00    +0.000 NA
ATOM     14  H   UNL     1      49.124   1.916  18.119  0.00  0.00    +0.000 HD
ENDROOT
BRANCH   9  15
ATOM     15  C   UNL     1      48.156   7.475  12.531  0.00  0.00    +0.000 C 
BRANCH  15  16
ATOM     16  N   UNL     1      46.714   7.404  12.763  0.00  0.00    +0.000 N 
ATOM     17  H   UNL     1      46.426   7.745  13.675  0.00  0.00    +0.000 HD
BRANCH  16  18
ATOM     18  C   UNL     1      45.984   6.280  12.357  0.00  0.00    +0.000 A 
ATOM     19  C   UNL     1      45.541   5.270  13.219  0.00  0.00    +0.000 A 
ATOM     20  C   UNL     1      44.855   4.149  12.738  0.00  0.00    +0.000 A 
ATOM     21  C   UNL     1      44.621   3.992  11.372  0.00  0.00    +0.000 A 
ATOM     22  C   UNL     1      45.099   4.962  10.486  0.00  0.00    +0.000 A 
ATOM     23  C   UNL     1      45.783   6.082  10.980  0.00  0.00    +0.000 A 
BRANCH  21  24
ATOM     24  C   UNL     1      43.919   2.770  10.906  0.00  0.00    +0.000 C 
ATOM     25  N   UNL     1      44.412   2.118   9.807  0.00  0.00    +0.000 N 
ATOM     26  O   UNL     1      42.911   2.354  11.466  0.00  0.00    +0.000 OA
ATOM     27  H   UNL     1      45.126   2.504   9.204  0.00  0.00    +0.000 HD
ATOM     28  H   UNL     1      43.876   1.328   9.469  0.00  0.00    +0.000 HD
ENDBRANCH  21  24
ENDBRANCH  16  18
ENDBRANCH  15  16
ENDBRANCH   9  15
TORSDOF 4
ENDMDL
MODEL 5
REMARK VINA RESULT:    -6.254      3.585      6.391
REMARK INTER + INTRA:          -8.301
REMARK INTER:                  -7.846
REMARK INTRA:                  -0.455
REMARK UNBOUND:                -0.585
REMARK  Name = 
REMARK  5 active torsions:
REMARK  status: ('A' for Active; 'I' for Inactive)
REMARK    1  A    between atoms: C_1  and  C_2
REMARK    2  A    between atoms: C_9  and  C_10
REMARK    3  A    between atoms: C_10  and  N_11
REMARK    4  A    between atoms: N_11  and  C_12
REMARK    5  A    between atoms: C_15  and  C_16
REMARK                            x       y       z     vdW  Elec       q    Type
REMARK                         _______ _______ _______ _____ _____    ______ ____
ROOT
ATOM      1  C   UNL     1      50.323   4.941  20.180  0.00  0.00    +0.000 C 
ATOM      2  C   UNL     1      48.819   4.668  20.265  0.00  0.00    +0.000 C 
ATOM      3  C   UNL     1      47.977   5.820  19.644  0.00  0.00    +0.000 C 
ATOM      4  N   UNL     1      47.937   5.743  18.183  0.00  0.00    +0.000 N 
ATOM      5  C   UNL     1      48.596   6.668  17.409  0.00  0.00    +0.000 A 
ATOM      6  N   UNL     1      49.268   7.660  18.015  0.00  0.00    +0.000 NA
ATOM      7  C   UNL     1      49.866   8.580  17.238  0.00  0.00    +0.000 A 
ATOM      8  C   UNL     1      49.814   8.568  15.867  0.00  0.00    +0.000 A 
ATOM      9  C   UNL     1      49.075   7.549  15.306  0.00  0.00    +0.000 A 
ATOM     10  N   UNL     1      48.494   6.590  16.070  0.00  0.00    +0.000 NA
ATOM     11  C   UNL     1      47.596   4.438  17.623  0.00  0.00    +0.000 C 
ATOM     12  C   UNL     1      48.476   3.334  18.249  0.00  0.00    +0.000 C 
ATOM     13  N   UNL     1      48.479   3.329  19.724  0.00  0.00    +0.000 NA
ATOM     14  H   UNL     1      49.156   2.643  20.057  0.00  0.00    +0.000 HD
ENDROOT
BRANCH   9  15
ATOM     15  C   UNL     1      48.816   7.531  13.806  0.00  0.00    +0.000 C 
BRANCH  15  16
ATOM     16  N   UNL     1      48.439   6.207  13.310  0.00  0.00    +0.000 N 
ATOM     17  H   UNL     1      49.169   5.743  12.780  0.00  0.00    +0.000 HD
BRANCH  16  18
ATOM     18  C   UNL     1      47.165   5.987  12.774  0.00  0.00    +0.000 A 
ATOM     19  C   UNL     1      46.702   6.547  11.576  0.00  0.00    +0.000 A 
ATOM     20  C   UNL     1      45.398   6.321  11.122  0.00  0.00    +0.000 A 
ATOM     21  C   UNL     1      44.508   5.552  11.872  0.00  0.00    +0.000 A 
ATOM     22  C   UNL     1      44.931   5.025  13.095  0.00  0.00    +0.000 A 
ATOM     23  C   UNL     1      46.241   5.256  13.539  0.00  0.00    +0.000 A 
BRANCH  21  24
ATOM     24  C   UNL     1      43.125   5.368  11.364  0.00  0.00    +0.000 C 
ATOM     25  N   UNL     1      42.169   6.271  11.748  0.00  0.00    +0.000 N 
ATOM     26  O   UNL     1      42.825   4.427  10.638  0.00  0.00    +0.000 OA
ATOM     27  H   UNL     1      42.311   6.957  12.475  0.00  0.00    +0.000 HD
ATOM     28  H   UNL     1      41.221   6.084  11.444  0.00  0.00    +0.000 HD
ENDBRANCH  21  24
ENDBRANCH  16  18
ENDBRANCH  15  16
ENDBRANCH   9  15
TORSDOF 4
ENDMDL
MODEL 6
REMARK VINA RESULT:    -5.788      2.575      3.680
REMARK INTER + INTRA:          -7.726
REMARK INTER:                  -7.344
REMARK INTRA:                  -0.383
REMARK UNBOUND:                -0.585
REMARK  Name = 
REMARK  5 active torsions:
REMARK  status: ('A' for Active; 'I' for Inactive)
REMARK    1  A    between atoms: C_1  and  C_2
REMARK    2  A    between atoms: C_9  and  C_10
REMARK    3  A    between atoms: C_10  and  N_11
REMARK    4  A    between atoms: N_11  and  C_12
REMARK    5  A    between atoms: C_15  and  C_16
REMARK                            x       y       z     vdW  Elec       q    Type
REMARK                         _______ _______ _______ _____ _____    ______ ____
ROOT
ATOM      1  C   UNL     1      47.437  12.202   9.527  0.00  0.00    +0.000 C 
ATOM      2  C   UNL     1      48.040  12.395  10.921  0.00  0.00    +0.000 C 
ATOM      3  C   UNL     1      47.087  11.899  12.046  0.00  0.00    +0.000 C 
ATOM      4  N   UNL     1      47.130  10.444  12.198  0.00  0.00    +0.000 N 
ATOM      5  C   UNL     1      46.060   9.664  11.830  0.00  0.00    +0.000 A 
ATOM      6  N   UNL     1      44.961  10.259  11.340  0.00  0.00    +0.000 NA
ATOM      7  C   UNL     1      43.910   9.481  11.030  0.00  0.00    +0.000 A 
ATOM      8  C   UNL     1      43.894   8.119  11.200  0.00  0.00    +0.000 A 
ATOM      9  C   UNL     1      45.036   7.573  11.744  0.00  0.00    +0.000 A 
ATOM     10  N   UNL     1      46.121   8.334  12.031  0.00  0.00    +0.000 NA
ATOM     11  C   UNL     1      48.462   9.852  12.294  0.00  0.00    +0.000 C 
ATOM     12  C   UNL     1      49.360  10.352  11.141  0.00  0.00    +0.000 C 
ATOM     13  N   UNL     1      49.405  11.821  11.006  0.00  0.00    +0.000 NA
ATOM     14  H   UNL     1      49.933  12.065  10.169  0.00  0.00    +0.000 HD
ENDROOT
BRANCH   9  15
ATOM     15  C   UNL     1      45.069   6.100  12.126  0.00  0.00    +0.000 C 
BRANCH  15  16
ATOM     16  N   UNL     1      44.175   5.279  11.309  0.00  0.00    +0.000 N 
ATOM     17  H   UNL     1      43.455   4.801  11.839  0.00  0.00    +0.000 HD
BRANCH  16  18
ATOM     18  C   UNL     1      44.686   4.493  10.269  0.00  0.00    +0.000 A 
ATOM     19  C   UNL     1      44.538   3.103  10.182  0.00  0.00    +0.000 A 
ATOM     20  C   UNL     1      45.114   2.372   9.137  0.00  0.00    +0.000 A 
ATOM     21  C   UNL     1      45.885   3.010   8.165  0.00  0.00    +0.000 A 
ATOM     22  C   UNL     1      46.090   4.389   8.260  0.00  0.00    +0.000 A 
ATOM     23  C   UNL     1      45.505   5.112   9.310  0.00  0.00    +0.000 A 
BRANCH  21  24
ATOM     24  C   UNL     1      46.504   2.187   7.096  0.00  0.00    +0.000 C 
ATOM     25  N   UNL     1      46.968   0.941   7.424  0.00  0.00    +0.000 N 
ATOM     26  O   UNL     1      46.625   2.606   5.950  0.00  0.00    +0.000 OA
ATOM     27  H   UNL     1      47.057   0.613   8.375  0.00  0.00    +0.000 HD
ATOM     28  H   UNL     1      47.448   0.429   6.693  0.00  0.00    +0.000 HD
ENDBRANCH  21  24
ENDBRANCH  16  18
ENDBRANCH  15  16
ENDBRANCH   9  15
TORSDOF 4
ENDMDL
