MODEL 1
REMARK VINA RESULT:    -8.695      0.000      0.000
REMARK INTER + INTRA:         -12.785
REMARK INTER:                 -11.745
REMARK INTRA:                  -1.040
REMARK UNBOUND:                -1.040
REMARK  Name = 
REMARK  6 active torsions:
REMARK  status: ('A' for Active; 'I' for Inactive)
REMARK    1  A    between atoms: C_2  and  C_4
REMARK    2  A    between atoms: C_7  and  O_8
REMARK    3  A    between atoms: O_8  and  C_9
REMARK    4  A    between atoms: C_9  and  C_10
REMARK    5  A    between atoms: C_10  and  C_11
REMARK    6  A    between atoms: C_15  and  C_16
REMARK                            x       y       z     vdW  Elec       q    Type
REMARK                         _______ _______ _______ _____ _____    ______ ____
ROOT
ATOM      1  C   UNL     1      43.448   5.352  12.145  0.00  0.00    +0.000 C 
ENDROOT
BRANCH   1   2
ATOM      2  C   UNL     1      44.857   5.494  12.661  0.00  0.00    +0.000 A 
ATOM      3  C   UNL     1      45.379   4.579  13.579  0.00  0.00    +0.000 A 
ATOM      4  C   UNL     1      46.699   4.701  14.007  0.00  0.00    +0.000 A 
ATOM      5  C   UNL     1      47.507   5.737  13.523  0.00  0.00    +0.000 A 
ATOM      6  C   UNL     1      47.015   6.687  12.606  0.00  0.00    +0.000 A 
ATOM      7  C   UNL     1      45.681   6.525  12.185  0.00  0.00    +0.000 A 
ATOM      8  F   UNL     1      45.146   7.387  11.303  0.00  0.00    +0.000 F 
BRANCH   6   9
ATOM      9  C   UNL     1      47.852   7.824  12.147  0.00  0.00    +0.000 A 
ATOM     10  C   UNL     1      47.369   9.145  12.139  0.00  0.00    +0.000 A 
ATOM     11  C   UNL     1      48.190  10.223  11.791  0.00  0.00    +0.000 A 
ATOM     12  C   UNL     1      49.510  10.003  11.416  0.00  0.00    +0.000 A 
ATOM     13  C   UNL     1      50.005   8.704  11.378  0.00  0.00    +0.000 A 
ATOM     14  C   UNL     1      49.187   7.630  11.741  0.00  0.00    +0.000 A 
ENDBRANCH   6   9
ENDBRANCH   1   2
BRANCH   1  15
ATOM     15  C   UNL     1      43.347   4.215  11.131  0.00  0.00    +0.000 C 
BRANCH  15  16
ATOM     16  O   UNL     1      43.578   4.729   9.814  0.00  0.00    +0.000 OA
BRANCH  16  20
ATOM     17  C   UNL     1      46.381   2.480   7.802  0.00  0.00    +0.000 A 
ATOM     18  C   UNL     1      45.505   1.855   8.692  0.00  0.00    +0.000 A 
ATOM     19  C   UNL     1      44.564   2.629   9.372  0.00  0.00    +0.000 A 
ATOM     20  C   UNL     1      44.536   3.996   9.138  0.00  0.00    +0.000 A 
ATOM     21  N   UNL     1      45.386   4.625   8.298  0.00  0.00    +0.000 NA
ATOM     22  C   UNL     1      46.295   3.855   7.655  0.00  0.00    +0.000 A 
BRANCH  17  24
ATOM     23  N   UNL     1      48.426   2.494   6.489  0.00  0.00    +0.000 N 
ATOM     24  C   UNL     1      47.402   1.756   7.015  0.00  0.00    +0.000 C 
ATOM     25  O   UNL     1      47.361   0.542   6.876  0.00  0.00    +0.000 OA
ATOM     26  H   UNL     1      49.180   1.967   6.067  0.00  0.00    +0.000 HD
ATOM     27  H   UNL     1      48.634   3.430   6.804  0.00  0.00    +0.000 HD
ENDBRANCH  17  24
ENDBRANCH  16  20
ENDBRANCH  15  16
ENDBRANCH   1  15
TORSDOF 6
ENDMDL
MODEL 2
REMARK VINA RESULT:    -8.158      3.617      7.081
REMARK INTER + INTRA:         -12.060
REMARK INTER:                 -11.137
REMARK INTRA:                  -0.923
REMARK UNBOUND:                -1.040
REMARK  Name = 
REMARK  6 active torsions:
REMARK  status: ('A' for Active; 'I' for Inactive)
REMARK    1  A    between atoms: C_2  and  C_4
REMARK    2  A    between atoms: C_7  and  O_8
REMARK    3  A    between atoms: O_8  and  C_9
REMARK    4  A    between atoms: C_9  and  C_10
REMARK    5  A    between atoms: C_10  and  C_11
REMARK    6  A    between atoms: C_15  and  C_16
REMARK                            x       y       z     vdW  Elec       q    Type
REMARK                         _______ _______ _______ _____ _____    ______ ____
ROOT
ATOM      1  C   UNL     1      44.744   6.829  11.352  0.00  0.00    +0.000 C 
ENDROOT
BRANCH   1   2
ATOM      2  C   UNL     1      44.536   5.378  10.999  0.00  0.00    +0.000 A 
ATOM      3  C   UNL     1      43.668   4.577  11.744  0.00  0.00    +0.000 A 
ATOM      4  C   UNL     1      43.453   3.252  11.372  0.00  0.00    +0.000 A 
ATOM      5  C   UNL     1      44.105   2.717  10.254  0.00  0.00    +0.000 A 
ATOM      6  C   UNL     1      44.998   3.488   9.483  0.00  0.00    +0.000 A 
ATOM      7  C   UNL     1      45.180   4.827   9.880  0.00  0.00    +0.000 A 
ATOM      8  F   UNL     1      46.008   5.626   9.186  0.00  0.00    +0.000 F 
BRANCH   6   9
ATOM      9  C   UNL     1      45.738   2.899   8.340  0.00  0.00    +0.000 A 
ATOM     10  C   UNL     1      46.090   3.662   7.211  0.00  0.00    +0.000 A 
ATOM     11  C   UNL     1      46.865   3.128   6.177  0.00  0.00    +0.000 A 
ATOM     12  C   UNL     1      47.286   1.804   6.233  0.00  0.00    +0.000 A 
ATOM     13  C   UNL     1      46.923   1.014   7.318  0.00  0.00    +0.000 A 
ATOM     14  C   UNL     1      46.161   1.556   8.358  0.00  0.00    +0.000 A 
ENDBRANCH   6   9
ENDBRANCH   1   2
BRANCH   1  15
ATOM     15  C   UNL     1      45.535   6.970  12.650  0.00  0.00    +0.000 C 
BRANCH  15  16
ATOM     16  O   UNL     1      46.777   6.266  12.530  0.00  0.00    +0.000 OA
BRANCH  16  20
ATOM     17  C   UNL     1      47.910   4.505  16.076  0.00  0.00    +0.000 A 
ATOM     18  C   UNL     1      46.925   3.903  15.291  0.00  0.00    +0.000 A 
ATOM     19  C   UNL     1      46.546   4.513  14.095  0.00  0.00    +0.000 A 
ATOM     20  C   UNL     1      47.164   5.700  13.731  0.00  0.00    +0.000 A 
ATOM     21  N   UNL     1      48.103   6.311  14.483  0.00  0.00    +0.000 NA
ATOM     22  C   UNL     1      48.450   5.705  15.643  0.00  0.00    +0.000 A 
BRANCH  17  24
ATOM     23  N   UNL     1      47.517   3.206  18.092  0.00  0.00    +0.000 N 
ATOM     24  C   UNL     1      48.403   3.937  17.349  0.00  0.00    +0.000 C 
ATOM     25  O   UNL     1      49.565   4.073  17.705  0.00  0.00    +0.000 OA
ATOM     26  H   UNL     1      47.905   2.719  18.890  0.00  0.00    +0.000 HD
ATOM     27  H   UNL     1      46.652   2.853  17.709  0.00  0.00    +0.000 HD
ENDBRANCH  17  24
ENDBRANCH  16  20
ENDBRANCH  15  16
ENDBRANCH   1  15
TORSDOF 6
ENDMDL
MODEL 3
REMARK VINA RESULT:    -7.785      1.936      2.731
REMARK INTER + INTRA:         -11.556
REMARK INTER:                 -10.678
REMARK INTRA:                  -0.878
REMARK UNBOUND:                -1.040
REMARK  Name = 
REMARK  6 active torsions:
REMARK  status: ('A' for Active; 'I' for Inactive)
REMARK    1  A    between atoms: C_2  and  C_4
REMARK    2  A    between atoms: C_7  and  O_8
REMARK    3  A    between atoms: O_8  and  C_9
REMARK    4  A    between atoms: C_9  and  C_10
REMARK    5  A    between atoms: C_10  and  C_11
REMARK    6  A    between atoms: C_15  and  C_16
REMARK                            x       y       z     vdW  Elec       q    Type
REMARK                         _______ _______ _______ _____ _____    ______ ____
ROOT
ATOM      1  C   UNL     1      44.502   4.425  12.167  0.00  0.00    +0.000 C 
ENDROOT
BRANCH   1   2
ATOM      2  C   UNL     1      45.221   5.740  12.334  0.00  0.00    +0.000 A 
ATOM      3  C   UNL     1      44.700   6.915  11.788  0.00  0.00    +0.000 A 
ATOM      4  C   UNL     1      45.355   8.127  11.996  0.00  0.00    +0.000 A 
ATOM      5  C   UNL     1      46.535   8.174  12.748  0.00  0.00    +0.000 A 
ATOM      6  C   UNL     1      47.099   7.009  13.305  0.00  0.00    +0.000 A 
ATOM      7  C   UNL     1      46.403   5.804  13.087  0.00  0.00    +0.000 A 
ATOM      8  F   UNL     1      46.876   4.654  13.597  0.00  0.00    +0.000 F 
BRANCH   6   9
ATOM      9  C   UNL     1      48.386   7.052  14.044  0.00  0.00    +0.000 A 
ATOM     10  C   UNL     1      49.525   7.686  13.515  0.00  0.00    +0.000 A 
ATOM     11  C   UNL     1      50.708   7.802  14.251  0.00  0.00    +0.000 A 
ATOM     12  C   UNL     1      50.791   7.262  15.529  0.00  0.00    +0.000 A 
ATOM     13  C   UNL     1      49.693   6.596  16.065  0.00  0.00    +0.000 A 
ATOM     14  C   UNL     1      48.507   6.495  15.332  0.00  0.00    +0.000 A 
ENDBRANCH   6   9
ENDBRANCH   1   2
BRANCH   1  15
ATOM     15  C   UNL     1      43.625   4.434  10.917  0.00  0.00    +0.000 C 
BRANCH  15  16
ATOM     16  O   UNL     1      43.577   3.116  10.359  0.00  0.00    +0.000 OA
BRANCH  16  20
ATOM     17  C   UNL     1      46.487   2.646   7.484  0.00  0.00    +0.000 A 
ATOM     18  C   UNL     1      45.920   3.905   7.691  0.00  0.00    +0.000 A 
ATOM     19  C   UNL     1      44.930   4.050   8.665  0.00  0.00    +0.000 A 
ATOM     20  C   UNL     1      44.546   2.932   9.390  0.00  0.00    +0.000 A 
ATOM     21  N   UNL     1      45.065   1.701   9.193  0.00  0.00    +0.000 NA
ATOM     22  C   UNL     1      46.018   1.584   8.239  0.00  0.00    +0.000 A 
BRANCH  17  24
ATOM     23  N   UNL     1      47.483   3.051   5.304  0.00  0.00    +0.000 N 
ATOM     24  C   UNL     1      47.555   2.383   6.495  0.00  0.00    +0.000 C 
ATOM     25  O   UNL     1      48.490   1.637   6.746  0.00  0.00    +0.000 OA
ATOM     26  H   UNL     1      48.287   2.959   4.695  0.00  0.00    +0.000 HD
ATOM     27  H   UNL     1      46.891   3.859   5.172  0.00  0.00    +0.000 HD
ENDBRANCH  17  24
ENDBRANCH  16  20
ENDBRANCH  15  16
ENDBRANCH   1  15
TORSDOF 6
ENDMDL
MODEL 4
REMARK VINA RESULT:    -7.434      3.161      6.666
REMARK INTER + INTRA:         -11.081
REMARK INTER:                 -10.418
REMARK INTRA:                  -0.664
REMARK UNBOUND:                -1.040
REMARK  Name = 
REMARK  6 active torsions:
REMARK  status: ('A' for Active; 'I' for Inactive)
REMARK    1  A    between atoms: C_2  and  C_4
REMARK    2  A    between atoms: C_7  and  O_8
REMARK    3  A    between atoms: O_8  and  C_9
REMARK    4  A    between atoms: C_9  and  C_10
REMARK    5  A    between atoms: C_10  and  C_11
REMARK    6  A    between atoms: C_15  and  C_16
REMARK                            x       y       z     vdW  Elec       q    Type
REMARK                         _______ _______ _______ _____ _____    ______ ____
ROOT
ATOM      1  C   UNL     1      44.335   6.478  11.622  0.00  0.00    +0.000 C 
ENDROOT
BRANCH   1   2
ATOM      2  C   UNL     1      44.250   5.037  11.189  0.00  0.00    +0.000 A 
ATOM      3  C   UNL     1      43.451   4.126  11.883  0.00  0.00    +0.000 A 
ATOM      4  C   UNL     1      43.349   2.810  11.438  0.00  0.00    +0.000 A 
ATOM      5  C   UNL     1      44.047   2.394  10.297  0.00  0.00    +0.000 A 
ATOM      6  C   UNL     1      44.873   3.278   9.576  0.00  0.00    +0.000 A 
ATOM      7  C   UNL     1      44.940   4.604  10.046  0.00  0.00    +0.000 A 
ATOM      8  F   UNL     1      45.700   5.507   9.404  0.00  0.00    +0.000 F 
BRANCH   6   9
ATOM      9  C   UNL     1      45.663   2.817   8.407  0.00  0.00    +0.000 A 
ATOM     10  C   UNL     1      45.982   3.679   7.341  0.00  0.00    +0.000 A 
ATOM     11  C   UNL     1      46.802   3.266   6.286  0.00  0.00    +0.000 A 
ATOM     12  C   UNL     1      47.303   1.970   6.256  0.00  0.00    +0.000 A 
ATOM     13  C   UNL     1      46.974   1.084   7.277  0.00  0.00    +0.000 A 
ATOM     14  C   UNL     1      46.167   1.504   8.339  0.00  0.00    +0.000 A 
ENDBRANCH   6   9
ENDBRANCH   1   2
BRANCH   1  15
ATOM     15  C   UNL     1      45.209   6.628  12.865  0.00  0.00    +0.000 C 
BRANCH  15  16
ATOM     16  O   UNL     1      45.676   7.978  12.960  0.00  0.00    +0.000 OA
BRANCH  16  20
ATOM     17  C   UNL     1      49.703   8.186  12.127  0.00  0.00    +0.000 A 
ATOM     18  C   UNL     1      49.207   7.108  12.862  0.00  0.00    +0.000 A 
ATOM     19  C   UNL     1      47.840   7.052  13.143  0.00  0.00    +0.000 A 
ATOM     20  C   UNL     1      47.026   8.075  12.680  0.00  0.00    +0.000 A 
ATOM     21  N   UNL     1      47.488   9.137  11.985  0.00  0.00    +0.000 NA
ATOM     22  C   UNL     1      48.817   9.174  11.731  0.00  0.00    +0.000 A 
BRANCH  17  24
ATOM     23  N   UNL     1      51.603   7.524  10.763  0.00  0.00    +0.000 N 
ATOM     24  C   UNL     1      51.127   8.335  11.756  0.00  0.00    +0.000 C 
ATOM     25  O   UNL     1      51.841   9.179  12.278  0.00  0.00    +0.000 OA
ATOM     26  H   UNL     1      52.538   7.729  10.434  0.00  0.00    +0.000 HD
ATOM     27  H   UNL     1      50.991   7.019  10.138  0.00  0.00    +0.000 HD
ENDBRANCH  17  24
ENDBRANCH  16  20
ENDBRANCH  15  16
ENDBRANCH   1  15
TORSDOF 6
ENDMDL
MODEL 5
REMARK VINA RESULT:    -7.359      2.079      2.832
REMARK INTER + INTRA:         -10.980
REMARK INTER:                 -10.477
REMARK INTRA:                  -0.502
REMARK UNBOUND:                -1.040
REMARK  Name = 
REMARK  6 active torsions:
REMARK  status: ('A' for Active; 'I' for Inactive)
REMARK    1  A    between atoms: C_2  and  C_4
REMARK    2  A    between atoms: C_7  and  O_8
REMARK    3  A    between atoms: O_8  and  C_9
REMARK    4  A    between atoms: C_9  and  C_10
REMARK    5  A    between atoms: C_10  and  C_11
REMARK    6  A    between atoms: C_15  and  C_16
REMARK                            x       y       z     vdW  Elec       q    Type
REMARK                         _______ _______ _______ _____ _____    ______ ____
ROOT
ATOM      1  C   UNL     1      43.444   4.949  11.730  0.00  0.00    +0.000 C 
ENDROOT
BRANCH   1   2
ATOM      2  C   UNL     1      44.496   5.972  12.076  0.00  0.00    +0.000 A 
ATOM      3  C   UNL     1      45.670   5.598  12.733  0.00  0.00    +0.000 A 
ATOM      4  C   UNL     1      46.651   6.550  13.000  0.00  0.00    +0.000 A 
ATOM      5  C   UNL     1      46.465   7.884  12.615  0.00  0.00    +0.000 A 
ATOM      6  C   UNL     1      45.290   8.304  11.962  0.00  0.00    +0.000 A 
ATOM      7  C   UNL     1      44.326   7.312  11.695  0.00  0.00    +0.000 A 
ATOM      8  F   UNL     1      43.184   7.637  11.066  0.00  0.00    +0.000 F 
BRANCH   6   9
ATOM      9  C   UNL     1      45.066   9.730  11.616  0.00  0.00    +0.000 A 
ATOM     10  C   UNL     1      46.114  10.669  11.630  0.00  0.00    +0.000 A 
ATOM     11  C   UNL     1      45.919  11.992  11.217  0.00  0.00    +0.000 A 
ATOM     12  C   UNL     1      44.661  12.415  10.804  0.00  0.00    +0.000 A 
ATOM     13  C   UNL     1      43.597  11.519  10.815  0.00  0.00    +0.000 A 
ATOM     14  C   UNL     1      43.799  10.194  11.214  0.00  0.00    +0.000 A 
ENDBRANCH   6   9
ENDBRANCH   1   2
BRANCH   1  15
ATOM     15  C   UNL     1      44.070   3.577  11.490  0.00  0.00    +0.000 C 
BRANCH  15  16
ATOM     16  O   UNL     1      43.548   3.021  10.279  0.00  0.00    +0.000 OA
BRANCH  16  20
ATOM     17  C   UNL     1      46.509   2.607   7.447  0.00  0.00    +0.000 A 
ATOM     18  C   UNL     1      45.966   3.869   7.696  0.00  0.00    +0.000 A 
ATOM     19  C   UNL     1      44.958   3.995   8.655  0.00  0.00    +0.000 A 
ATOM     20  C   UNL     1      44.534   2.856   9.323  0.00  0.00    +0.000 A 
ATOM     21  N   UNL     1      45.030   1.623   9.084  0.00  0.00    +0.000 NA
ATOM     22  C   UNL     1      46.000   1.524   8.146  0.00  0.00    +0.000 A 
BRANCH  17  24
ATOM     23  N   UNL     1      47.543   3.057   5.294  0.00  0.00    +0.000 N 
ATOM     24  C   UNL     1      47.592   2.362   6.470  0.00  0.00    +0.000 C 
ATOM     25  O   UNL     1      48.520   1.605   6.719  0.00  0.00    +0.000 OA
ATOM     26  H   UNL     1      48.357   2.976   4.697  0.00  0.00    +0.000 HD
ATOM     27  H   UNL     1      46.958   3.871   5.171  0.00  0.00    +0.000 HD
ENDBRANCH  17  24
ENDBRANCH  16  20
ENDBRANCH  15  16
ENDBRANCH   1  15
TORSDOF 6
ENDMDL
MODEL 6
REMARK VINA RESULT:    -7.096      3.678      7.362
REMARK INTER + INTRA:         -10.625
REMARK INTER:                 -10.021
REMARK INTRA:                  -0.603
REMARK UNBOUND:                -1.040
REMARK  Name = 
REMARK  6 active torsions:
REMARK  status: ('A' for Active; 'I' for Inactive)
REMARK    1  A    between atoms: C_2  and  C_4
REMARK    2  A    between atoms: C_7  and  O_8
REMARK    3  A    between atoms: O_8  and  C_9
REMARK    4  A    between atoms: C_9  and  C_10
REMARK    5  A    between atoms: C_10  and  C_11
REMARK    6  A    between atoms: C_15  and  C_16
REMARK                            x       y       z     vdW  Elec       q    Type
REMARK                         _______ _______ _______ _____ _____    ______ ____
ROOT
ATOM      1  C   UNL     1      44.640   6.802  11.402  0.00  0.00    +0.000 C 
ENDROOT
BRANCH   1   2
ATOM      2  C   UNL     1      44.458   5.353  11.029  0.00  0.00    +0.000 A 
ATOM      3  C   UNL     1      43.580   4.534  11.742  0.00  0.00    +0.000 A 
ATOM      4  C   UNL     1      43.390   3.211  11.351  0.00  0.00    +0.000 A 
ATOM      5  C   UNL     1      44.077   2.695  10.245  0.00  0.00    +0.000 A 
ATOM      6  C   UNL     1      44.981   3.484   9.507  0.00  0.00    +0.000 A 
ATOM      7  C   UNL     1      45.137   4.821   9.921  0.00  0.00    +0.000 A 
ATOM      8  F   UNL     1      45.974   5.637   9.258  0.00  0.00    +0.000 F 
BRANCH   6   9
ATOM      9  C   UNL     1      45.758   2.916   8.377  0.00  0.00    +0.000 A 
ATOM     10  C   UNL     1      46.173   1.571   8.364  0.00  0.00    +0.000 A 
ATOM     11  C   UNL     1      46.827   1.016   7.260  0.00  0.00    +0.000 A 
ATOM     12  C   UNL     1      47.106   1.801   6.147  0.00  0.00    +0.000 A 
ATOM     13  C   UNL     1      46.741   3.144   6.145  0.00  0.00    +0.000 A 
ATOM     14  C   UNL     1      46.074   3.691   7.245  0.00  0.00    +0.000 A 
ENDBRANCH   6   9
ENDBRANCH   1   2
BRANCH   1  15
ATOM     15  C   UNL     1      45.769   6.970  12.416  0.00  0.00    +0.000 C 
BRANCH  15  16
ATOM     16  O   UNL     1      46.990   7.259  11.725  0.00  0.00    +0.000 OA
BRANCH  16  20
ATOM     17  C   UNL     1      50.168   7.799  14.287  0.00  0.00    +0.000 A 
ATOM     18  C   UNL     1      50.257   8.262  12.973  0.00  0.00    +0.000 A 
ATOM     19  C   UNL     1      49.174   8.067  12.113  0.00  0.00    +0.000 A 
ATOM     20  C   UNL     1      48.050   7.417  12.599  0.00  0.00    +0.000 A 
ATOM     21  N   UNL     1      47.950   6.943  13.859  0.00  0.00    +0.000 NA
ATOM     22  C   UNL     1      49.014   7.137  14.673  0.00  0.00    +0.000 A 
BRANCH  17  24
ATOM     23  N   UNL     1      52.414   7.297  15.068  0.00  0.00    +0.000 N 
ATOM     24  C   UNL     1      51.244   7.968  15.288  0.00  0.00    +0.000 C 
ATOM     25  O   UNL     1      51.114   8.714  16.249  0.00  0.00    +0.000 OA
ATOM     26  H   UNL     1      53.180   7.526  15.690  0.00  0.00    +0.000 HD
ATOM     27  H   UNL     1      52.649   6.900  14.170  0.00  0.00    +0.000 HD
ENDBRANCH  17  24
ENDBRANCH  16  20
ENDBRANCH  15  16
ENDBRANCH   1  15
TORSDOF 6
ENDMDL
MODEL 7
REMARK VINA RESULT:    -6.605      4.198      7.589
REMARK INTER + INTRA:          -9.961
REMARK INTER:                  -8.859
REMARK INTRA:                  -1.103
REMARK UNBOUND:                -1.040
REMARK  Name = 
REMARK  6 active torsions:
REMARK  status: ('A' for Active; 'I' for Inactive)
REMARK    1  A    between atoms: C_2  and  C_4
REMARK    2  A    between atoms: C_7  and  O_8
REMARK    3  A    between atoms: O_8  and  C_9
REMARK    4  A    between atoms: C_9  and  C_10
REMARK    5  A    between atoms: C_10  and  C_11
REMARK    6  A    between atoms: C_15  and  C_16
REMARK                            x       y       z     vdW  Elec       q    Type
REMARK                         _______ _______ _______ _____ _____    ______ ____
ROOT
ATOM      1  C   UNL     1      48.560   8.489  12.891  0.00  0.00    +0.000 C 
ENDROOT
BRANCH   1   2
ATOM      2  C   UNL     1      47.145   8.328  12.398  0.00  0.00    +0.000 A 
ATOM      3  C   UNL     1      46.297   9.432  12.280  0.00  0.00    +0.000 A 
ATOM      4  C   UNL     1      45.009   9.269  11.776  0.00  0.00    +0.000 A 
ATOM      5  C   UNL     1      44.557   8.002  11.389  0.00  0.00    +0.000 A 
ATOM      6  C   UNL     1      45.375   6.861  11.504  0.00  0.00    +0.000 A 
ATOM      7  C   UNL     1      46.676   7.065  12.003  0.00  0.00    +0.000 A 
ATOM      8  F   UNL     1      47.518   6.026  12.131  0.00  0.00    +0.000 F 
BRANCH   6   9
ATOM      9  C   UNL     1      44.870   5.509  11.156  0.00  0.00    +0.000 A 
ATOM     10  C   UNL     1      45.129   4.920   9.905  0.00  0.00    +0.000 A 
ATOM     11  C   UNL     1      44.728   3.612   9.613  0.00  0.00    +0.000 A 
ATOM     12  C   UNL     1      44.033   2.868  10.560  0.00  0.00    +0.000 A 
ATOM     13  C   UNL     1      43.730   3.437  11.792  0.00  0.00    +0.000 A 
ATOM     14  C   UNL     1      44.145   4.739  12.086  0.00  0.00    +0.000 A 
ENDBRANCH   6   9
ENDBRANCH   1   2
BRANCH   1  15
ATOM     15  C   UNL     1      48.616   8.462  14.417  0.00  0.00    +0.000 C 
BRANCH  15  16
ATOM     16  O   UNL     1      49.662   7.581  14.840  0.00  0.00    +0.000 OA
BRANCH  16  20
ATOM     17  C   UNL     1      48.229   4.478  17.137  0.00  0.00    +0.000 A 
ATOM     18  C   UNL     1      49.286   5.256  17.613  0.00  0.00    +0.000 A 
ATOM     19  C   UNL     1      49.766   6.301  16.822  0.00  0.00    +0.000 A 
ATOM     20  C   UNL     1      49.173   6.526  15.588  0.00  0.00    +0.000 A 
ATOM     21  N   UNL     1      48.164   5.774  15.099  0.00  0.00    +0.000 NA
ATOM     22  C   UNL     1      47.720   4.761  15.880  0.00  0.00    +0.000 A 
BRANCH  17  24
ATOM     23  N   UNL     1      48.234   3.008  19.072  0.00  0.00    +0.000 N 
ATOM     24  C   UNL     1      47.629   3.361  17.898  0.00  0.00    +0.000 C 
ATOM     25  O   UNL     1      46.607   2.804  17.521  0.00  0.00    +0.000 OA
ATOM     26  H   UNL     1      47.738   2.333  19.641  0.00  0.00    +0.000 HD
ATOM     27  H   UNL     1      48.900   3.607  19.539  0.00  0.00    +0.000 HD
ENDBRANCH  17  24
ENDBRANCH  16  20
ENDBRANCH  15  16
ENDBRANCH   1  15
TORSDOF 6
ENDMDL
MODEL 8
REMARK VINA RESULT:    -6.465      4.978      7.323
REMARK INTER + INTRA:          -9.772
REMARK INTER:                  -9.202
REMARK INTRA:                  -0.571
REMARK UNBOUND:                -1.040
REMARK  Name = 
REMARK  6 active torsions:
REMARK  status: ('A' for Active; 'I' for Inactive)
REMARK    1  A    between atoms: C_2  and  C_4
REMARK    2  A    between atoms: C_7  and  O_8
REMARK    3  A    between atoms: O_8  and  C_9
REMARK    4  A    between atoms: C_9  and  C_10
REMARK    5  A    between atoms: C_10  and  C_11
REMARK    6  A    between atoms: C_15  and  C_16
REMARK                            x       y       z     vdW  Elec       q    Type
REMARK                         _______ _______ _______ _____ _____    ______ ____
ROOT
ATOM      1  C   UNL     1      48.464   6.736  16.197  0.00  0.00    +0.000 C 
ENDROOT
BRANCH   1   2
ATOM      2  C   UNL     1      48.510   5.358  16.807  0.00  0.00    +0.000 A 
ATOM      3  C   UNL     1      47.334   4.685  17.148  0.00  0.00    +0.000 A 
ATOM      4  C   UNL     1      47.397   3.394  17.666  0.00  0.00    +0.000 A 
ATOM      5  C   UNL     1      48.635   2.765  17.849  0.00  0.00    +0.000 A 
ATOM      6  C   UNL     1      49.844   3.414  17.529  0.00  0.00    +0.000 A 
ATOM      7  C   UNL     1      49.742   4.712  16.995  0.00  0.00    +0.000 A 
ATOM      8  F   UNL     1      50.853   5.389  16.657  0.00  0.00    +0.000 F 
BRANCH   6   9
ATOM      9  C   UNL     1      51.157   2.771  17.788  0.00  0.00    +0.000 A 
ATOM     10  C   UNL     1      51.433   1.455  17.372  0.00  0.00    +0.000 A 
ATOM     11  C   UNL     1      52.699   0.884  17.537  0.00  0.00    +0.000 A 
ATOM     12  C   UNL     1      53.717   1.608  18.148  0.00  0.00    +0.000 A 
ATOM     13  C   UNL     1      53.464   2.898  18.603  0.00  0.00    +0.000 A 
ATOM     14  C   UNL     1      52.201   3.471  18.422  0.00  0.00    +0.000 A 
ENDBRANCH   6   9
ENDBRANCH   1   2
BRANCH   1  15
ATOM     15  C   UNL     1      48.472   6.661  14.672  0.00  0.00    +0.000 C 
BRANCH  15  16
ATOM     16  O   UNL     1      48.039   5.361  14.256  0.00  0.00    +0.000 OA
BRANCH  16  20
ATOM     17  C   UNL     1      44.591   5.563  12.014  0.00  0.00    +0.000 A 
ATOM     18  C   UNL     1      45.658   6.411  11.714  0.00  0.00    +0.000 A 
ATOM     19  C   UNL     1      46.819   6.337  12.486  0.00  0.00    +0.000 A 
ATOM     20  C   UNL     1      46.866   5.420  13.525  0.00  0.00    +0.000 A 
ATOM     21  N   UNL     1      45.840   4.605  13.847  0.00  0.00    +0.000 NA
ATOM     22  C   UNL     1      44.721   4.699  13.089  0.00  0.00    +0.000 A 
BRANCH  17  24
ATOM     23  N   UNL     1      42.264   6.225  11.780  0.00  0.00    +0.000 N 
ATOM     24  C   UNL     1      43.324   5.541  11.252  0.00  0.00    +0.000 C 
ATOM     25  O   UNL     1      43.236   4.977  10.170  0.00  0.00    +0.000 OA
ATOM     26  H   UNL     1      41.449   6.308  11.185  0.00  0.00    +0.000 HD
ATOM     27  H   UNL     1      42.374   6.910  12.514  0.00  0.00    +0.000 HD
ENDBRANCH  17  24
ENDBRANCH  16  20
ENDBRANCH  15  16
ENDBRANCH   1  15
TORSDOF 6
ENDMDL
MODEL 9
REMARK VINA RESULT:    -6.388      3.918      6.322
REMARK INTER + INTRA:          -9.668
REMARK INTER:                  -8.325
REMARK INTRA:                  -1.343
REMARK UNBOUND:                -1.040
REMARK  Name = 
REMARK  6 active torsions:
REMARK  status: ('A' for Active; 'I' for Inactive)
REMARK    1  A    between atoms: C_2  and  C_4
REMARK    2  A    between atoms: C_7  and  O_8
REMARK    3  A    between atoms: O_8  and  C_9
REMARK    4  A    between atoms: C_9  and  C_10
REMARK    5  A    between atoms: C_10  and  C_11
REMARK    6  A    between atoms: C_15  and  C_16
REMARK                            x       y       z     vdW  Elec       q    Type
REMARK                         _______ _______ _______ _____ _____    ______ ____
ROOT
ATOM      1  C   UNL     1      48.509   8.956  14.538  0.00  0.00    +0.000 C 
ENDROOT
BRANCH   1   2
ATOM      2  C   UNL     1      48.548   8.255  15.872  0.00  0.00    +0.000 A 
ATOM      3  C   UNL     1      48.138   8.908  17.037  0.00  0.00    +0.000 A 
ATOM      4  C   UNL     1      48.137   8.227  18.252  0.00  0.00    +0.000 A 
ATOM      5  C   UNL     1      48.547   6.890  18.313  0.00  0.00    +0.000 A 
ATOM      6  C   UNL     1      48.979   6.199  17.164  0.00  0.00    +0.000 A 
ATOM      7  C   UNL     1      48.954   6.914  15.951  0.00  0.00    +0.000 A 
ATOM      8  F   UNL     1      49.342   6.317  14.811  0.00  0.00    +0.000 F 
BRANCH   6   9
ATOM      9  C   UNL     1      49.477   4.803  17.244  0.00  0.00    +0.000 A 
ATOM     10  C   UNL     1      48.646   3.702  16.965  0.00  0.00    +0.000 A 
ATOM     11  C   UNL     1      49.141   2.394  16.954  0.00  0.00    +0.000 A 
ATOM     12  C   UNL     1      50.477   2.151  17.248  0.00  0.00    +0.000 A 
ATOM     13  C   UNL     1      51.315   3.216  17.563  0.00  0.00    +0.000 A 
ATOM     14  C   UNL     1      50.821   4.523  17.559  0.00  0.00    +0.000 A 
ENDBRANCH   6   9
ENDBRANCH   1   2
BRANCH   1  15
ATOM     15  C   UNL     1      47.280   8.536  13.734  0.00  0.00    +0.000 C 
BRANCH  15  16
ATOM     16  O   UNL     1      47.684   7.686  12.655  0.00  0.00    +0.000 OA
BRANCH  16  20
ATOM     17  C   UNL     1      44.955   4.656  12.080  0.00  0.00    +0.000 A 
ATOM     18  C   UNL     1      45.555   4.815  13.331  0.00  0.00    +0.000 A 
ATOM     19  C   UNL     1      46.483   5.842  13.511  0.00  0.00    +0.000 A 
ATOM     20  C   UNL     1      46.775   6.668  12.435  0.00  0.00    +0.000 A 
ATOM     21  N   UNL     1      46.223   6.520  11.212  0.00  0.00    +0.000 NA
ATOM     22  C   UNL     1      45.332   5.513  11.059  0.00  0.00    +0.000 A 
BRANCH  17  24
ATOM     23  N   UNL     1      43.928   2.514  12.590  0.00  0.00    +0.000 N 
ATOM     24  C   UNL     1      43.946   3.617  11.783  0.00  0.00    +0.000 C 
ATOM     25  O   UNL     1      43.128   3.756  10.884  0.00  0.00    +0.000 OA
ATOM     26  H   UNL     1      43.152   1.878  12.455  0.00  0.00    +0.000 HD
ATOM     27  H   UNL     1      44.395   2.491  13.485  0.00  0.00    +0.000 HD
ENDBRANCH  17  24
ENDBRANCH  16  20
ENDBRANCH  15  16
ENDBRANCH   1  15
TORSDOF 6
ENDMDL
