MODEL 1
REMARK VINA RESULT:    -8.879      0.000      0.000
REMARK INTER + INTRA:         -13.298
REMARK INTER:                 -13.291
REMARK INTRA:                  -0.007
REMARK UNBOUND:                -0.007
REMARK  Name = 
REMARK  9 active torsions:
REMARK  status: ('A' for Active; 'I' for Inactive)
REMARK    1  A    between atoms: C_2  and  C_24
REMARK    2  A    between atoms: N_3  and  C_4
REMARK    3  A    between atoms: C_4  and  C_5
REMARK    4  A    between atoms: C_8  and  C_9
REMARK    5  A    between atoms: C_9  and  N_10
REMARK    6  A    between atoms: N_10  and  C_11
REMARK    7  A    between atoms: C_11  and  C_12
REMARK    8  A    between atoms: C_12  and  O_13
REMARK    9  A    between atoms: C_14  and  C_16
REMARK                            x       y       z     vdW  Elec       q    Type
REMARK                         _______ _______ _______ _____ _____    ______ ____
ROOT
ATOM      1  C   UNL     1      46.738   7.835  12.915  0.00  0.00    +0.000 A 
ATOM      2  C   UNL     1      45.537   8.391  12.460  0.00  0.00    +0.000 A 
ATOM      3  C   UNL     1      44.703   7.690  11.577  0.00  0.00    +0.000 A 
ATOM      4  C   UNL     1      45.031   6.395  11.152  0.00  0.00    +0.000 A 
ATOM      5  C   UNL     1      46.283   5.883  11.530  0.00  0.00    +0.000 A 
ATOM      6  C   UNL     1      47.127   6.592  12.402  0.00  0.00    +0.000 A 
ENDROOT
BRANCH   1   7
ATOM      7  C   UNL     1      47.544   8.539  13.980  0.00  0.00    +0.000 C 
BRANCH   7  10
ATOM      8  O   UNL     1      49.948   7.150  14.388  0.00  0.00    +0.000 OA
ATOM      9  C   UNL     1      49.055   7.024  15.226  0.00  0.00    +0.000 C 
ATOM     10  N   UNL     1      47.848   7.664  15.098  0.00  0.00    +0.000 N 
ATOM     11  H   UNL     1      47.184   7.647  15.866  0.00  0.00    +0.000 HD
BRANCH   9  12
ATOM     12  C   UNL     1      49.237   6.135  16.388  0.00  0.00    +0.000 A 
ATOM     13  C   UNL     1      50.214   6.446  17.328  0.00  0.00    +0.000 A 
ATOM     14  S   UNL     1      50.293   5.351  18.631  0.00  0.00    +0.000 S 
ATOM     15  C   UNL     1      48.998   4.437  18.016  0.00  0.00    +0.000 A 
ATOM     16  N   UNL     1      48.519   3.364  18.690  0.00  0.00    +0.000 NA
ATOM     17  C   UNL     1      47.511   2.783  18.127  0.00  0.00    +0.000 A 
ATOM     18  N   UNL     1      46.962   3.166  16.931  0.00  0.00    +0.000 N 
ATOM     19  C   UNL     1      47.465   4.201  16.173  0.00  0.00    +0.000 A 
ATOM     20  O   UNL     1      47.036   4.432  15.051  0.00  0.00    +0.000 OA
ATOM     21  C   UNL     1      48.548   4.934  16.796  0.00  0.00    +0.000 A 
ATOM     22  H   UNL     1      46.201   2.648  16.525  0.00  0.00    +0.000 HD
ENDBRANCH   9  12
ENDBRANCH   7  10
ENDBRANCH   1   7
BRANCH   4  23
ATOM     23  C   UNL     1      43.973   5.512  10.506  0.00  0.00    +0.000 C 
BRANCH  23  24
ATOM     24  N   UNL     1      44.392   4.243   9.898  0.00  0.00    +0.000 N 
ATOM     25  C   UNL     1      45.319   4.324   8.833  0.00  0.00    +0.000 C 
ATOM     26  O   UNL     1      45.766   5.400   8.432  0.00  0.00    +0.000 OA
BRANCH  25  27
ATOM     27  C   UNL     1      45.887   3.085   8.199  0.00  0.00    +0.000 A 
ATOM     28  C   UNL     1      45.569   1.785   8.608  0.00  0.00    +0.000 A 
ATOM     29  C   UNL     1      46.247   0.682   8.083  0.00  0.00    +0.000 A 
ATOM     30  C   UNL     1      47.171   0.856   7.058  0.00  0.00    +0.000 A 
ATOM     31  C   UNL     1      47.412   2.133   6.555  0.00  0.00    +0.000 A 
ATOM     32  C   UNL     1      46.785   3.243   7.131  0.00  0.00    +0.000 A 
ENDBRANCH  25  27
BRANCH  24  33
ATOM     33  C   UNL     1      44.137   2.963  10.596  0.00  0.00    +0.000 C 
BRANCH  33  34
ATOM     34  C   UNL     1      44.021   2.884  12.118  0.00  0.00    +0.000 C 
BRANCH  34  35
ATOM     35  O   UNL     1      45.315   2.825  12.705  0.00  0.00    +0.000 OA
ATOM     36  H   UNL     1      45.558   3.727  12.970  0.00  0.00    +0.000 HD
ENDBRANCH  34  35
ENDBRANCH  33  34
ENDBRANCH  24  33
ENDBRANCH  23  24
ENDBRANCH   4  23
TORSDOF 9
ENDMDL
MODEL 2
REMARK VINA RESULT:    -8.764      1.699      2.094
REMARK INTER + INTRA:         -13.126
REMARK INTER:                 -13.179
REMARK INTRA:                   0.053
REMARK UNBOUND:                -0.007
REMARK  Name = 
REMARK  9 active torsions:
REMARK  status: ('A' for Active; 'I' for Inactive)
REMARK    1  A    between atoms: C_2  and  C_24
REMARK    2  A    between atoms: N_3  and  C_4
REMARK    3  A    between atoms: C_4  and  C_5
REMARK    4  A    between atoms: C_8  and  C_9
REMARK    5  A    between atoms: C_9  and  N_10
REMARK    6  A    between atoms: N_10  and  C_11
REMARK    7  A    between atoms: C_11  and  C_12
REMARK    8  A    between atoms: C_12  and  O_13
REMARK    9  A    between atoms: C_14  and  C_16
REMARK                            x       y       z     vdW  Elec       q    Type
REMARK                         _______ _______ _______ _____ _____    ______ ____
ROOT
ATOM      1  C   UNL     1      47.294   6.620  13.278  0.00  0.00    +0.000 A 
ATOM      2  C   UNL     1      46.778   5.321  13.348  0.00  0.00    +0.000 A 
ATOM      3  C   UNL     1      45.658   4.944  12.593  0.00  0.00    +0.000 A 
ATOM      4  C   UNL     1      45.043   5.850  11.717  0.00  0.00    +0.000 A 
ATOM      5  C   UNL     1      45.501   7.178  11.725  0.00  0.00    +0.000 A 
ATOM      6  C   UNL     1      46.614   7.560  12.494  0.00  0.00    +0.000 A 
ENDROOT
BRANCH   1   7
ATOM      7  C   UNL     1      48.586   6.961  13.979  0.00  0.00    +0.000 C 
BRANCH   7  10
ATOM      8  O   UNL     1      50.383   6.169  15.982  0.00  0.00    +0.000 OA
ATOM      9  C   UNL     1      49.336   6.717  16.326  0.00  0.00    +0.000 C 
ATOM     10  N   UNL     1      48.402   7.130  15.409  0.00  0.00    +0.000 N 
ATOM     11  H   UNL     1      47.614   7.694  15.711  0.00  0.00    +0.000 HD
BRANCH   9  12
ATOM     12  C   UNL     1      49.024   6.912  17.754  0.00  0.00    +0.000 A 
ATOM     13  C   UNL     1      48.765   8.197  18.217  0.00  0.00    +0.000 A 
ATOM     14  S   UNL     1      48.391   8.270  19.878  0.00  0.00    +0.000 S 
ATOM     15  C   UNL     1      48.520   6.582  20.040  0.00  0.00    +0.000 A 
ATOM     16  N   UNL     1      48.267   5.974  21.224  0.00  0.00    +0.000 NA
ATOM     17  C   UNL     1      48.368   4.686  21.197  0.00  0.00    +0.000 A 
ATOM     18  N   UNL     1      48.731   3.958  20.092  0.00  0.00    +0.000 N 
ATOM     19  C   UNL     1      49.071   4.539  18.891  0.00  0.00    +0.000 A 
ATOM     20  O   UNL     1      49.516   3.872  17.967  0.00  0.00    +0.000 OA
ATOM     21  C   UNL     1      48.901   5.977  18.846  0.00  0.00    +0.000 A 
ATOM     22  H   UNL     1      48.828   2.958  20.145  0.00  0.00    +0.000 HD
ENDBRANCH   9  12
ENDBRANCH   7  10
ENDBRANCH   1   7
BRANCH   4  23
ATOM     23  C   UNL     1      44.083   5.347  10.648  0.00  0.00    +0.000 C 
BRANCH  23  24
ATOM     24  N   UNL     1      44.469   4.174   9.853  0.00  0.00    +0.000 N 
ATOM     25  C   UNL     1      45.448   4.379   8.853  0.00  0.00    +0.000 C 
ATOM     26  O   UNL     1      45.965   5.480   8.655  0.00  0.00    +0.000 OA
BRANCH  25  27
ATOM     27  C   UNL     1      45.985   3.232   8.042  0.00  0.00    +0.000 A 
ATOM     28  C   UNL     1      45.971   1.901   8.473  0.00  0.00    +0.000 A 
ATOM     29  C   UNL     1      46.624   0.904   7.743  0.00  0.00    +0.000 A 
ATOM     30  C   UNL     1      47.201   1.207   6.514  0.00  0.00    +0.000 A 
ATOM     31  C   UNL     1      47.119   2.504   6.013  0.00  0.00    +0.000 A 
ATOM     32  C   UNL     1      46.527   3.515   6.779  0.00  0.00    +0.000 A 
ENDBRANCH  25  27
BRANCH  24  33
ATOM     33  C   UNL     1      44.120   2.813  10.316  0.00  0.00    +0.000 C 
BRANCH  33  34
ATOM     34  C   UNL     1      43.179   2.580  11.498  0.00  0.00    +0.000 C 
BRANCH  34  35
ATOM     35  O   UNL     1      43.919   2.151  12.635  0.00  0.00    +0.000 OA
ATOM     36  H   UNL     1      44.148   1.217  12.499  0.00  0.00    +0.000 HD
ENDBRANCH  34  35
ENDBRANCH  33  34
ENDBRANCH  24  33
ENDBRANCH  23  24
ENDBRANCH   4  23
TORSDOF 9
ENDMDL
MODEL 3
REMARK VINA RESULT:    -8.690      2.240      2.776
REMARK INTER + INTRA:         -13.015
REMARK INTER:                 -13.041
REMARK INTRA:                   0.026
REMARK UNBOUND:                -0.007
REMARK  Name = 
REMARK  9 active torsions:
REMARK  status: ('A' for Active; 'I' for Inactive)
REMARK    1  A    between atoms: C_2  and  C_24
REMARK    2  A    between atoms: N_3  and  C_4
REMARK    3  A    between atoms: C_4  and  C_5
REMARK    4  A    between atoms: C_8  and  C_9
REMARK    5  A    between atoms: C_9  and  N_10
REMARK    6  A    between atoms: N_10  and  C_11
REMARK    7  A    between atoms: C_11  and  C_12
REMARK    8  A    between atoms: C_12  and  O_13
REMARK    9  A    between atoms: C_14  and  C_16
REMARK                            x       y       z     vdW  Elec       q    Type
REMARK                         _______ _______ _______ _____ _____    ______ ____
ROOT
ATOM      1  C   UNL     1      47.172   6.345  13.501  0.00  0.00    +0.000 A 
ATOM      2  C   UNL     1      46.438   5.160  13.626  0.00  0.00    +0.000 A 
ATOM      3  C   UNL     1      45.344   4.893  12.790  0.00  0.00    +0.000 A 
ATOM      4  C   UNL     1      44.975   5.792  11.779  0.00  0.00    +0.000 A 
ATOM      5  C   UNL     1      45.650   7.023  11.723  0.00  0.00    +0.000 A 
ATOM      6  C   UNL     1      46.735   7.297  12.572  0.00  0.00    +0.000 A 
ENDROOT
BRANCH   1   7
ATOM      7  C   UNL     1      48.434   6.544  14.304  0.00  0.00    +0.000 C 
BRANCH   7  10
ATOM      8  O   UNL     1      50.294   5.857  16.290  0.00  0.00    +0.000 OA
ATOM      9  C   UNL     1      49.152   6.155  16.642  0.00  0.00    +0.000 C 
ATOM     10  N   UNL     1      48.183   6.498  15.734  0.00  0.00    +0.000 N 
ATOM     11  H   UNL     1      47.294   6.864  16.059  0.00  0.00    +0.000 HD
BRANCH   9  12
ATOM     12  C   UNL     1      48.771   6.112  18.065  0.00  0.00    +0.000 A 
ATOM     13  C   UNL     1      48.988   4.943  18.786  0.00  0.00    +0.000 A 
ATOM     14  S   UNL     1      48.529   5.045  20.423  0.00  0.00    +0.000 S 
ATOM     15  C   UNL     1      48.058   6.670  20.250  0.00  0.00    +0.000 A 
ATOM     16  N   UNL     1      47.607   7.383  21.310  0.00  0.00    +0.000 NA
ATOM     17  C   UNL     1      47.317   8.613  21.044  0.00  0.00    +0.000 A 
ATOM     18  N   UNL     1      47.412   9.182  19.800  0.00  0.00    +0.000 N 
ATOM     19  C   UNL     1      47.790   8.476  18.680  0.00  0.00    +0.000 A 
ATOM     20  O   UNL     1      47.736   8.978  17.565  0.00  0.00    +0.000 OA
ATOM     21  C   UNL     1      48.198   7.110  18.937  0.00  0.00    +0.000 A 
ATOM     22  H   UNL     1      47.134  10.138  19.650  0.00  0.00    +0.000 HD
ENDBRANCH   9  12
ENDBRANCH   7  10
ENDBRANCH   1   7
BRANCH   4  23
ATOM     23  C   UNL     1      44.045   5.344  10.660  0.00  0.00    +0.000 C 
BRANCH  23  24
ATOM     24  N   UNL     1      44.426   4.176   9.855  0.00  0.00    +0.000 N 
ATOM     25  C   UNL     1      45.441   4.373   8.890  0.00  0.00    +0.000 C 
ATOM     26  O   UNL     1      45.991   5.463   8.729  0.00  0.00    +0.000 OA
BRANCH  25  27
ATOM     27  C   UNL     1      45.973   3.227   8.075  0.00  0.00    +0.000 A 
ATOM     28  C   UNL     1      45.958   1.895   8.503  0.00  0.00    +0.000 A 
ATOM     29  C   UNL     1      46.607   0.899   7.769  0.00  0.00    +0.000 A 
ATOM     30  C   UNL     1      47.182   1.203   6.539  0.00  0.00    +0.000 A 
ATOM     31  C   UNL     1      47.101   2.502   6.042  0.00  0.00    +0.000 A 
ATOM     32  C   UNL     1      46.513   3.512   6.811  0.00  0.00    +0.000 A 
ENDBRANCH  25  27
BRANCH  24  33
ATOM     33  C   UNL     1      44.029   2.816  10.282  0.00  0.00    +0.000 C 
BRANCH  33  34
ATOM     34  C   UNL     1      43.321   2.563  11.614  0.00  0.00    +0.000 C 
BRANCH  34  35
ATOM     35  O   UNL     1      42.908   1.205  11.699  0.00  0.00    +0.000 OA
ATOM     36  H   UNL     1      43.269   0.841  12.525  0.00  0.00    +0.000 HD
ENDBRANCH  34  35
ENDBRANCH  33  34
ENDBRANCH  24  33
ENDBRANCH  23  24
ENDBRANCH   4  23
TORSDOF 9
ENDMDL
MODEL 4
REMARK VINA RESULT:    -7.572      3.241      8.292
REMARK INTER + INTRA:         -11.342
REMARK INTER:                 -10.243
REMARK INTRA:                  -1.099
REMARK UNBOUND:                -0.007
REMARK  Name = 
REMARK  9 active torsions:
REMARK  status: ('A' for Active; 'I' for Inactive)
REMARK    1  A    between atoms: C_2  and  C_24
REMARK    2  A    between atoms: N_3  and  C_4
REMARK    3  A    between atoms: C_4  and  C_5
REMARK    4  A    between atoms: C_8  and  C_9
REMARK    5  A    between atoms: C_9  and  N_10
REMARK    6  A    between atoms: N_10  and  C_11
REMARK    7  A    between atoms: C_11  and  C_12
REMARK    8  A    between atoms: C_12  and  O_13
REMARK    9  A    between atoms: C_14  and  C_16
REMARK                            x       y       z     vdW  Elec       q    Type
REMARK                         _______ _______ _______ _____ _____    ______ ____
ROOT
ATOM      1  C   UNL     1      48.345   7.713  13.846  0.00  0.00    +0.000 A 
ATOM      2  C   UNL     1      48.871   8.709  14.675  0.00  0.00    +0.000 A 
ATOM      3  C   UNL     1      49.212   8.437  16.008  0.00  0.00    +0.000 A 
ATOM      4  C   UNL     1      49.071   7.146  16.538  0.00  0.00    +0.000 A 
ATOM      5  C   UNL     1      48.451   6.176  15.733  0.00  0.00    +0.000 A 
ATOM      6  C   UNL     1      48.094   6.453  14.403  0.00  0.00    +0.000 A 
ENDROOT
BRANCH   1   7
ATOM      7  C   UNL     1      48.128   7.985  12.377  0.00  0.00    +0.000 C 
BRANCH   7  10
ATOM      8  O   UNL     1      45.396   7.866  11.750  0.00  0.00    +0.000 OA
ATOM      9  C   UNL     1      46.106   6.909  11.438  0.00  0.00    +0.000 C 
ATOM     10  N   UNL     1      47.449   6.886  11.714  0.00  0.00    +0.000 N 
ATOM     11  H   UNL     1      48.031   6.148  11.330  0.00  0.00    +0.000 HD
BRANCH   9  12
ATOM     12  C   UNL     1      45.521   5.721  10.790  0.00  0.00    +0.000 A 
ATOM     13  C   UNL     1      45.778   5.493   9.443  0.00  0.00    +0.000 A 
ATOM     14  S   UNL     1      45.065   4.070   8.834  0.00  0.00    +0.000 S 
ATOM     15  C   UNL     1      44.416   3.676  10.355  0.00  0.00    +0.000 A 
ATOM     16  N   UNL     1      43.720   2.529  10.540  0.00  0.00    +0.000 NA
ATOM     17  C   UNL     1      43.314   2.338  11.752  0.00  0.00    +0.000 A 
ATOM     18  N   UNL     1      43.521   3.213  12.788  0.00  0.00    +0.000 N 
ATOM     19  C   UNL     1      44.155   4.424  12.629  0.00  0.00    +0.000 A 
ATOM     20  O   UNL     1      44.206   5.238  13.542  0.00  0.00    +0.000 OA
ATOM     21  C   UNL     1      44.696   4.654  11.305  0.00  0.00    +0.000 A 
ATOM     22  H   UNL     1      43.146   3.024  13.703  0.00  0.00    +0.000 HD
ENDBRANCH   9  12
ENDBRANCH   7  10
ENDBRANCH   1   7
BRANCH   4  23
ATOM     23  C   UNL     1      49.771   6.773  17.837  0.00  0.00    +0.000 C 
BRANCH  23  24
ATOM     24  N   UNL     1      50.123   5.366  18.066  0.00  0.00    +0.000 N 
ATOM     25  C   UNL     1      51.357   4.924  17.534  0.00  0.00    +0.000 C 
ATOM     26  O   UNL     1      52.111   5.675  16.915  0.00  0.00    +0.000 OA
BRANCH  25  27
ATOM     27  C   UNL     1      51.860   3.530  17.788  0.00  0.00    +0.000 A 
ATOM     28  C   UNL     1      53.034   3.242  18.492  0.00  0.00    +0.000 A 
ATOM     29  C   UNL     1      53.528   1.937  18.560  0.00  0.00    +0.000 A 
ATOM     30  C   UNL     1      52.792   0.886  18.022  0.00  0.00    +0.000 A 
ATOM     31  C   UNL     1      51.561   1.141  17.422  0.00  0.00    +0.000 A 
ATOM     32  C   UNL     1      51.103   2.456  17.293  0.00  0.00    +0.000 A 
ENDBRANCH  25  27
BRANCH  24  33
ATOM     33  C   UNL     1      49.404   4.576  19.091  0.00  0.00    +0.000 C 
BRANCH  33  34
ATOM     34  C   UNL     1      48.138   3.786  18.757  0.00  0.00    +0.000 C 
BRANCH  34  35
ATOM     35  O   UNL     1      47.035   4.670  18.605  0.00  0.00    +0.000 OA
ATOM     36  H   UNL     1      46.504   4.617  19.417  0.00  0.00    +0.000 HD
ENDBRANCH  34  35
ENDBRANCH  33  34
ENDBRANCH  24  33
ENDBRANCH  23  24
ENDBRANCH   4  23
TORSDOF 9
ENDMDL
MODEL 5
REMARK VINA RESULT:    -7.310      3.136      8.676
REMARK INTER + INTRA:         -10.950
REMARK INTER:                  -9.786
REMARK INTRA:                  -1.164
REMARK UNBOUND:                -0.007
REMARK  Name = 
REMARK  9 active torsions:
REMARK  status: ('A' for Active; 'I' for Inactive)
REMARK    1  A    between atoms: C_2  and  C_24
REMARK    2  A    between atoms: N_3  and  C_4
REMARK    3  A    between atoms: C_4  and  C_5
REMARK    4  A    between atoms: C_8  and  C_9
REMARK    5  A    between atoms: C_9  and  N_10
REMARK    6  A    between atoms: N_10  and  C_11
REMARK    7  A    between atoms: C_11  and  C_12
REMARK    8  A    between atoms: C_12  and  O_13
REMARK    9  A    between atoms: C_14  and  C_16
REMARK                            x       y       z     vdW  Elec       q    Type
REMARK                         _______ _______ _______ _____ _____    ______ ____
ROOT
ATOM      1  C   UNL     1      47.947   7.489  14.048  0.00  0.00    +0.000 A 
ATOM      2  C   UNL     1      48.489   8.583  14.732  0.00  0.00    +0.000 A 
ATOM      3  C   UNL     1      49.047   8.434  16.010  0.00  0.00    +0.000 A 
ATOM      4  C   UNL     1      49.111   7.176  16.626  0.00  0.00    +0.000 A 
ATOM      5  C   UNL     1      48.476   6.102  15.980  0.00  0.00    +0.000 A 
ATOM      6  C   UNL     1      47.903   6.254  14.707  0.00  0.00    +0.000 A 
ENDROOT
BRANCH   1   7
ATOM      7  C   UNL     1      47.492   7.639  12.617  0.00  0.00    +0.000 C 
BRANCH   7  10
ATOM      8  O   UNL     1      44.724   7.191  12.533  0.00  0.00    +0.000 OA
ATOM      9  C   UNL     1      45.468   6.304  12.115  0.00  0.00    +0.000 C 
ATOM     10  N   UNL     1      46.833   6.441  12.127  0.00  0.00    +0.000 N 
ATOM     11  H   UNL     1      47.414   5.753  11.658  0.00  0.00    +0.000 HD
BRANCH   9  12
ATOM     12  C   UNL     1      44.914   5.029  11.624  0.00  0.00    +0.000 A 
ATOM     13  C   UNL     1      44.151   4.249  12.486  0.00  0.00    +0.000 A 
ATOM     14  S   UNL     1      43.551   2.820  11.777  0.00  0.00    +0.000 S 
ATOM     15  C   UNL     1      44.251   3.204  10.275  0.00  0.00    +0.000 A 
ATOM     16  N   UNL     1      44.072   2.403   9.197  0.00  0.00    +0.000 NA
ATOM     17  C   UNL     1      44.629   2.831   8.112  0.00  0.00    +0.000 A 
ATOM     18  N   UNL     1      45.375   3.978   8.023  0.00  0.00    +0.000 N 
ATOM     19  C   UNL     1      45.648   4.781   9.108  0.00  0.00    +0.000 A 
ATOM     20  O   UNL     1      46.425   5.722   9.022  0.00  0.00    +0.000 OA
ATOM     21  C   UNL     1      44.983   4.386  10.333  0.00  0.00    +0.000 A 
ATOM     22  H   UNL     1      45.815   4.238   7.156  0.00  0.00    +0.000 HD
ENDBRANCH   9  12
ENDBRANCH   7  10
ENDBRANCH   1   7
BRANCH   4  23
ATOM     23  C   UNL     1      50.026   6.957  17.822  0.00  0.00    +0.000 C 
BRANCH  23  24
ATOM     24  N   UNL     1      50.412   5.583  18.169  0.00  0.00    +0.000 N 
ATOM     25  C   UNL     1      51.452   5.003  17.406  0.00  0.00    +0.000 C 
ATOM     26  O   UNL     1      52.020   5.613  16.500  0.00  0.00    +0.000 OA
BRANCH  25  27
ATOM     27  C   UNL     1      51.990   3.638  17.734  0.00  0.00    +0.000 A 
ATOM     28  C   UNL     1      53.205   3.417  18.393  0.00  0.00    +0.000 A 
ATOM     29  C   UNL     1      53.723   2.127  18.530  0.00  0.00    +0.000 A 
ATOM     30  C   UNL     1      52.976   1.030  18.111  0.00  0.00    +0.000 A 
ATOM     31  C   UNL     1      51.710   1.225  17.562  0.00  0.00    +0.000 A 
ATOM     32  C   UNL     1      51.225   2.521  17.361  0.00  0.00    +0.000 A 
ENDBRANCH  25  27
BRANCH  24  33
ATOM     33  C   UNL     1      49.986   4.993  19.458  0.00  0.00    +0.000 C 
BRANCH  33  34
ATOM     34  C   UNL     1      48.544   4.549  19.704  0.00  0.00    +0.000 C 
BRANCH  34  35
ATOM     35  O   UNL     1      48.443   3.135  19.604  0.00  0.00    +0.000 OA
ATOM     36  H   UNL     1      48.051   2.930  18.739  0.00  0.00    +0.000 HD
ENDBRANCH  34  35
ENDBRANCH  33  34
ENDBRANCH  24  33
ENDBRANCH  23  24
ENDBRANCH   4  23
TORSDOF 9
ENDMDL
MODEL 6
REMARK VINA RESULT:    -7.263      2.880      9.109
REMARK INTER + INTRA:         -10.880
REMARK INTER:                  -9.594
REMARK INTRA:                  -1.285
REMARK UNBOUND:                -0.007
REMARK  Name = 
REMARK  9 active torsions:
REMARK  status: ('A' for Active; 'I' for Inactive)
REMARK    1  A    between atoms: C_2  and  C_24
REMARK    2  A    between atoms: N_3  and  C_4
REMARK    3  A    between atoms: C_4  and  C_5
REMARK    4  A    between atoms: C_8  and  C_9
REMARK    5  A    between atoms: C_9  and  N_10
REMARK    6  A    between atoms: N_10  and  C_11
REMARK    7  A    between atoms: C_11  and  C_12
REMARK    8  A    between atoms: C_12  and  O_13
REMARK    9  A    between atoms: C_14  and  C_16
REMARK                            x       y       z     vdW  Elec       q    Type
REMARK                         _______ _______ _______ _____ _____    ______ ____
ROOT
ATOM      1  C   UNL     1      48.325   8.383  13.192  0.00  0.00    +0.000 A 
ATOM      2  C   UNL     1      49.576   7.777  13.031  0.00  0.00    +0.000 A 
ATOM      3  C   UNL     1      50.475   7.676  14.102  0.00  0.00    +0.000 A 
ATOM      4  C   UNL     1      50.132   8.146  15.378  0.00  0.00    +0.000 A 
ATOM      5  C   UNL     1      48.919   8.842  15.510  0.00  0.00    +0.000 A 
ATOM      6  C   UNL     1      48.024   8.958  14.433  0.00  0.00    +0.000 A 
ENDROOT
BRANCH   1   7
ATOM      7  C   UNL     1      47.314   8.346  12.072  0.00  0.00    +0.000 C 
BRANCH   7  10
ATOM      8  O   UNL     1      44.642   7.827  11.392  0.00  0.00    +0.000 OA
ATOM      9  C   UNL     1      45.388   6.867  11.589  0.00  0.00    +0.000 C 
ATOM     10  N   UNL     1      46.706   7.035  11.930  0.00  0.00    +0.000 N 
ATOM     11  H   UNL     1      47.327   6.232  11.957  0.00  0.00    +0.000 HD
BRANCH   9  12
ATOM     12  C   UNL     1      44.874   5.488  11.506  0.00  0.00    +0.000 A 
ATOM     13  C   UNL     1      44.196   4.955  12.597  0.00  0.00    +0.000 A 
ATOM     14  S   UNL     1      43.632   3.366  12.351  0.00  0.00    +0.000 S 
ATOM     15  C   UNL     1      44.234   3.337  10.761  0.00  0.00    +0.000 A 
ATOM     16  N   UNL     1      44.040   2.261   9.961  0.00  0.00    +0.000 NA
ATOM     17  C   UNL     1      44.518   2.387   8.768  0.00  0.00    +0.000 A 
ATOM     18  N   UNL     1      45.201   3.487   8.317  0.00  0.00    +0.000 N 
ATOM     19  C   UNL     1      45.488   4.570   9.116  0.00  0.00    +0.000 A 
ATOM     20  O   UNL     1      46.212   5.476   8.724  0.00  0.00    +0.000 OA
ATOM     21  C   UNL     1      44.909   4.512  10.443  0.00  0.00    +0.000 A 
ATOM     22  H   UNL     1      45.583   3.509   7.385  0.00  0.00    +0.000 HD
ENDBRANCH   9  12
ENDBRANCH   7  10
ENDBRANCH   1   7
BRANCH   4  23
ATOM     23  C   UNL     1      50.937   7.713  16.594  0.00  0.00    +0.000 C 
BRANCH  23  24
ATOM     24  N   UNL     1      50.300   6.832  17.582  0.00  0.00    +0.000 N 
ATOM     25  C   UNL     1      49.952   7.416  18.822  0.00  0.00    +0.000 C 
ATOM     26  O   UNL     1      50.160   8.604  19.070  0.00  0.00    +0.000 OA
BRANCH  25  27
ATOM     27  C   UNL     1      49.212   6.632  19.871  0.00  0.00    +0.000 A 
ATOM     28  C   UNL     1      47.836   6.743  20.099  0.00  0.00    +0.000 A 
ATOM     29  C   UNL     1      47.237   6.105  21.188  0.00  0.00    +0.000 A 
ATOM     30  C   UNL     1      47.986   5.255  21.996  0.00  0.00    +0.000 A 
ATOM     31  C   UNL     1      49.332   5.040  21.710  0.00  0.00    +0.000 A 
ATOM     32  C   UNL     1      49.946   5.735  20.663  0.00  0.00    +0.000 A 
ENDBRANCH  25  27
BRANCH  24  33
ATOM     33  C   UNL     1      49.739   5.528  17.164  0.00  0.00    +0.000 C 
BRANCH  33  34
ATOM     34  C   UNL     1      48.290   5.385  16.699  0.00  0.00    +0.000 C 
BRANCH  34  35
ATOM     35  O   UNL     1      48.244   5.192  15.291  0.00  0.00    +0.000 OA
ATOM     36  H   UNL     1      47.641   5.860  14.924  0.00  0.00    +0.000 HD
ENDBRANCH  34  35
ENDBRANCH  33  34
ENDBRANCH  24  33
ENDBRANCH  23  24
ENDBRANCH   4  23
TORSDOF 9
ENDMDL
MODEL 7
REMARK VINA RESULT:    -7.261      3.887      9.670
REMARK INTER + INTRA:         -10.876
REMARK INTER:                  -9.483
REMARK INTRA:                  -1.393
REMARK UNBOUND:                -0.007
REMARK  Name = 
REMARK  9 active torsions:
REMARK  status: ('A' for Active; 'I' for Inactive)
REMARK    1  A    between atoms: C_2  and  C_24
REMARK    2  A    between atoms: N_3  and  C_4
REMARK    3  A    between atoms: C_4  and  C_5
REMARK    4  A    between atoms: C_8  and  C_9
REMARK    5  A    between atoms: C_9  and  N_10
REMARK    6  A    between atoms: N_10  and  C_11
REMARK    7  A    between atoms: C_11  and  C_12
REMARK    8  A    between atoms: C_12  and  O_13
REMARK    9  A    between atoms: C_14  and  C_16
REMARK                            x       y       z     vdW  Elec       q    Type
REMARK                         _______ _______ _______ _____ _____    ______ ____
ROOT
ATOM      1  C   UNL     1      48.154   8.113  13.493  0.00  0.00    +0.000 A 
ATOM      2  C   UNL     1      48.496   6.874  14.047  0.00  0.00    +0.000 A 
ATOM      3  C   UNL     1      49.097   6.786  15.310  0.00  0.00    +0.000 A 
ATOM      4  C   UNL     1      49.341   7.937  16.074  0.00  0.00    +0.000 A 
ATOM      5  C   UNL     1      49.089   9.182  15.473  0.00  0.00    +0.000 A 
ATOM      6  C   UNL     1      48.501   9.271  14.200  0.00  0.00    +0.000 A 
ENDROOT
BRANCH   1   7
ATOM      7  C   UNL     1      47.372   8.178  12.204  0.00  0.00    +0.000 C 
BRANCH   7  10
ATOM      8  O   UNL     1      44.721   7.445  12.761  0.00  0.00    +0.000 OA
ATOM      9  C   UNL     1      45.440   6.628  12.185  0.00  0.00    +0.000 C 
ATOM     10  N   UNL     1      46.749   6.906  11.881  0.00  0.00    +0.000 N 
ATOM     11  H   UNL     1      47.276   6.269  11.292  0.00  0.00    +0.000 HD
BRANCH   9  12
ATOM     12  C   UNL     1      44.926   5.291  11.836  0.00  0.00    +0.000 A 
ATOM     13  C   UNL     1      44.236   4.563  12.798  0.00  0.00    +0.000 A 
ATOM     14  S   UNL     1      43.675   3.050  12.250  0.00  0.00    +0.000 S 
ATOM     15  C   UNL     1      44.295   3.322  10.690  0.00  0.00    +0.000 A 
ATOM     16  N   UNL     1      44.111   2.417   9.698  0.00  0.00    +0.000 NA
ATOM     17  C   UNL     1      44.604   2.766   8.556  0.00  0.00    +0.000 A 
ATOM     18  N   UNL     1      45.292   3.930   8.330  0.00  0.00    +0.000 N 
ATOM     19  C   UNL     1      45.570   4.842   9.323  0.00  0.00    +0.000 A 
ATOM     20  O   UNL     1      46.298   5.803   9.118  0.00  0.00    +0.000 OA
ATOM     21  C   UNL     1      44.974   4.534  10.608  0.00  0.00    +0.000 A 
ATOM     22  H   UNL     1      45.685   4.127   7.424  0.00  0.00    +0.000 HD
ENDBRANCH   9  12
ENDBRANCH   7  10
ENDBRANCH   1   7
BRANCH   4  23
ATOM     23  C   UNL     1      49.644   7.818  17.560  0.00  0.00    +0.000 C 
BRANCH  23  24
ATOM     24  N   UNL     1      48.575   8.121  18.522  0.00  0.00    +0.000 N 
ATOM     25  C   UNL     1      48.665   9.356  19.204  0.00  0.00    +0.000 C 
ATOM     26  O   UNL     1      49.584  10.152  19.003  0.00  0.00    +0.000 OA
BRANCH  25  27
ATOM     27  C   UNL     1      47.579   9.809  20.140  0.00  0.00    +0.000 A 
ATOM     28  C   UNL     1      47.437   9.342  21.451  0.00  0.00    +0.000 A 
ATOM     29  C   UNL     1      46.319   9.683  22.217  0.00  0.00    +0.000 A 
ATOM     30  C   UNL     1      45.387  10.589  21.722  0.00  0.00    +0.000 A 
ATOM     31  C   UNL     1      45.577  11.157  20.464  0.00  0.00    +0.000 A 
ATOM     32  C   UNL     1      46.658  10.760  19.671  0.00  0.00    +0.000 A 
ENDBRANCH  25  27
BRANCH  24  33
ATOM     33  C   UNL     1      47.314   7.347  18.500  0.00  0.00    +0.000 C 
BRANCH  33  34
ATOM     34  C   UNL     1      47.168   6.021  19.248  0.00  0.00    +0.000 C 
BRANCH  34  35
ATOM     35  O   UNL     1      46.504   5.067  18.429  0.00  0.00    +0.000 OA
ATOM     36  H   UNL     1      47.100   4.847  17.694  0.00  0.00    +0.000 HD
ENDBRANCH  34  35
ENDBRANCH  33  34
ENDBRANCH  24  33
ENDBRANCH  23  24
ENDBRANCH   4  23
TORSDOF 9
ENDMDL
MODEL 8
REMARK VINA RESULT:    -7.164      3.958      5.590
REMARK INTER + INTRA:         -10.730
REMARK INTER:                  -9.393
REMARK INTRA:                  -1.337
REMARK UNBOUND:                -0.007
REMARK  Name = 
REMARK  9 active torsions:
REMARK  status: ('A' for Active; 'I' for Inactive)
REMARK    1  A    between atoms: C_2  and  C_24
REMARK    2  A    between atoms: N_3  and  C_4
REMARK    3  A    between atoms: C_4  and  C_5
REMARK    4  A    between atoms: C_8  and  C_9
REMARK    5  A    between atoms: C_9  and  N_10
REMARK    6  A    between atoms: N_10  and  C_11
REMARK    7  A    between atoms: C_11  and  C_12
REMARK    8  A    between atoms: C_12  and  O_13
REMARK    9  A    between atoms: C_14  and  C_16
REMARK                            x       y       z     vdW  Elec       q    Type
REMARK                         _______ _______ _______ _____ _____    ______ ____
ROOT
ATOM      1  C   UNL     1      45.843   9.964  11.759  0.00  0.00    +0.000 A 
ATOM      2  C   UNL     1      46.427   9.157  12.742  0.00  0.00    +0.000 A 
ATOM      3  C   UNL     1      45.837   7.945  13.129  0.00  0.00    +0.000 A 
ATOM      4  C   UNL     1      44.662   7.488  12.515  0.00  0.00    +0.000 A 
ATOM      5  C   UNL     1      44.027   8.347  11.603  0.00  0.00    +0.000 A 
ATOM      6  C   UNL     1      44.610   9.569  11.227  0.00  0.00    +0.000 A 
ENDROOT
BRANCH   1   7
ATOM      7  C   UNL     1      46.571  11.184  11.249  0.00  0.00    +0.000 C 
BRANCH   7  10
ATOM      8  O   UNL     1      48.434  11.905   9.280  0.00  0.00    +0.000 OA
ATOM      9  C   UNL     1      48.858  11.420  10.330  0.00  0.00    +0.000 C 
ATOM     10  N   UNL     1      48.012  11.036  11.340  0.00  0.00    +0.000 N 
ATOM     11  H   UNL     1      48.393  10.764  12.241  0.00  0.00    +0.000 HD
BRANCH   9  12
ATOM     12  C   UNL     1      50.301  11.191  10.522  0.00  0.00    +0.000 A 
ATOM     13  C   UNL     1      51.190  12.225  10.250  0.00  0.00    +0.000 A 
ATOM     14  S   UNL     1      52.821  11.830  10.545  0.00  0.00    +0.000 S 
ATOM     15  C   UNL     1      52.405  10.273  11.088  0.00  0.00    +0.000 A 
ATOM     16  N   UNL     1      53.352   9.418  11.545  0.00  0.00    +0.000 NA
ATOM     17  C   UNL     1      52.894   8.283  11.959  0.00  0.00    +0.000 A 
ATOM     18  N   UNL     1      51.572   7.920  11.925  0.00  0.00    +0.000 N 
ATOM     19  C   UNL     1      50.587   8.725  11.399  0.00  0.00    +0.000 A 
ATOM     20  O   UNL     1      49.440   8.319  11.263  0.00  0.00    +0.000 OA
ATOM     21  C   UNL     1      51.037  10.040  10.990  0.00  0.00    +0.000 A 
ATOM     22  H   UNL     1      51.282   7.005  12.228  0.00  0.00    +0.000 HD
ENDBRANCH   9  12
ENDBRANCH   7  10
ENDBRANCH   1   7
BRANCH   4  23
ATOM     23  C   UNL     1      44.236   6.035  12.668  0.00  0.00    +0.000 C 
BRANCH  23  24
ATOM     24  N   UNL     1      44.867   5.024  11.808  0.00  0.00    +0.000 N 
ATOM     25  C   UNL     1      44.270   4.802  10.545  0.00  0.00    +0.000 C 
ATOM     26  O   UNL     1      43.276   5.425  10.170  0.00  0.00    +0.000 OA
BRANCH  25  27
ATOM     27  C   UNL     1      44.884   3.858   9.549  0.00  0.00    +0.000 A 
ATOM     28  C   UNL     1      44.753   2.466   9.612  0.00  0.00    +0.000 A 
ATOM     29  C   UNL     1      45.475   1.638   8.748  0.00  0.00    +0.000 A 
ATOM     30  C   UNL     1      46.250   2.195   7.736  0.00  0.00    +0.000 A 
ATOM     31  C   UNL     1      46.297   3.580   7.584  0.00  0.00    +0.000 A 
ATOM     32  C   UNL     1      45.630   4.407   8.494  0.00  0.00    +0.000 A 
ENDBRANCH  25  27
BRANCH  24  33
ATOM     33  C   UNL     1      46.234   4.543  12.105  0.00  0.00    +0.000 C 
BRANCH  33  34
ATOM     34  C   UNL     1      46.771   4.470  13.535  0.00  0.00    +0.000 C 
BRANCH  34  35
ATOM     35  O   UNL     1      47.195   3.146  13.832  0.00  0.00    +0.000 OA
ATOM     36  H   UNL     1      46.953   2.585  13.077  0.00  0.00    +0.000 HD
ENDBRANCH  34  35
ENDBRANCH  33  34
ENDBRANCH  24  33
ENDBRANCH  23  24
ENDBRANCH   4  23
TORSDOF 9
ENDMDL
MODEL 9
REMARK VINA RESULT:    -7.140      5.539      7.435
REMARK INTER + INTRA:         -10.695
REMARK INTER:                  -9.333
REMARK INTRA:                  -1.362
REMARK UNBOUND:                -0.007
REMARK  Name = 
REMARK  9 active torsions:
REMARK  status: ('A' for Active; 'I' for Inactive)
REMARK    1  A    between atoms: C_2  and  C_24
REMARK    2  A    between atoms: N_3  and  C_4
REMARK    3  A    between atoms: C_4  and  C_5
REMARK    4  A    between atoms: C_8  and  C_9
REMARK    5  A    between atoms: C_9  and  N_10
REMARK    6  A    between atoms: N_10  and  C_11
REMARK    7  A    between atoms: C_11  and  C_12
REMARK    8  A    between atoms: C_12  and  O_13
REMARK    9  A    between atoms: C_14  and  C_16
REMARK                            x       y       z     vdW  Elec       q    Type
REMARK                         _______ _______ _______ _____ _____    ______ ____
ROOT
ATOM      1  C   UNL     1      50.827   8.615  12.376  0.00  0.00    +0.000 A 
ATOM      2  C   UNL     1      50.456   8.264  13.679  0.00  0.00    +0.000 A 
ATOM      3  C   UNL     1      49.108   8.124  14.036  0.00  0.00    +0.000 A 
ATOM      4  C   UNL     1      48.090   8.297  13.086  0.00  0.00    +0.000 A 
ATOM      5  C   UNL     1      48.461   8.747  11.808  0.00  0.00    +0.000 A 
ATOM      6  C   UNL     1      49.812   8.903  11.455  0.00  0.00    +0.000 A 
ENDROOT
BRANCH   1   7
ATOM      7  C   UNL     1      52.282   8.611  11.975  0.00  0.00    +0.000 C 
BRANCH   7  10
ATOM      8  O   UNL     1      53.925   9.757  10.010  0.00  0.00    +0.000 OA
ATOM      9  C   UNL     1      53.301   8.736   9.721  0.00  0.00    +0.000 C 
ATOM     10  N   UNL     1      52.472   8.117  10.622  0.00  0.00    +0.000 N 
ATOM     11  H   UNL     1      52.075   7.209  10.402  0.00  0.00    +0.000 HD
BRANCH   9  12
ATOM     12  C   UNL     1      53.389   8.161   8.366  0.00  0.00    +0.000 A 
ATOM     13  C   UNL     1      53.312   9.010   7.268  0.00  0.00    +0.000 A 
ATOM     14  S   UNL     1      53.458   8.214   5.768  0.00  0.00    +0.000 S 
ATOM     15  C   UNL     1      53.673   6.706   6.525  0.00  0.00    +0.000 A 
ATOM     16  N   UNL     1      53.904   5.587   5.796  0.00  0.00    +0.000 NA
ATOM     17  C   UNL     1      54.083   4.518   6.499  0.00  0.00    +0.000 A 
ATOM     18  N   UNL     1      54.020   4.468   7.868  0.00  0.00    +0.000 N 
ATOM     19  C   UNL     1      53.712   5.563   8.644  0.00  0.00    +0.000 A 
ATOM     20  O   UNL     1      53.534   5.457   9.850  0.00  0.00    +0.000 OA
ATOM     21  C   UNL     1      53.576   6.804   7.909  0.00  0.00    +0.000 A 
ATOM     22  H   UNL     1      54.132   3.595   8.356  0.00  0.00    +0.000 HD
ENDBRANCH   9  12
ENDBRANCH   7  10
ENDBRANCH   1   7
BRANCH   4  23
ATOM     23  C   UNL     1      46.683   7.795  13.375  0.00  0.00    +0.000 C 
BRANCH  23  24
ATOM     24  N   UNL     1      46.258   6.517  12.786  0.00  0.00    +0.000 N 
ATOM     25  C   UNL     1      45.369   6.588  11.689  0.00  0.00    +0.000 C 
ATOM     26  O   UNL     1      44.970   7.661  11.235  0.00  0.00    +0.000 OA
BRANCH  25  27
ATOM     27  C   UNL     1      44.943   5.349  10.951  0.00  0.00    +0.000 A 
ATOM     28  C   UNL     1      44.038   4.412  11.462  0.00  0.00    +0.000 A 
ATOM     29  C   UNL     1      43.802   3.206  10.797  0.00  0.00    +0.000 A 
ATOM     30  C   UNL     1      44.381   2.973   9.554  0.00  0.00    +0.000 A 
ATOM     31  C   UNL     1      45.191   3.948   8.975  0.00  0.00    +0.000 A 
ATOM     32  C   UNL     1      45.482   5.123   9.675  0.00  0.00    +0.000 A 
ENDBRANCH  25  27
BRANCH  24  33
ATOM     33  C   UNL     1      46.998   5.273  13.094  0.00  0.00    +0.000 C 
BRANCH  33  34
ATOM     34  C   UNL     1      46.867   4.571  14.446  0.00  0.00    +0.000 C 
BRANCH  34  35
ATOM     35  O   UNL     1      47.896   5.007  15.325  0.00  0.00    +0.000 OA
ATOM     36  H   UNL     1      48.394   5.705  14.870  0.00  0.00    +0.000 HD
ENDBRANCH  34  35
ENDBRANCH  33  34
ENDBRANCH  24  33
ENDBRANCH  23  24
ENDBRANCH   4  23
TORSDOF 9
ENDMDL
