MODEL 1
REMARK VINA RESULT:    -8.532      0.000      0.000
REMARK INTER + INTRA:         -13.523
REMARK INTER:                 -12.772
REMARK INTRA:                  -0.752
REMARK UNBOUND:                -0.752
REMARK  Name = 
REMARK  9 active torsions:
REMARK  status: ('A' for Active; 'I' for Inactive)
REMARK    1  A    between atoms: N_3  and  C_4
REMARK    2  A    between atoms: C_4  and  C_5
REMARK    3  A    between atoms: C_8  and  C_9
REMARK    4  A    between atoms: C_9  and  N_10
REMARK    5  A    between atoms: N_10  and  C_11
REMARK    6  A    between atoms: N_10  and  C_14
REMARK    7  A    between atoms: C_11  and  C_12
REMARK    8  A    between atoms: C_12  and  O_13
REMARK    9  A    between atoms: C_14  and  C_15
REMARK                            x       y       z     vdW  Elec       q    Type
REMARK                         _______ _______ _______ _____ _____    ______ ____
ROOT
ATOM      1  C   UNL     1      48.153   6.454  13.870  0.00  0.00    +0.000 A 
ATOM      2  C   UNL     1      47.185   5.458  14.072  0.00  0.00    +0.000 A 
ATOM      3  C   UNL     1      46.205   5.218  13.108  0.00  0.00    +0.000 A 
ATOM      4  C   UNL     1      46.168   5.975  11.930  0.00  0.00    +0.000 A 
ATOM      5  C   UNL     1      47.197   6.895  11.684  0.00  0.00    +0.000 A 
ATOM      6  C   UNL     1      48.184   7.129  12.646  0.00  0.00    +0.000 A 
ENDROOT
BRANCH   1   7
ATOM      7  C   UNL     1      49.071   6.857  14.989  0.00  0.00    +0.000 C 
BRANCH   7  10
ATOM      8  O   UNL     1      49.648   4.722  16.655  0.00  0.00    +0.000 OA
ATOM      9  C   UNL     1      48.908   5.624  17.030  0.00  0.00    +0.000 C 
ATOM     10  N   UNL     1      48.503   6.719  16.307  0.00  0.00    +0.000 N 
ATOM     11  N   UNL     1      48.496   5.667  18.372  0.00  0.00    +0.000 N 
ATOM     12  C   UNL     1      47.217   5.929  18.836  0.00  0.00    +0.000 A 
ATOM     13  C   UNL     1      47.208   5.760  20.204  0.00  0.00    +0.000 A 
ATOM     14  C   UNL     1      48.539   5.473  20.614  0.00  0.00    +0.000 A 
ATOM     15  C   UNL     1      49.158   5.258  21.852  0.00  0.00    +0.000 A 
ATOM     16  C   UNL     1      50.526   5.038  21.831  0.00  0.00    +0.000 A 
ATOM     17  N   UNL     1      51.283   4.998  20.716  0.00  0.00    +0.000 NA
ATOM     18  C   UNL     1      50.687   5.167  19.513  0.00  0.00    +0.000 A 
ATOM     19  C   UNL     1      49.316   5.408  19.459  0.00  0.00    +0.000 A 
ATOM     20  H   UNL     1      48.196   7.552  16.794  0.00  0.00    +0.000 HD
ENDBRANCH   7  10
ENDBRANCH   1   7
BRANCH   4  21
ATOM     21  C   UNL     1      45.012   5.832  10.960  0.00  0.00    +0.000 C 
BRANCH  21  22
ATOM     22  N   UNL     1      44.608   4.422  10.708  0.00  0.00    +0.000 NA
BRANCH  22  23
ATOM     23  C   UNL     1      43.389   4.077  11.483  0.00  0.00    +0.000 C 
BRANCH  23  24
ATOM     24  C   UNL     1      42.527   5.275  11.933  0.00  0.00    +0.000 C 
BRANCH  24  25
ATOM     25  O   UNL     1      42.568   5.417  13.352  0.00  0.00    +0.000 OA
ATOM     26  H   UNL     1      42.817   4.552  13.721  0.00  0.00    +0.000 HD
ENDBRANCH  24  25
ENDBRANCH  23  24
ENDBRANCH  22  23
BRANCH  22  27
ATOM     27  C   UNL     1      44.358   4.230   9.264  0.00  0.00    +0.000 C 
BRANCH  27  28
ATOM     28  C   UNL     1      45.364   3.351   8.555  0.00  0.00    +0.000 A 
ATOM     29  C   UNL     1      45.422   1.974   8.814  0.00  0.00    +0.000 A 
ATOM     30  C   UNL     1      46.290   1.156   8.090  0.00  0.00    +0.000 A 
ATOM     31  C   UNL     1      47.108   1.704   7.105  0.00  0.00    +0.000 A 
ATOM     32  C   UNL     1      47.077   3.075   6.855  0.00  0.00    +0.000 A 
ATOM     33  C   UNL     1      46.208   3.895   7.576  0.00  0.00    +0.000 A 
ENDBRANCH  27  28
ENDBRANCH  22  27
ENDBRANCH  21  22
ENDBRANCH   4  21
TORSDOF 9
ENDMDL
MODEL 2
REMARK VINA RESULT:    -8.253      2.239      2.927
REMARK INTER + INTRA:         -13.106
REMARK INTER:                 -12.081
REMARK INTRA:                  -1.025
REMARK UNBOUND:                -0.752
REMARK  Name = 
REMARK  9 active torsions:
REMARK  status: ('A' for Active; 'I' for Inactive)
REMARK    1  A    between atoms: N_3  and  C_4
REMARK    2  A    between atoms: C_4  and  C_5
REMARK    3  A    between atoms: C_8  and  C_9
REMARK    4  A    between atoms: C_9  and  N_10
REMARK    5  A    between atoms: N_10  and  C_11
REMARK    6  A    between atoms: N_10  and  C_14
REMARK    7  A    between atoms: C_11  and  C_12
REMARK    8  A    between atoms: C_12  and  O_13
REMARK    9  A    between atoms: C_14  and  C_15
REMARK                            x       y       z     vdW  Elec       q    Type
REMARK                         _______ _______ _______ _____ _____    ______ ____
ROOT
ATOM      1  C   UNL     1      47.753   8.324  12.924  0.00  0.00    +0.000 A 
ATOM      2  C   UNL     1      48.081   7.296  12.027  0.00  0.00    +0.000 A 
ATOM      3  C   UNL     1      47.078   6.533  11.428  0.00  0.00    +0.000 A 
ATOM      4  C   UNL     1      45.731   6.777  11.721  0.00  0.00    +0.000 A 
ATOM      5  C   UNL     1      45.402   7.871  12.533  0.00  0.00    +0.000 A 
ATOM      6  C   UNL     1      46.406   8.640  13.127  0.00  0.00    +0.000 A 
ENDROOT
BRANCH   1   7
ATOM      7  C   UNL     1      48.826   9.000  13.728  0.00  0.00    +0.000 C 
BRANCH   7  10
ATOM      8  O   UNL     1      48.282   8.177  16.315  0.00  0.00    +0.000 OA
ATOM      9  C   UNL     1      49.266   7.755  15.721  0.00  0.00    +0.000 C 
ATOM     10  N   UNL     1      49.684   8.099  14.458  0.00  0.00    +0.000 N 
ATOM     11  N   UNL     1      50.022   6.715  16.286  0.00  0.00    +0.000 N 
ATOM     12  C   UNL     1      51.403   6.636  16.349  0.00  0.00    +0.000 A 
ATOM     13  C   UNL     1      51.742   5.519  17.084  0.00  0.00    +0.000 A 
ATOM     14  C   UNL     1      50.539   4.836  17.412  0.00  0.00    +0.000 A 
ATOM     15  C   UNL     1      50.243   3.641  18.082  0.00  0.00    +0.000 A 
ATOM     16  C   UNL     1      48.904   3.292  18.163  0.00  0.00    +0.000 A 
ATOM     17  N   UNL     1      47.886   4.022  17.664  0.00  0.00    +0.000 NA
ATOM     18  C   UNL     1      48.160   5.195  17.047  0.00  0.00    +0.000 A 
ATOM     19  C   UNL     1      49.486   5.602  16.916  0.00  0.00    +0.000 A 
ATOM     20  H   UNL     1      50.277   7.464  13.939  0.00  0.00    +0.000 HD
ENDBRANCH   7  10
ENDBRANCH   1   7
BRANCH   4  21
ATOM     21  C   UNL     1      44.651   5.847  11.202  0.00  0.00    +0.000 C 
BRANCH  21  22
ATOM     22  N   UNL     1      45.154   4.509  10.790  0.00  0.00    +0.000 NA
BRANCH  22  23
ATOM     23  C   UNL     1      44.856   3.491  11.830  0.00  0.00    +0.000 C 
BRANCH  23  24
ATOM     24  C   UNL     1      43.361   3.172  12.038  0.00  0.00    +0.000 C 
BRANCH  24  25
ATOM     25  O   UNL     1      43.083   1.818  11.684  0.00  0.00    +0.000 OA
ATOM     26  H   UNL     1      43.452   1.671  10.796  0.00  0.00    +0.000 HD
ENDBRANCH  24  25
ENDBRANCH  23  24
ENDBRANCH  22  23
BRANCH  22  27
ATOM     27  C   UNL     1      44.528   4.119   9.509  0.00  0.00    +0.000 C 
BRANCH  27  28
ATOM     28  C   UNL     1      45.406   3.291   8.598  0.00  0.00    +0.000 A 
ATOM     29  C   UNL     1      46.203   3.902   7.619  0.00  0.00    +0.000 A 
ATOM     30  C   UNL     1      47.079   3.140   6.845  0.00  0.00    +0.000 A 
ATOM     31  C   UNL     1      47.163   1.763   7.036  0.00  0.00    +0.000 A 
ATOM     32  C   UNL     1      46.357   1.141   7.989  0.00  0.00    +0.000 A 
ATOM     33  C   UNL     1      45.484   1.900   8.767  0.00  0.00    +0.000 A 
ENDBRANCH  27  28
ENDBRANCH  22  27
ENDBRANCH  21  22
ENDBRANCH   4  21
TORSDOF 9
ENDMDL
MODEL 3
REMARK VINA RESULT:    -7.642      2.014      3.040
REMARK INTER + INTRA:         -12.191
REMARK INTER:                 -11.250
REMARK INTRA:                  -0.940
REMARK UNBOUND:                -0.752
REMARK  Name = 
REMARK  9 active torsions:
REMARK  status: ('A' for Active; 'I' for Inactive)
REMARK    1  A    between atoms: N_3  and  C_4
REMARK    2  A    between atoms: C_4  and  C_5
REMARK    3  A    between atoms: C_8  and  C_9
REMARK    4  A    between atoms: C_9  and  N_10
REMARK    5  A    between atoms: N_10  and  C_11
REMARK    6  A    between atoms: N_10  and  C_14
REMARK    7  A    between atoms: C_11  and  C_12
REMARK    8  A    between atoms: C_12  and  O_13
REMARK    9  A    between atoms: C_14  and  C_15
REMARK                            x       y       z     vdW  Elec       q    Type
REMARK                         _______ _______ _______ _____ _____    ______ ____
ROOT
ATOM      1  C   UNL     1      47.319   4.773  14.682  0.00  0.00    +0.000 A 
ATOM      2  C   UNL     1      47.351   6.053  14.108  0.00  0.00    +0.000 A 
ATOM      3  C   UNL     1      46.761   6.285  12.864  0.00  0.00    +0.000 A 
ATOM      4  C   UNL     1      46.138   5.241  12.169  0.00  0.00    +0.000 A 
ATOM      5  C   UNL     1      46.015   3.991  12.792  0.00  0.00    +0.000 A 
ATOM      6  C   UNL     1      46.599   3.761  14.041  0.00  0.00    +0.000 A 
ENDROOT
BRANCH   1   7
ATOM      7  C   UNL     1      48.132   4.473  15.909  0.00  0.00    +0.000 C 
BRANCH   7  10
ATOM      8  O   UNL     1      49.631   6.635  16.772  0.00  0.00    +0.000 OA
ATOM      9  C   UNL     1      48.601   6.319  17.353  0.00  0.00    +0.000 C 
ATOM     10  N   UNL     1      47.778   5.257  17.067  0.00  0.00    +0.000 N 
ATOM     11  N   UNL     1      48.083   7.163  18.349  0.00  0.00    +0.000 N 
ATOM     12  C   UNL     1      47.582   6.777  19.582  0.00  0.00    +0.000 A 
ATOM     13  C   UNL     1      47.285   7.913  20.305  0.00  0.00    +0.000 A 
ATOM     14  C   UNL     1      47.525   9.036  19.467  0.00  0.00    +0.000 A 
ATOM     15  C   UNL     1      47.365  10.420  19.614  0.00  0.00    +0.000 A 
ATOM     16  C   UNL     1      47.688  11.201  18.515  0.00  0.00    +0.000 A 
ATOM     17  N   UNL     1      48.155  10.726  17.343  0.00  0.00    +0.000 NA
ATOM     18  C   UNL     1      48.348   9.394  17.205  0.00  0.00    +0.000 A 
ATOM     19  C   UNL     1      48.031   8.546  18.264  0.00  0.00    +0.000 A 
ATOM     20  H   UNL     1      46.811   5.283  17.360  0.00  0.00    +0.000 HD
ENDBRANCH   7  10
ENDBRANCH   1   7
BRANCH   4  21
ATOM     21  C   UNL     1      45.644   5.450  10.751  0.00  0.00    +0.000 C 
BRANCH  21  22
ATOM     22  N   UNL     1      44.413   4.681  10.422  0.00  0.00    +0.000 NA
BRANCH  22  23
ATOM     23  C   UNL     1      43.205   5.373  10.941  0.00  0.00    +0.000 C 
BRANCH  23  24
ATOM     24  C   UNL     1      42.642   4.820  12.267  0.00  0.00    +0.000 C 
BRANCH  24  25
ATOM     25  O   UNL     1      42.864   5.745  13.330  0.00  0.00    +0.000 OA
ATOM     26  H   UNL     1      42.189   6.442  13.252  0.00  0.00    +0.000 HD
ENDBRANCH  24  25
ENDBRANCH  23  24
ENDBRANCH  22  23
BRANCH  22  27
ATOM     27  C   UNL     1      44.309   4.517   8.957  0.00  0.00    +0.000 C 
BRANCH  27  28
ATOM     28  C   UNL     1      45.240   3.483   8.364  0.00  0.00    +0.000 A 
ATOM     29  C   UNL     1      46.224   3.851   7.436  0.00  0.00    +0.000 A 
ATOM     30  C   UNL     1      47.137   2.908   6.964  0.00  0.00    +0.000 A 
ATOM     31  C   UNL     1      47.074   1.590   7.410  0.00  0.00    +0.000 A 
ATOM     32  C   UNL     1      46.084   1.206   8.314  0.00  0.00    +0.000 A 
ATOM     33  C   UNL     1      45.172   2.148   8.790  0.00  0.00    +0.000 A 
ENDBRANCH  27  28
ENDBRANCH  22  27
ENDBRANCH  21  22
ENDBRANCH   4  21
TORSDOF 9
ENDMDL
MODEL 4
REMARK VINA RESULT:    -7.553      2.198      3.076
REMARK INTER + INTRA:         -12.058
REMARK INTER:                 -11.715
REMARK INTRA:                  -0.344
REMARK UNBOUND:                -0.752
REMARK  Name = 
REMARK  9 active torsions:
REMARK  status: ('A' for Active; 'I' for Inactive)
REMARK    1  A    between atoms: N_3  and  C_4
REMARK    2  A    between atoms: C_4  and  C_5
REMARK    3  A    between atoms: C_8  and  C_9
REMARK    4  A    between atoms: C_9  and  N_10
REMARK    5  A    between atoms: N_10  and  C_11
REMARK    6  A    between atoms: N_10  and  C_14
REMARK    7  A    between atoms: C_11  and  C_12
REMARK    8  A    between atoms: C_12  and  O_13
REMARK    9  A    between atoms: C_14  and  C_15
REMARK                            x       y       z     vdW  Elec       q    Type
REMARK                         _______ _______ _______ _____ _____    ______ ____
ROOT
ATOM      1  C   UNL     1      48.022   6.436  14.640  0.00  0.00    +0.000 A 
ATOM      2  C   UNL     1      47.465   5.148  14.648  0.00  0.00    +0.000 A 
ATOM      3  C   UNL     1      46.744   4.682  13.548  0.00  0.00    +0.000 A 
ATOM      4  C   UNL     1      46.559   5.498  12.425  0.00  0.00    +0.000 A 
ATOM      5  C   UNL     1      47.206   6.741  12.376  0.00  0.00    +0.000 A 
ATOM      6  C   UNL     1      47.934   7.205  13.475  0.00  0.00    +0.000 A 
ENDROOT
BRANCH   1   7
ATOM      7  C   UNL     1      48.610   7.015  15.895  0.00  0.00    +0.000 C 
BRANCH   7  10
ATOM      8  O   UNL     1      48.888   5.107  17.882  0.00  0.00    +0.000 OA
ATOM      9  C   UNL     1      49.863   5.497  17.252  0.00  0.00    +0.000 C 
ATOM     10  N   UNL     1      49.886   6.459  16.271  0.00  0.00    +0.000 N 
ATOM     11  N   UNL     1      51.096   4.845  17.412  0.00  0.00    +0.000 N 
ATOM     12  C   UNL     1      52.336   5.445  17.552  0.00  0.00    +0.000 A 
ATOM     13  C   UNL     1      53.269   4.461  17.803  0.00  0.00    +0.000 A 
ATOM     14  C   UNL     1      52.606   3.206  17.729  0.00  0.00    +0.000 A 
ATOM     15  C   UNL     1      53.019   1.872  17.839  0.00  0.00    +0.000 A 
ATOM     16  C   UNL     1      52.042   0.904  17.663  0.00  0.00    +0.000 A 
ATOM     17  N   UNL     1      50.741   1.159  17.416  0.00  0.00    +0.000 NA
ATOM     18  C   UNL     1      50.327   2.445  17.346  0.00  0.00    +0.000 A 
ATOM     19  C   UNL     1      51.257   3.470  17.498  0.00  0.00    +0.000 A 
ATOM     20  H   UNL     1      50.636   6.459  15.592  0.00  0.00    +0.000 HD
ENDBRANCH   7  10
ENDBRANCH   1   7
BRANCH   4  21
ATOM     21  C   UNL     1      45.642   5.060  11.300  0.00  0.00    +0.000 C 
BRANCH  21  22
ATOM     22  N   UNL     1      44.442   4.309  11.758  0.00  0.00    +0.000 NA
BRANCH  22  23
ATOM     23  C   UNL     1      43.524   5.195  12.520  0.00  0.00    +0.000 C 
BRANCH  23  24
ATOM     24  C   UNL     1      42.321   5.744  11.726  0.00  0.00    +0.000 C 
BRANCH  24  25
ATOM     25  O   UNL     1      42.620   7.033  11.191  0.00  0.00    +0.000 OA
ATOM     26  H   UNL     1      42.153   7.108  10.341  0.00  0.00    +0.000 HD
ENDBRANCH  24  25
ENDBRANCH  23  24
ENDBRANCH  22  23
BRANCH  22  27
ATOM     27  C   UNL     1      43.738   3.740  10.589  0.00  0.00    +0.000 C 
BRANCH  27  28
ATOM     28  C   UNL     1      44.638   3.312   9.451  0.00  0.00    +0.000 A 
ATOM     29  C   UNL     1      45.058   4.234   8.482  0.00  0.00    +0.000 A 
ATOM     30  C   UNL     1      45.961   3.852   7.489  0.00  0.00    +0.000 A 
ATOM     31  C   UNL     1      46.447   2.547   7.451  0.00  0.00    +0.000 A 
ATOM     32  C   UNL     1      46.017   1.615   8.394  0.00  0.00    +0.000 A 
ATOM     33  C   UNL     1      45.117   1.995   9.390  0.00  0.00    +0.000 A 
ENDBRANCH  27  28
ENDBRANCH  22  27
ENDBRANCH  21  22
ENDBRANCH   4  21
TORSDOF 9
ENDMDL
MODEL 5
REMARK VINA RESULT:    -7.173      4.869      6.822
REMARK INTER + INTRA:         -11.489
REMARK INTER:                 -10.255
REMARK INTRA:                  -1.234
REMARK UNBOUND:                -0.752
REMARK  Name = 
REMARK  9 active torsions:
REMARK  status: ('A' for Active; 'I' for Inactive)
REMARK    1  A    between atoms: N_3  and  C_4
REMARK    2  A    between atoms: C_4  and  C_5
REMARK    3  A    between atoms: C_8  and  C_9
REMARK    4  A    between atoms: C_9  and  N_10
REMARK    5  A    between atoms: N_10  and  C_11
REMARK    6  A    between atoms: N_10  and  C_14
REMARK    7  A    between atoms: C_11  and  C_12
REMARK    8  A    between atoms: C_12  and  O_13
REMARK    9  A    between atoms: C_14  and  C_15
REMARK                            x       y       z     vdW  Elec       q    Type
REMARK                         _______ _______ _______ _____ _____    ______ ____
ROOT
ATOM      1  C   UNL     1      47.524   8.148  12.770  0.00  0.00    +0.000 A 
ATOM      2  C   UNL     1      46.242   8.717  12.805  0.00  0.00    +0.000 A 
ATOM      3  C   UNL     1      45.159   8.058  12.224  0.00  0.00    +0.000 A 
ATOM      4  C   UNL     1      45.339   6.822  11.589  0.00  0.00    +0.000 A 
ATOM      5  C   UNL     1      46.597   6.207  11.648  0.00  0.00    +0.000 A 
ATOM      6  C   UNL     1      47.680   6.864  12.237  0.00  0.00    +0.000 A 
ENDROOT
BRANCH   1   7
ATOM      7  C   UNL     1      48.720   8.947  13.202  0.00  0.00    +0.000 C 
BRANCH   7  10
ATOM      8  O   UNL     1      51.381   8.265  12.853  0.00  0.00    +0.000 OA
ATOM      9  C   UNL     1      50.817   9.004  12.056  0.00  0.00    +0.000 C 
ATOM     10  N   UNL     1      49.522   9.458  12.118  0.00  0.00    +0.000 N 
ATOM     11  N   UNL     1      51.469   9.362  10.865  0.00  0.00    +0.000 N 
ATOM     12  C   UNL     1      51.522  10.625  10.299  0.00  0.00    +0.000 A 
ATOM     13  C   UNL     1      52.356  10.575   9.202  0.00  0.00    +0.000 A 
ATOM     14  C   UNL     1      52.763   9.224   9.028  0.00  0.00    +0.000 A 
ATOM     15  C   UNL     1      53.548   8.551   8.083  0.00  0.00    +0.000 A 
ATOM     16  C   UNL     1      53.679   7.181   8.248  0.00  0.00    +0.000 A 
ATOM     17  N   UNL     1      53.126   6.470   9.251  0.00  0.00    +0.000 NA
ATOM     18  C   UNL     1      52.396   7.117  10.189  0.00  0.00    +0.000 A 
ATOM     19  C   UNL     1      52.210   8.493  10.078  0.00  0.00    +0.000 A 
ATOM     20  H   UNL     1      49.059   9.759  11.270  0.00  0.00    +0.000 HD
ENDBRANCH   7  10
ENDBRANCH   1   7
BRANCH   4  21
ATOM     21  C   UNL     1      44.202   6.183  10.815  0.00  0.00    +0.000 C 
BRANCH  21  22
ATOM     22  N   UNL     1      44.243   4.696  10.801  0.00  0.00    +0.000 NA
BRANCH  22  23
ATOM     23  C   UNL     1      43.274   4.132  11.776  0.00  0.00    +0.000 C 
BRANCH  23  24
ATOM     24  C   UNL     1      43.867   3.157  12.814  0.00  0.00    +0.000 C 
BRANCH  24  25
ATOM     25  O   UNL     1      45.182   2.757  12.431  0.00  0.00    +0.000 OA
ATOM     26  H   UNL     1      45.722   3.564  12.365  0.00  0.00    +0.000 HD
ENDBRANCH  24  25
ENDBRANCH  23  24
ENDBRANCH  22  23
BRANCH  22  27
ATOM     27  C   UNL     1      43.933   4.205   9.442  0.00  0.00    +0.000 C 
BRANCH  27  28
ATOM     28  C   UNL     1      45.077   3.508   8.740  0.00  0.00    +0.000 A 
ATOM     29  C   UNL     1      45.259   2.123   8.865  0.00  0.00    +0.000 A 
ATOM     30  C   UNL     1      46.261   1.475   8.142  0.00  0.00    +0.000 A 
ATOM     31  C   UNL     1      47.091   2.202   7.292  0.00  0.00    +0.000 A 
ATOM     32  C   UNL     1      46.936   3.583   7.179  0.00  0.00    +0.000 A 
ATOM     33  C   UNL     1      45.934   4.233   7.898  0.00  0.00    +0.000 A 
ENDBRANCH  27  28
ENDBRANCH  22  27
ENDBRANCH  21  22
ENDBRANCH   4  21
TORSDOF 9
ENDMDL
MODEL 6
REMARK VINA RESULT:    -7.128      1.768      2.656
REMARK INTER + INTRA:         -11.422
REMARK INTER:                 -10.858
REMARK INTRA:                  -0.563
REMARK UNBOUND:                -0.752
REMARK  Name = 
REMARK  9 active torsions:
REMARK  status: ('A' for Active; 'I' for Inactive)
REMARK    1  A    between atoms: N_3  and  C_4
REMARK    2  A    between atoms: C_4  and  C_5
REMARK    3  A    between atoms: C_8  and  C_9
REMARK    4  A    between atoms: C_9  and  N_10
REMARK    5  A    between atoms: N_10  and  C_11
REMARK    6  A    between atoms: N_10  and  C_14
REMARK    7  A    between atoms: C_11  and  C_12
REMARK    8  A    between atoms: C_12  and  O_13
REMARK    9  A    between atoms: C_14  and  C_15
REMARK                            x       y       z     vdW  Elec       q    Type
REMARK                         _______ _______ _______ _____ _____    ______ ____
ROOT
ATOM      1  C   UNL     1      48.646   7.204  13.397  0.00  0.00    +0.000 A 
ATOM      2  C   UNL     1      48.278   8.001  12.303  0.00  0.00    +0.000 A 
ATOM      3  C   UNL     1      47.153   7.679  11.541  0.00  0.00    +0.000 A 
ATOM      4  C   UNL     1      46.383   6.551  11.854  0.00  0.00    +0.000 A 
ATOM      5  C   UNL     1      46.692   5.820  13.009  0.00  0.00    +0.000 A 
ATOM      6  C   UNL     1      47.813   6.146  13.777  0.00  0.00    +0.000 A 
ENDROOT
BRANCH   1   7
ATOM      7  C   UNL     1      49.965   7.421  14.082  0.00  0.00    +0.000 C 
BRANCH   7  10
ATOM      8  O   UNL     1      49.983   9.214  16.193  0.00  0.00    +0.000 OA
ATOM      9  C   UNL     1      49.971   8.007  16.400  0.00  0.00    +0.000 C 
ATOM     10  N   UNL     1      49.999   7.003  15.462  0.00  0.00    +0.000 N 
ATOM     11  N   UNL     1      49.784   7.532  17.708  0.00  0.00    +0.000 N 
ATOM     12  C   UNL     1      50.484   6.508  18.324  0.00  0.00    +0.000 A 
ATOM     13  C   UNL     1      50.078   6.433  19.640  0.00  0.00    +0.000 A 
ATOM     14  C   UNL     1      49.032   7.378  19.824  0.00  0.00    +0.000 A 
ATOM     15  C   UNL     1      48.205   7.726  20.900  0.00  0.00    +0.000 A 
ATOM     16  C   UNL     1      47.252   8.703  20.658  0.00  0.00    +0.000 A 
ATOM     17  N   UNL     1      47.085   9.342  19.483  0.00  0.00    +0.000 NA
ATOM     18  C   UNL     1      47.904   9.039  18.450  0.00  0.00    +0.000 A 
ATOM     19  C   UNL     1      48.876   8.056  18.616  0.00  0.00    +0.000 A 
ATOM     20  H   UNL     1      49.643   6.087  15.702  0.00  0.00    +0.000 HD
ENDBRANCH   7  10
ENDBRANCH   1   7
BRANCH   4  21
ATOM     21  C   UNL     1      45.263   6.107  10.934  0.00  0.00    +0.000 C 
BRANCH  21  22
ATOM     22  N   UNL     1      45.069   4.633  10.887  0.00  0.00    +0.000 NA
BRANCH  22  23
ATOM     23  C   UNL     1      44.208   4.179  12.010  0.00  0.00    +0.000 C 
BRANCH  23  24
ATOM     24  C   UNL     1      42.840   4.883  12.123  0.00  0.00    +0.000 C 
BRANCH  24  25
ATOM     25  O   UNL     1      42.713   5.532  13.388  0.00  0.00    +0.000 OA
ATOM     26  H   UNL     1      43.397   6.223  13.427  0.00  0.00    +0.000 HD
ENDBRANCH  24  25
ENDBRANCH  23  24
ENDBRANCH  22  23
BRANCH  22  27
ATOM     27  C   UNL     1      44.456   4.255   9.597  0.00  0.00    +0.000 C 
BRANCH  27  28
ATOM     28  C   UNL     1      45.327   3.398   8.705  0.00  0.00    +0.000 A 
ATOM     29  C   UNL     1      46.145   3.980   7.727  0.00  0.00    +0.000 A 
ATOM     30  C   UNL     1      47.013   3.191   6.972  0.00  0.00    +0.000 A 
ATOM     31  C   UNL     1      47.068   1.815   7.182  0.00  0.00    +0.000 A 
ATOM     32  C   UNL     1      46.241   1.221   8.134  0.00  0.00    +0.000 A 
ATOM     33  C   UNL     1      45.375   2.008   8.893  0.00  0.00    +0.000 A 
ENDBRANCH  27  28
ENDBRANCH  22  27
ENDBRANCH  21  22
ENDBRANCH   4  21
TORSDOF 9
ENDMDL
MODEL 7
REMARK VINA RESULT:    -7.019      2.727      9.200
REMARK INTER + INTRA:         -11.258
REMARK INTER:                  -9.644
REMARK INTRA:                  -1.614
REMARK UNBOUND:                -0.752
REMARK  Name = 
REMARK  9 active torsions:
REMARK  status: ('A' for Active; 'I' for Inactive)
REMARK    1  A    between atoms: N_3  and  C_4
REMARK    2  A    between atoms: C_4  and  C_5
REMARK    3  A    between atoms: C_8  and  C_9
REMARK    4  A    between atoms: C_9  and  N_10
REMARK    5  A    between atoms: N_10  and  C_11
REMARK    6  A    between atoms: N_10  and  C_14
REMARK    7  A    between atoms: C_11  and  C_12
REMARK    8  A    between atoms: C_12  and  O_13
REMARK    9  A    between atoms: C_14  and  C_15
REMARK                            x       y       z     vdW  Elec       q    Type
REMARK                         _______ _______ _______ _____ _____    ______ ____
ROOT
ATOM      1  C   UNL     1      47.429   8.239  13.753  0.00  0.00    +0.000 A 
ATOM      2  C   UNL     1      47.791   9.127  14.778  0.00  0.00    +0.000 A 
ATOM      3  C   UNL     1      49.055   9.052  15.365  0.00  0.00    +0.000 A 
ATOM      4  C   UNL     1      49.976   8.084  14.946  0.00  0.00    +0.000 A 
ATOM      5  C   UNL     1      49.651   7.270  13.852  0.00  0.00    +0.000 A 
ATOM      6  C   UNL     1      48.388   7.349  13.259  0.00  0.00    +0.000 A 
ENDROOT
BRANCH   1   7
ATOM      7  C   UNL     1      46.008   8.176  13.272  0.00  0.00    +0.000 C 
BRANCH   7  10
ATOM      8  O   UNL     1      44.610   7.432  11.000  0.00  0.00    +0.000 OA
ATOM      9  C   UNL     1      44.858   6.613  11.876  0.00  0.00    +0.000 C 
ATOM     10  N   UNL     1      45.504   6.841  13.067  0.00  0.00    +0.000 N 
ATOM     11  N   UNL     1      44.590   5.254  11.648  0.00  0.00    +0.000 N 
ATOM     12  C   UNL     1      43.998   4.367  12.532  0.00  0.00    +0.000 A 
ATOM     13  C   UNL     1      43.809   3.166  11.883  0.00  0.00    +0.000 A 
ATOM     14  C   UNL     1      44.378   3.281  10.585  0.00  0.00    +0.000 A 
ATOM     15  C   UNL     1      44.541   2.403   9.506  0.00  0.00    +0.000 A 
ATOM     16  C   UNL     1      45.203   2.902   8.395  0.00  0.00    +0.000 A 
ATOM     17  N   UNL     1      45.675   4.160   8.280  0.00  0.00    +0.000 NA
ATOM     18  C   UNL     1      45.490   5.026   9.304  0.00  0.00    +0.000 A 
ATOM     19  C   UNL     1      44.846   4.588  10.459  0.00  0.00    +0.000 A 
ATOM     20  H   UNL     1      45.956   6.072  13.544  0.00  0.00    +0.000 HD
ENDBRANCH   7  10
ENDBRANCH   1   7
BRANCH   4  21
ATOM     21  C   UNL     1      51.283   7.893  15.690  0.00  0.00    +0.000 C 
BRANCH  21  22
ATOM     22  N   UNL     1      51.541   6.489  16.107  0.00  0.00    +0.000 NA
BRANCH  22  23
ATOM     23  C   UNL     1      52.989   6.270  16.354  0.00  0.00    +0.000 C 
BRANCH  23  24
ATOM     24  C   UNL     1      53.946   7.068  15.444  0.00  0.00    +0.000 C 
BRANCH  24  25
ATOM     25  O   UNL     1      54.522   6.217  14.454  0.00  0.00    +0.000 OA
ATOM     26  H   UNL     1      54.103   6.438  13.604  0.00  0.00    +0.000 HD
ENDBRANCH  24  25
ENDBRANCH  23  24
ENDBRANCH  22  23
BRANCH  22  27
ATOM     27  C   UNL     1      50.770   6.187  17.332  0.00  0.00    +0.000 C 
BRANCH  27  28
ATOM     28  C   UNL     1      49.749   5.081  17.185  0.00  0.00    +0.000 A 
ATOM     29  C   UNL     1      50.080   3.753  17.488  0.00  0.00    +0.000 A 
ATOM     30  C   UNL     1      49.108   2.754  17.438  0.00  0.00    +0.000 A 
ATOM     31  C   UNL     1      47.799   3.070  17.081  0.00  0.00    +0.000 A 
ATOM     32  C   UNL     1      47.463   4.382  16.753  0.00  0.00    +0.000 A 
ATOM     33  C   UNL     1      48.432   5.384  16.806  0.00  0.00    +0.000 A 
ENDBRANCH  27  28
ENDBRANCH  22  27
ENDBRANCH  21  22
ENDBRANCH   4  21
TORSDOF 9
ENDMDL
MODEL 8
REMARK VINA RESULT:    -6.995      2.254      9.221
REMARK INTER + INTRA:         -11.223
REMARK INTER:                  -9.538
REMARK INTRA:                  -1.684
REMARK UNBOUND:                -0.752
REMARK  Name = 
REMARK  9 active torsions:
REMARK  status: ('A' for Active; 'I' for Inactive)
REMARK    1  A    between atoms: N_3  and  C_4
REMARK    2  A    between atoms: C_4  and  C_5
REMARK    3  A    between atoms: C_8  and  C_9
REMARK    4  A    between atoms: C_9  and  N_10
REMARK    5  A    between atoms: N_10  and  C_11
REMARK    6  A    between atoms: N_10  and  C_14
REMARK    7  A    between atoms: C_11  and  C_12
REMARK    8  A    between atoms: C_12  and  O_13
REMARK    9  A    between atoms: C_14  and  C_15
REMARK                            x       y       z     vdW  Elec       q    Type
REMARK                         _______ _______ _______ _____ _____    ______ ____
ROOT
ATOM      1  C   UNL     1      48.191   8.215  14.514  0.00  0.00    +0.000 A 
ATOM      2  C   UNL     1      48.147   9.066  15.629  0.00  0.00    +0.000 A 
ATOM      3  C   UNL     1      49.113   8.968  16.632  0.00  0.00    +0.000 A 
ATOM      4  C   UNL     1      50.132   8.011  16.543  0.00  0.00    +0.000 A 
ATOM      5  C   UNL     1      50.234   7.236  15.380  0.00  0.00    +0.000 A 
ATOM      6  C   UNL     1      49.272   7.340  14.372  0.00  0.00    +0.000 A 
ENDROOT
BRANCH   1   7
ATOM      7  C   UNL     1      47.042   8.174  13.547  0.00  0.00    +0.000 C 
BRANCH   7  10
ATOM      8  O   UNL     1      45.176   7.631  11.574  0.00  0.00    +0.000 OA
ATOM      9  C   UNL     1      45.584   6.740  12.309  0.00  0.00    +0.000 C 
ATOM     10  N   UNL     1      46.473   6.864  13.349  0.00  0.00    +0.000 N 
ATOM     11  N   UNL     1      45.241   5.406  12.034  0.00  0.00    +0.000 N 
ATOM     12  C   UNL     1      44.829   4.453  12.951  0.00  0.00    +0.000 A 
ATOM     13  C   UNL     1      44.477   3.312  12.263  0.00  0.00    +0.000 A 
ATOM     14  C   UNL     1      44.761   3.530  10.887  0.00  0.00    +0.000 A 
ATOM     15  C   UNL     1      44.670   2.744   9.731  0.00  0.00    +0.000 A 
ATOM     16  C   UNL     1      45.093   3.330   8.548  0.00  0.00    +0.000 A 
ATOM     17  N   UNL     1      45.561   4.590   8.437  0.00  0.00    +0.000 NA
ATOM     18  C   UNL     1      45.618   5.368   9.542  0.00  0.00    +0.000 A 
ATOM     19  C   UNL     1      45.222   4.840  10.769  0.00  0.00    +0.000 A 
ATOM     20  H   UNL     1      46.998   6.055  13.655  0.00  0.00    +0.000 HD
ENDBRANCH   7  10
ENDBRANCH   1   7
BRANCH   4  21
ATOM     21  C   UNL     1      51.082   7.791  17.704  0.00  0.00    +0.000 C 
BRANCH  21  22
ATOM     22  N   UNL     1      51.099   6.393  18.213  0.00  0.00    +0.000 NA
BRANCH  22  23
ATOM     23  C   UNL     1      52.082   6.247  19.318  0.00  0.00    +0.000 C 
BRANCH  23  24
ATOM     24  C   UNL     1      51.515   5.693  20.642  0.00  0.00    +0.000 C 
BRANCH  24  25
ATOM     25  O   UNL     1      51.807   4.303  20.770  0.00  0.00    +0.000 OA
ATOM     26  H   UNL     1      50.994   3.816  20.548  0.00  0.00    +0.000 HD
ENDBRANCH  24  25
ENDBRANCH  23  24
ENDBRANCH  22  23
BRANCH  22  27
ATOM     27  C   UNL     1      49.749   6.023  18.688  0.00  0.00    +0.000 C 
BRANCH  27  28
ATOM     28  C   UNL     1      49.102   4.880  17.938  0.00  0.00    +0.000 A 
ATOM     29  C   UNL     1      47.866   5.050  17.298  0.00  0.00    +0.000 A 
ATOM     30  C   UNL     1      47.320   4.019  16.532  0.00  0.00    +0.000 A 
ATOM     31  C   UNL     1      48.000   2.810  16.402  0.00  0.00    +0.000 A 
ATOM     32  C   UNL     1      49.218   2.620  17.054  0.00  0.00    +0.000 A 
ATOM     33  C   UNL     1      49.767   3.650  17.818  0.00  0.00    +0.000 A 
ENDBRANCH  27  28
ENDBRANCH  22  27
ENDBRANCH  21  22
ENDBRANCH   4  21
TORSDOF 9
ENDMDL
MODEL 9
REMARK VINA RESULT:    -6.453      4.418      9.524
REMARK INTER + INTRA:         -10.411
REMARK INTER:                  -8.619
REMARK INTRA:                  -1.792
REMARK UNBOUND:                -0.752
REMARK  Name = 
REMARK  9 active torsions:
REMARK  status: ('A' for Active; 'I' for Inactive)
REMARK    1  A    between atoms: N_3  and  C_4
REMARK    2  A    between atoms: C_4  and  C_5
REMARK    3  A    between atoms: C_8  and  C_9
REMARK    4  A    between atoms: C_9  and  N_10
REMARK    5  A    between atoms: N_10  and  C_11
REMARK    6  A    between atoms: N_10  and  C_14
REMARK    7  A    between atoms: C_11  and  C_12
REMARK    8  A    between atoms: C_12  and  O_13
REMARK    9  A    between atoms: C_14  and  C_15
REMARK                            x       y       z     vdW  Elec       q    Type
REMARK                         _______ _______ _______ _____ _____    ______ ____
ROOT
ATOM      1  C   UNL     1      47.587   8.283  12.866  0.00  0.00    +0.000 A 
ATOM      2  C   UNL     1      48.521   7.276  13.152  0.00  0.00    +0.000 A 
ATOM      3  C   UNL     1      49.786   7.297  12.562  0.00  0.00    +0.000 A 
ATOM      4  C   UNL     1      50.136   8.319  11.670  0.00  0.00    +0.000 A 
ATOM      5  C   UNL     1      49.240   9.378  11.469  0.00  0.00    +0.000 A 
ATOM      6  C   UNL     1      47.977   9.361  12.065  0.00  0.00    +0.000 A 
ENDROOT
BRANCH   1   7
ATOM      7  C   UNL     1      46.163   8.148  13.326  0.00  0.00    +0.000 C 
BRANCH   7  10
ATOM      8  O   UNL     1      44.743   7.517  11.035  0.00  0.00    +0.000 OA
ATOM      9  C   UNL     1      44.934   6.673  11.902  0.00  0.00    +0.000 C 
ATOM     10  N   UNL     1      45.582   6.848  13.101  0.00  0.00    +0.000 N 
ATOM     11  N   UNL     1      44.588   5.335  11.654  0.00  0.00    +0.000 N 
ATOM     12  C   UNL     1      43.937   4.475  12.523  0.00  0.00    +0.000 A 
ATOM     13  C   UNL     1      43.682   3.295  11.856  0.00  0.00    +0.000 A 
ATOM     14  C   UNL     1      44.268   3.392  10.565  0.00  0.00    +0.000 A 
ATOM     15  C   UNL     1      44.388   2.519   9.476  0.00  0.00    +0.000 A 
ATOM     16  C   UNL     1      45.088   2.991   8.377  0.00  0.00    +0.000 A 
ATOM     17  N   UNL     1      45.635   4.220   8.282  0.00  0.00    +0.000 NA
ATOM     18  C   UNL     1      45.493   5.082   9.315  0.00  0.00    +0.000 A 
ATOM     19  C   UNL     1      44.814   4.670  10.459  0.00  0.00    +0.000 A 
ATOM     20  H   UNL     1      45.984   6.047  13.571  0.00  0.00    +0.000 HD
ENDBRANCH   7  10
ENDBRANCH   1   7
BRANCH   4  21
ATOM     21  C   UNL     1      51.443   8.256  10.904  0.00  0.00    +0.000 C 
BRANCH  21  22
ATOM     22  N   UNL     1      52.647   8.167  11.772  0.00  0.00    +0.000 NA
BRANCH  22  23
ATOM     23  C   UNL     1      53.795   7.593  11.023  0.00  0.00    +0.000 C 
BRANCH  23  24
ATOM     24  C   UNL     1      53.426   6.609   9.894  0.00  0.00    +0.000 C 
BRANCH  24  25
ATOM     25  O   UNL     1      53.414   5.268  10.381  0.00  0.00    +0.000 OA
ATOM     26  H   UNL     1      52.801   5.241  11.136  0.00  0.00    +0.000 HD
ENDBRANCH  24  25
ENDBRANCH  23  24
ENDBRANCH  22  23
BRANCH  22  27
ATOM     27  C   UNL     1      52.996   9.512  12.275  0.00  0.00    +0.000 C 
BRANCH  27  28
ATOM     28  C   UNL     1      52.286   9.920  13.547  0.00  0.00    +0.000 A 
ATOM     29  C   UNL     1      51.614  11.147  13.632  0.00  0.00    +0.000 A 
ATOM     30  C   UNL     1      50.885  11.475  14.776  0.00  0.00    +0.000 A 
ATOM     31  C   UNL     1      50.826  10.585  15.845  0.00  0.00    +0.000 A 
ATOM     32  C   UNL     1      51.511   9.372  15.782  0.00  0.00    +0.000 A 
ATOM     33  C   UNL     1      52.237   9.040  14.639  0.00  0.00    +0.000 A 
ENDBRANCH  27  28
ENDBRANCH  22  27
ENDBRANCH  21  22
ENDBRANCH   4  21
TORSDOF 9
ENDMDL
