MODEL 1
REMARK VINA RESULT:    -8.312      0.000      0.000
REMARK INTER + INTRA:         -10.515
REMARK INTER:                 -10.741
REMARK INTRA:                   0.226
REMARK UNBOUND:                 0.226
REMARK  Name = 
REMARK  7 active torsions:
REMARK  status: ('A' for Active; 'I' for Inactive)
REMARK    1  A    between atoms: C_1  and  C_2
REMARK    2  A    between atoms: C_2  and  C_3
REMARK    3  A    between atoms: C_2  and  C_4
REMARK    4  A    between atoms: C_2  and  N_18
REMARK    5  A    between atoms: C_5  and  C_6
REMARK    6  A    between atoms: C_10  and  C_11
REMARK    7  A    between atoms: C_22  and  C_23
REMARK                            x       y       z     vdW  Elec       q    Type
REMARK                         _______ _______ _______ _____ _____    ______ ____
ROOT
ATOM      1  C   UNL     1      43.310   3.279  11.630  0.00  0.00    +0.000 C 
ATOM      2  C   UNL     1      43.524   4.792  11.409  0.00  0.00    +0.000 C 
ATOM      3  C   UNL     1      42.193   5.489  11.756  0.00  0.00    +0.000 C 
ENDROOT
BRANCH   2   4
ATOM      4  N   UNL     1      43.875   4.978   9.987  0.00  0.00    +0.000 N 
ATOM      5  C   UNL     1      44.662   4.029   9.325  0.00  0.00    +0.000 A 
ATOM      6  C   UNL     1      44.962   4.233   7.979  0.00  0.00    +0.000 A 
ATOM      7  C   UNL     1      45.742   3.297   7.292  0.00  0.00    +0.000 A 
ATOM      8  C   UNL     1      46.204   2.160   7.954  0.00  0.00    +0.000 A 
ATOM      9  C   UNL     1      45.842   2.023   9.280  0.00  0.00    +0.000 A 
ATOM     10  N   UNL     1      45.089   2.921   9.958  0.00  0.00    +0.000 NA
ATOM     11  H   UNL     1      44.260   5.901   9.815  0.00  0.00    +0.000 HD
BRANCH   8  12
ATOM     12  C   UNL     1      47.044   1.176   7.234  0.00  0.00    +0.000 C 
ATOM     13  N   UNL     1      48.023   1.624   6.392  0.00  0.00    +0.000 N 
ATOM     14  O   UNL     1      46.867  -0.029   7.377  0.00  0.00    +0.000 OA
ATOM     15  H   UNL     1      48.233   2.586   6.176  0.00  0.00    +0.000 HD
ATOM     16  H   UNL     1      48.555   0.911   5.910  0.00  0.00    +0.000 HD
ENDBRANCH   8  12
ENDBRANCH   2   4
BRANCH   2  17
ATOM     17  C   UNL     1      44.723   5.178  12.248  0.00  0.00    +0.000 C 
ATOM     18  C   UNL     1      45.515   6.249  12.078  0.00  0.00    +0.000 C 
BRANCH  18  19
ATOM     19  C   UNL     1      46.714   6.414  12.894  0.00  0.00    +0.000 A 
ATOM     20  C   UNL     1      47.626   7.432  12.630  0.00  0.00    +0.000 A 
ATOM     21  C   UNL     1      48.740   7.587  13.450  0.00  0.00    +0.000 A 
ATOM     22  C   UNL     1      48.928   6.739  14.547  0.00  0.00    +0.000 A 
ATOM     23  C   UNL     1      47.997   5.732  14.868  0.00  0.00    +0.000 A 
ATOM     24  C   UNL     1      46.903   5.576  14.001  0.00  0.00    +0.000 A 
BRANCH  23  25
ATOM     25  C   UNL     1      48.097   4.935  16.114  0.00  0.00    +0.000 A 
ATOM     26  C   UNL     1      47.178   3.906  16.386  0.00  0.00    +0.000 A 
ATOM     27  C   UNL     1      47.322   3.069  17.496  0.00  0.00    +0.000 A 
ATOM     28  C   UNL     1      48.396   3.239  18.361  0.00  0.00    +0.000 A 
ATOM     29  C   UNL     1      49.312   4.262  18.131  0.00  0.00    +0.000 A 
ATOM     30  C   UNL     1      49.155   5.107  17.026  0.00  0.00    +0.000 A 
ENDBRANCH  23  25
ENDBRANCH  18  19
ENDBRANCH   2  17
TORSDOF 5
ENDMDL
MODEL 2
REMARK VINA RESULT:    -8.221      1.552      2.023
REMARK INTER + INTRA:         -10.398
REMARK INTER:                 -10.038
REMARK INTRA:                  -0.360
REMARK UNBOUND:                 0.226
REMARK  Name = 
REMARK  7 active torsions:
REMARK  status: ('A' for Active; 'I' for Inactive)
REMARK    1  A    between atoms: C_1  and  C_2
REMARK    2  A    between atoms: C_2  and  C_3
REMARK    3  A    between atoms: C_2  and  C_4
REMARK    4  A    between atoms: C_2  and  N_18
REMARK    5  A    between atoms: C_5  and  C_6
REMARK    6  A    between atoms: C_10  and  C_11
REMARK    7  A    between atoms: C_22  and  C_23
REMARK                            x       y       z     vdW  Elec       q    Type
REMARK                         _______ _______ _______ _____ _____    ______ ____
ROOT
ATOM      1  C   UNL     1      43.224   4.472  12.874  0.00  0.00    +0.000 C 
ATOM      2  C   UNL     1      44.063   4.688  11.596  0.00  0.00    +0.000 C 
ATOM      3  C   UNL     1      43.235   5.594  10.664  0.00  0.00    +0.000 C 
ENDROOT
BRANCH   2   4
ATOM      4  N   UNL     1      44.288   3.359  10.995  0.00  0.00    +0.000 N 
ATOM      5  C   UNL     1      45.014   3.237   9.804  0.00  0.00    +0.000 A 
ATOM      6  C   UNL     1      45.217   1.965   9.273  0.00  0.00    +0.000 A 
ATOM      7  C   UNL     1      45.945   1.815   8.087  0.00  0.00    +0.000 A 
ATOM      8  C   UNL     1      46.472   2.937   7.452  0.00  0.00    +0.000 A 
ATOM      9  C   UNL     1      46.246   4.158   8.057  0.00  0.00    +0.000 A 
ATOM     10  N   UNL     1      45.542   4.319   9.203  0.00  0.00    +0.000 NA
ATOM     11  H   UNL     1      43.422   2.837  10.905  0.00  0.00    +0.000 HD
BRANCH   8  12
ATOM     12  C   UNL     1      47.228   2.784   6.188  0.00  0.00    +0.000 C 
ATOM     13  N   UNL     1      48.554   2.456   6.240  0.00  0.00    +0.000 N 
ATOM     14  O   UNL     1      46.685   2.956   5.102  0.00  0.00    +0.000 OA
ATOM     15  H   UNL     1      49.107   2.325   7.073  0.00  0.00    +0.000 HD
ATOM     16  H   UNL     1      49.030   2.384   5.350  0.00  0.00    +0.000 HD
ENDBRANCH   8  12
ENDBRANCH   2   4
BRANCH   2  17
ATOM     17  C   UNL     1      45.399   5.235  12.052  0.00  0.00    +0.000 C 
ATOM     18  C   UNL     1      45.807   6.513  11.999  0.00  0.00    +0.000 C 
BRANCH  18  19
ATOM     19  C   UNL     1      47.178   6.862  12.358  0.00  0.00    +0.000 A 
ATOM     20  C   UNL     1      47.984   7.589  11.486  0.00  0.00    +0.000 A 
ATOM     21  C   UNL     1      49.274   7.940  11.873  0.00  0.00    +0.000 A 
ATOM     22  C   UNL     1      49.749   7.583  13.141  0.00  0.00    +0.000 A 
ATOM     23  C   UNL     1      48.940   6.891  14.062  0.00  0.00    +0.000 A 
ATOM     24  C   UNL     1      47.656   6.519  13.630  0.00  0.00    +0.000 A 
BRANCH  23  25
ATOM     25  C   UNL     1      49.369   6.650  15.461  0.00  0.00    +0.000 A 
ATOM     26  C   UNL     1      48.542   5.946  16.355  0.00  0.00    +0.000 A 
ATOM     27  C   UNL     1      48.974   5.608  17.640  0.00  0.00    +0.000 A 
ATOM     28  C   UNL     1      50.251   5.963  18.062  0.00  0.00    +0.000 A 
ATOM     29  C   UNL     1      51.084   6.678  17.207  0.00  0.00    +0.000 A 
ATOM     30  C   UNL     1      50.642   7.027  15.926  0.00  0.00    +0.000 A 
ENDBRANCH  23  25
ENDBRANCH  18  19
ENDBRANCH   2  17
TORSDOF 5
ENDMDL
MODEL 3
REMARK VINA RESULT:    -8.093      2.408      4.649
REMARK INTER + INTRA:         -10.233
REMARK INTER:                 -10.049
REMARK INTRA:                  -0.184
REMARK UNBOUND:                 0.226
REMARK  Name = 
REMARK  7 active torsions:
REMARK  status: ('A' for Active; 'I' for Inactive)
REMARK    1  A    between atoms: C_1  and  C_2
REMARK    2  A    between atoms: C_2  and  C_3
REMARK    3  A    between atoms: C_2  and  C_4
REMARK    4  A    between atoms: C_2  and  N_18
REMARK    5  A    between atoms: C_5  and  C_6
REMARK    6  A    between atoms: C_10  and  C_11
REMARK    7  A    between atoms: C_22  and  C_23
REMARK                            x       y       z     vdW  Elec       q    Type
REMARK                         _______ _______ _______ _____ _____    ______ ____
ROOT
ATOM      1  C   UNL     1      42.901   4.751  12.894  0.00  0.00    +0.000 C 
ATOM      2  C   UNL     1      43.889   4.915  11.718  0.00  0.00    +0.000 C 
ATOM      3  C   UNL     1      43.191   5.798  10.665  0.00  0.00    +0.000 C 
ENDROOT
BRANCH   2   4
ATOM      4  N   UNL     1      44.164   3.564  11.191  0.00  0.00    +0.000 N 
ATOM      5  C   UNL     1      44.886   3.405  10.002  0.00  0.00    +0.000 A 
ATOM      6  C   UNL     1      45.137   2.114   9.542  0.00  0.00    +0.000 A 
ATOM      7  C   UNL     1      45.861   1.926   8.359  0.00  0.00    +0.000 A 
ATOM      8  C   UNL     1      46.336   3.031   7.655  0.00  0.00    +0.000 A 
ATOM      9  C   UNL     1      46.063   4.274   8.192  0.00  0.00    +0.000 A 
ATOM     10  N   UNL     1      45.363   4.471   9.334  0.00  0.00    +0.000 NA
ATOM     11  H   UNL     1      43.320   3.003  11.140  0.00  0.00    +0.000 HD
BRANCH   8  12
ATOM     12  C   UNL     1      47.088   2.837   6.395  0.00  0.00    +0.000 C 
ATOM     13  N   UNL     1      48.414   2.511   6.453  0.00  0.00    +0.000 N 
ATOM     14  O   UNL     1      46.541   2.974   5.305  0.00  0.00    +0.000 OA
ATOM     15  H   UNL     1      48.969   2.407   7.287  0.00  0.00    +0.000 HD
ATOM     16  H   UNL     1      48.886   2.410   5.563  0.00  0.00    +0.000 HD
ENDBRANCH   8  12
ENDBRANCH   2   4
BRANCH   2  17
ATOM     17  C   UNL     1      45.169   5.463  12.312  0.00  0.00    +0.000 C 
ATOM     18  C   UNL     1      45.905   6.482  11.840  0.00  0.00    +0.000 C 
BRANCH  18  19
ATOM     19  C   UNL     1      47.189   6.808  12.454  0.00  0.00    +0.000 A 
ATOM     20  C   UNL     1      47.482   6.409  13.755  0.00  0.00    +0.000 A 
ATOM     21  C   UNL     1      48.729   6.701  14.299  0.00  0.00    +0.000 A 
ATOM     22  C   UNL     1      49.690   7.372  13.533  0.00  0.00    +0.000 A 
ATOM     23  C   UNL     1      49.439   7.745  12.199  0.00  0.00    +0.000 A 
ATOM     24  C   UNL     1      48.159   7.469  11.689  0.00  0.00    +0.000 A 
BRANCH  23  25
ATOM     25  C   UNL     1      50.498   8.308  11.326  0.00  0.00    +0.000 A 
ATOM     26  C   UNL     1      50.660   9.699  11.198  0.00  0.00    +0.000 A 
ATOM     27  C   UNL     1      51.721  10.249  10.474  0.00  0.00    +0.000 A 
ATOM     28  C   UNL     1      52.652   9.418   9.862  0.00  0.00    +0.000 A 
ATOM     29  C   UNL     1      52.507   8.036   9.953  0.00  0.00    +0.000 A 
ATOM     30  C   UNL     1      51.434   7.490  10.667  0.00  0.00    +0.000 A 
ENDBRANCH  23  25
ENDBRANCH  18  19
ENDBRANCH   2  17
TORSDOF 5
ENDMDL
MODEL 4
REMARK VINA RESULT:    -7.918      2.720      5.144
REMARK INTER + INTRA:         -10.006
REMARK INTER:                  -9.637
REMARK INTRA:                  -0.369
REMARK UNBOUND:                 0.226
REMARK  Name = 
REMARK  7 active torsions:
REMARK  status: ('A' for Active; 'I' for Inactive)
REMARK    1  A    between atoms: C_1  and  C_2
REMARK    2  A    between atoms: C_2  and  C_3
REMARK    3  A    between atoms: C_2  and  C_4
REMARK    4  A    between atoms: C_2  and  N_18
REMARK    5  A    between atoms: C_5  and  C_6
REMARK    6  A    between atoms: C_10  and  C_11
REMARK    7  A    between atoms: C_22  and  C_23
REMARK                            x       y       z     vdW  Elec       q    Type
REMARK                         _______ _______ _______ _____ _____    ______ ____
ROOT
ATOM      1  C   UNL     1      43.511   4.601  12.945  0.00  0.00    +0.000 C 
ATOM      2  C   UNL     1      44.006   4.784  11.494  0.00  0.00    +0.000 C 
ATOM      3  C   UNL     1      42.832   5.380  10.692  0.00  0.00    +0.000 C 
ENDROOT
BRANCH   2   4
ATOM      4  N   UNL     1      44.378   3.447  10.991  0.00  0.00    +0.000 N 
ATOM      5  C   UNL     1      45.080   3.318   9.786  0.00  0.00    +0.000 A 
ATOM      6  C   UNL     1      45.426   2.040   9.349  0.00  0.00    +0.000 A 
ATOM      7  C   UNL     1      46.132   1.883   8.152  0.00  0.00    +0.000 A 
ATOM      8  C   UNL     1      46.496   3.006   7.410  0.00  0.00    +0.000 A 
ATOM      9  C   UNL     1      46.135   4.235   7.925  0.00  0.00    +0.000 A 
ATOM     10  N   UNL     1      45.450   4.403   9.081  0.00  0.00    +0.000 NA
ATOM     11  H   UNL     1      43.582   2.817  10.976  0.00  0.00    +0.000 HD
BRANCH   8  12
ATOM     12  C   UNL     1      47.228   2.842   6.134  0.00  0.00    +0.000 C 
ATOM     13  N   UNL     1      48.528   2.420   6.161  0.00  0.00    +0.000 N 
ATOM     14  O   UNL     1      46.689   3.088   5.060  0.00  0.00    +0.000 OA
ATOM     15  H   UNL     1      49.077   2.223   6.982  0.00  0.00    +0.000 HD
ATOM     16  H   UNL     1      48.990   2.345   5.263  0.00  0.00    +0.000 HD
ENDBRANCH   8  12
ENDBRANCH   2   4
BRANCH   2  17
ATOM     17  C   UNL     1      45.260   5.627  11.576  0.00  0.00    +0.000 C 
ATOM     18  C   UNL     1      46.113   5.706  12.610  0.00  0.00    +0.000 C 
BRANCH  18  19
ATOM     19  C   UNL     1      47.211   6.668  12.585  0.00  0.00    +0.000 A 
ATOM     20  C   UNL     1      48.514   6.274  12.877  0.00  0.00    +0.000 A 
ATOM     21  C   UNL     1      49.546   7.206  12.807  0.00  0.00    +0.000 A 
ATOM     22  C   UNL     1      49.276   8.525  12.423  0.00  0.00    +0.000 A 
ATOM     23  C   UNL     1      47.976   8.940  12.076  0.00  0.00    +0.000 A 
ATOM     24  C   UNL     1      46.950   7.987  12.191  0.00  0.00    +0.000 A 
BRANCH  23  25
ATOM     25  C   UNL     1      47.702  10.284  11.514  0.00  0.00    +0.000 A 
ATOM     26  C   UNL     1      48.696  10.984  10.806  0.00  0.00    +0.000 A 
ATOM     27  C   UNL     1      48.425  12.199  10.170  0.00  0.00    +0.000 A 
ATOM     28  C   UNL     1      47.147  12.742  10.223  0.00  0.00    +0.000 A 
ATOM     29  C   UNL     1      46.147  12.084  10.934  0.00  0.00    +0.000 A 
ATOM     30  C   UNL     1      46.427  10.875  11.581  0.00  0.00    +0.000 A 
ENDBRANCH  23  25
ENDBRANCH  18  19
ENDBRANCH   2  17
TORSDOF 5
ENDMDL
MODEL 5
REMARK VINA RESULT:    -7.726      3.084      7.737
REMARK INTER + INTRA:          -9.758
REMARK INTER:                 -10.106
REMARK INTRA:                   0.347
REMARK UNBOUND:                 0.226
REMARK  Name = 
REMARK  7 active torsions:
REMARK  status: ('A' for Active; 'I' for Inactive)
REMARK    1  A    between atoms: C_1  and  C_2
REMARK    2  A    between atoms: C_2  and  C_3
REMARK    3  A    between atoms: C_2  and  C_4
REMARK    4  A    between atoms: C_2  and  N_18
REMARK    5  A    between atoms: C_5  and  C_6
REMARK    6  A    between atoms: C_10  and  C_11
REMARK    7  A    between atoms: C_22  and  C_23
REMARK                            x       y       z     vdW  Elec       q    Type
REMARK                         _______ _______ _______ _____ _____    ______ ____
ROOT
ATOM      1  C   UNL     1      49.558   8.555  11.880  0.00  0.00    +0.000 C 
ATOM      2  C   UNL     1      48.225   8.764  12.631  0.00  0.00    +0.000 C 
ATOM      3  C   UNL     1      47.804  10.228  12.398  0.00  0.00    +0.000 C 
ENDROOT
BRANCH   2   4
ATOM      4  N   UNL     1      48.485   8.499  14.059  0.00  0.00    +0.000 N 
ATOM      5  C   UNL     1      48.294   7.215  14.585  0.00  0.00    +0.000 A 
ATOM      6  C   UNL     1      48.561   7.000  15.935  0.00  0.00    +0.000 A 
ATOM      7  C   UNL     1      48.384   5.726  16.484  0.00  0.00    +0.000 A 
ATOM      8  C   UNL     1      47.953   4.677  15.674  0.00  0.00    +0.000 A 
ATOM      9  C   UNL     1      47.733   4.970  14.343  0.00  0.00    +0.000 A 
ATOM     10  N   UNL     1      47.898   6.198  13.798  0.00  0.00    +0.000 NA
ATOM     11  H   UNL     1      48.014   9.171  14.656  0.00  0.00    +0.000 HD
BRANCH   8  12
ATOM     12  C   UNL     1      47.747   3.331  16.256  0.00  0.00    +0.000 C 
ATOM     13  N   UNL     1      46.829   3.169  17.255  0.00  0.00    +0.000 N 
ATOM     14  O   UNL     1      48.394   2.367  15.860  0.00  0.00    +0.000 OA
ATOM     15  H   UNL     1      46.269   3.892  17.677  0.00  0.00    +0.000 HD
ATOM     16  H   UNL     1      46.742   2.233  17.631  0.00  0.00    +0.000 HD
ENDBRANCH   8  12
ENDBRANCH   2   4
BRANCH   2  17
ATOM     17  C   UNL     1      47.277   7.703  12.116  0.00  0.00    +0.000 C 
ATOM     18  C   UNL     1      46.010   7.883  11.707  0.00  0.00    +0.000 C 
BRANCH  18  19
ATOM     19  C   UNL     1      45.179   6.734  11.360  0.00  0.00    +0.000 A 
ATOM     20  C   UNL     1      43.867   6.637  11.813  0.00  0.00    +0.000 A 
ATOM     21  C   UNL     1      43.087   5.548  11.434  0.00  0.00    +0.000 A 
ATOM     22  C   UNL     1      43.614   4.570  10.581  0.00  0.00    +0.000 A 
ATOM     23  C   UNL     1      44.921   4.668  10.068  0.00  0.00    +0.000 A 
ATOM     24  C   UNL     1      45.696   5.758  10.498  0.00  0.00    +0.000 A 
BRANCH  23  25
ATOM     25  C   UNL     1      45.435   3.731   9.040  0.00  0.00    +0.000 A 
ATOM     26  C   UNL     1      46.131   4.208   7.915  0.00  0.00    +0.000 A 
ATOM     27  C   UNL     1      46.723   3.338   6.996  0.00  0.00    +0.000 A 
ATOM     28  C   UNL     1      46.636   1.963   7.183  0.00  0.00    +0.000 A 
ATOM     29  C   UNL     1      45.936   1.459   8.276  0.00  0.00    +0.000 A 
ATOM     30  C   UNL     1      45.333   2.335   9.186  0.00  0.00    +0.000 A 
ENDBRANCH  23  25
ENDBRANCH  18  19
ENDBRANCH   2  17
TORSDOF 5
ENDMDL
MODEL 6
REMARK VINA RESULT:    -7.413      4.598      8.351
REMARK INTER + INTRA:          -9.354
REMARK INTER:                  -9.552
REMARK INTRA:                   0.198
REMARK UNBOUND:                 0.226
REMARK  Name = 
REMARK  7 active torsions:
REMARK  status: ('A' for Active; 'I' for Inactive)
REMARK    1  A    between atoms: C_1  and  C_2
REMARK    2  A    between atoms: C_2  and  C_3
REMARK    3  A    between atoms: C_2  and  C_4
REMARK    4  A    between atoms: C_2  and  N_18
REMARK    5  A    between atoms: C_5  and  C_6
REMARK    6  A    between atoms: C_10  and  C_11
REMARK    7  A    between atoms: C_22  and  C_23
REMARK                            x       y       z     vdW  Elec       q    Type
REMARK                         _______ _______ _______ _____ _____    ______ ____
ROOT
ATOM      1  C   UNL     1      45.587   9.508  12.263  0.00  0.00    +0.000 C 
ATOM      2  C   UNL     1      46.746   8.521  12.516  0.00  0.00    +0.000 C 
ATOM      3  C   UNL     1      47.066   8.581  14.023  0.00  0.00    +0.000 C 
ENDROOT
BRANCH   2   4
ATOM      4  N   UNL     1      47.891   8.978  11.705  0.00  0.00    +0.000 N 
ATOM      5  C   UNL     1      49.199   8.826  12.180  0.00  0.00    +0.000 A 
ATOM      6  C   UNL     1      50.255   9.258  11.380  0.00  0.00    +0.000 A 
ATOM      7  C   UNL     1      51.572   9.113  11.829  0.00  0.00    +0.000 A 
ATOM      8  C   UNL     1      51.820   8.525  13.068  0.00  0.00    +0.000 A 
ATOM      9  C   UNL     1      50.719   8.103  13.788  0.00  0.00    +0.000 A 
ATOM     10  N   UNL     1      49.439   8.239  13.367  0.00  0.00    +0.000 NA
ATOM     11  H   UNL     1      47.767   9.934  11.387  0.00  0.00    +0.000 HD
BRANCH   8  12
ATOM     12  C   UNL     1      53.211   8.385  13.554  0.00  0.00    +0.000 C 
ATOM     13  N   UNL     1      53.520   7.360  14.405  0.00  0.00    +0.000 N 
ATOM     14  O   UNL     1      54.083   9.177  13.213  0.00  0.00    +0.000 OA
ATOM     15  H   UNL     1      52.881   6.675  14.774  0.00  0.00    +0.000 HD
ATOM     16  H   UNL     1      54.480   7.321  14.723  0.00  0.00    +0.000 HD
ENDBRANCH   8  12
ENDBRANCH   2   4
BRANCH   2  17
ATOM     17  C   UNL     1      46.289   7.181  11.980  0.00  0.00    +0.000 C 
ATOM     18  C   UNL     1      45.151   6.924  11.315  0.00  0.00    +0.000 C 
BRANCH  18  19
ATOM     19  C   UNL     1      44.792   5.551  10.976  0.00  0.00    +0.000 A 
ATOM     20  C   UNL     1      43.722   4.916  11.601  0.00  0.00    +0.000 A 
ATOM     21  C   UNL     1      43.379   3.619  11.229  0.00  0.00    +0.000 A 
ATOM     22  C   UNL     1      44.092   2.968  10.216  0.00  0.00    +0.000 A 
ATOM     23  C   UNL     1      45.147   3.603   9.533  0.00  0.00    +0.000 A 
ATOM     24  C   UNL     1      45.493   4.897   9.955  0.00  0.00    +0.000 A 
BRANCH  23  25
ATOM     25  C   UNL     1      45.802   2.989   8.352  0.00  0.00    +0.000 A 
ATOM     26  C   UNL     1      46.124   3.766   7.224  0.00  0.00    +0.000 A 
ATOM     27  C   UNL     1      46.845   3.234   6.151  0.00  0.00    +0.000 A 
ATOM     28  C   UNL     1      47.266   1.910   6.183  0.00  0.00    +0.000 A 
ATOM     29  C   UNL     1      46.945   1.110   7.275  0.00  0.00    +0.000 A 
ATOM     30  C   UNL     1      46.211   1.643   8.342  0.00  0.00    +0.000 A 
ENDBRANCH  23  25
ENDBRANCH  18  19
ENDBRANCH   2  17
TORSDOF 5
ENDMDL
MODEL 7
REMARK VINA RESULT:    -7.407      2.763      5.382
REMARK INTER + INTRA:          -9.346
REMARK INTER:                  -9.089
REMARK INTRA:                  -0.257
REMARK UNBOUND:                 0.226
REMARK  Name = 
REMARK  7 active torsions:
REMARK  status: ('A' for Active; 'I' for Inactive)
REMARK    1  A    between atoms: C_1  and  C_2
REMARK    2  A    between atoms: C_2  and  C_3
REMARK    3  A    between atoms: C_2  and  C_4
REMARK    4  A    between atoms: C_2  and  N_18
REMARK    5  A    between atoms: C_5  and  C_6
REMARK    6  A    between atoms: C_10  and  C_11
REMARK    7  A    between atoms: C_22  and  C_23
REMARK                            x       y       z     vdW  Elec       q    Type
REMARK                         _______ _______ _______ _____ _____    ______ ____
ROOT
ATOM      1  C   UNL     1      48.580   8.996  14.848  0.00  0.00    +0.000 C 
ATOM      2  C   UNL     1      48.174   7.858  13.886  0.00  0.00    +0.000 C 
ATOM      3  C   UNL     1      49.176   7.882  12.715  0.00  0.00    +0.000 C 
ENDROOT
BRANCH   2   4
ATOM      4  N   UNL     1      46.801   8.147  13.427  0.00  0.00    +0.000 N 
ATOM      5  C   UNL     1      46.095   7.200  12.675  0.00  0.00    +0.000 A 
ATOM      6  C   UNL     1      44.796   7.504  12.270  0.00  0.00    +0.000 A 
ATOM      7  C   UNL     1      44.067   6.573  11.523  0.00  0.00    +0.000 A 
ATOM      8  C   UNL     1      44.638   5.344  11.199  0.00  0.00    +0.000 A 
ATOM      9  C   UNL     1      45.920   5.114  11.659  0.00  0.00    +0.000 A 
ATOM     10  N   UNL     1      46.639   6.005  12.382  0.00  0.00    +0.000 NA
ATOM     11  H   UNL     1      46.745   9.046  12.959  0.00  0.00    +0.000 HD
BRANCH   8  12
ATOM     12  C   UNL     1      43.875   4.363  10.394  0.00  0.00    +0.000 C 
ATOM     13  N   UNL     1      43.940   4.425   9.030  0.00  0.00    +0.000 N 
ATOM     14  O   UNL     1      43.182   3.506  10.933  0.00  0.00    +0.000 OA
ATOM     15  H   UNL     1      44.448   5.104   8.485  0.00  0.00    +0.000 HD
ATOM     16  H   UNL     1      43.384   3.746   8.527  0.00  0.00    +0.000 HD
ENDBRANCH   8  12
ENDBRANCH   2   4
BRANCH   2  17
ATOM     17  C   UNL     1      48.140   6.592  14.715  0.00  0.00    +0.000 C 
ATOM     18  C   UNL     1      48.433   6.475  16.021  0.00  0.00    +0.000 C 
BRANCH  18  19
ATOM     19  C   UNL     1      48.479   5.158  16.648  0.00  0.00    +0.000 A 
ATOM     20  C   UNL     1      47.314   4.430  16.874  0.00  0.00    +0.000 A 
ATOM     21  C   UNL     1      47.395   3.161  17.439  0.00  0.00    +0.000 A 
ATOM     22  C   UNL     1      48.643   2.611  17.756  0.00  0.00    +0.000 A 
ATOM     23  C   UNL     1      49.840   3.303  17.494  0.00  0.00    +0.000 A 
ATOM     24  C   UNL     1      49.726   4.597  16.958  0.00  0.00    +0.000 A 
BRANCH  23  25
ATOM     25  C   UNL     1      51.170   2.672  17.673  0.00  0.00    +0.000 A 
ATOM     26  C   UNL     1      52.237   3.391  18.241  0.00  0.00    +0.000 A 
ATOM     27  C   UNL     1      53.462   2.781  18.524  0.00  0.00    +0.000 A 
ATOM     28  C   UNL     1      53.649   1.432  18.249  0.00  0.00    +0.000 A 
ATOM     29  C   UNL     1      52.619   0.698  17.667  0.00  0.00    +0.000 A 
ATOM     30  C   UNL     1      51.398   1.316  17.372  0.00  0.00    +0.000 A 
ENDBRANCH  23  25
ENDBRANCH  18  19
ENDBRANCH   2  17
TORSDOF 5
ENDMDL
MODEL 8
REMARK VINA RESULT:    -7.379      5.505      8.725
REMARK INTER + INTRA:          -9.311
REMARK INTER:                  -9.183
REMARK INTRA:                  -0.128
REMARK UNBOUND:                 0.226
REMARK  Name = 
REMARK  7 active torsions:
REMARK  status: ('A' for Active; 'I' for Inactive)
REMARK    1  A    between atoms: C_1  and  C_2
REMARK    2  A    between atoms: C_2  and  C_3
REMARK    3  A    between atoms: C_2  and  C_4
REMARK    4  A    between atoms: C_2  and  N_18
REMARK    5  A    between atoms: C_5  and  C_6
REMARK    6  A    between atoms: C_10  and  C_11
REMARK    7  A    between atoms: C_22  and  C_23
REMARK                            x       y       z     vdW  Elec       q    Type
REMARK                         _______ _______ _______ _____ _____    ______ ____
ROOT
ATOM      1  C   UNL     1      44.846  12.311  10.527  0.00  0.00    +0.000 C 
ATOM      2  C   UNL     1      43.662  11.322  10.602  0.00  0.00    +0.000 C 
ATOM      3  C   UNL     1      42.924  11.403   9.251  0.00  0.00    +0.000 C 
ENDROOT
BRANCH   2   4
ATOM      4  N   UNL     1      42.798  11.763  11.715  0.00  0.00    +0.000 N 
ATOM      5  C   UNL     1      41.443  11.413  11.737  0.00  0.00    +0.000 A 
ATOM      6  C   UNL     1      40.662  11.836  12.811  0.00  0.00    +0.000 A 
ATOM      7  C   UNL     1      39.306  11.495  12.860  0.00  0.00    +0.000 A 
ATOM      8  C   UNL     1      38.748  10.724  11.842  0.00  0.00    +0.000 A 
ATOM      9  C   UNL     1      39.597  10.326  10.827  0.00  0.00    +0.000 A 
ATOM     10  N   UNL     1      40.910  10.650  10.765  0.00  0.00    +0.000 NA
ATOM     11  H   UNL     1      42.882  12.760  11.882  0.00  0.00    +0.000 HD
BRANCH   8  12
ATOM     12  C   UNL     1      37.309  10.376  11.882  0.00  0.00    +0.000 C 
ATOM     13  N   UNL     1      36.939   9.062  11.798  0.00  0.00    +0.000 N 
ATOM     14  O   UNL     1      36.451  11.246  11.980  0.00  0.00    +0.000 OA
ATOM     15  H   UNL     1      37.554   8.273  11.683  0.00  0.00    +0.000 HD
ATOM     16  H   UNL     1      35.944   8.880  11.810  0.00  0.00    +0.000 HD
ENDBRANCH   8  12
ENDBRANCH   2   4
BRANCH   2  17
ATOM     17  C   UNL     1      44.254   9.977  10.965  0.00  0.00    +0.000 C 
ATOM     18  C   UNL     1      44.999   9.688  12.044  0.00  0.00    +0.000 C 
BRANCH  18  19
ATOM     19  C   UNL     1      45.607   8.369  12.185  0.00  0.00    +0.000 A 
ATOM     20  C   UNL     1      46.473   8.088  13.240  0.00  0.00    +0.000 A 
ATOM     21  C   UNL     1      47.006   6.810  13.370  0.00  0.00    +0.000 A 
ATOM     22  C   UNL     1      46.655   5.806  12.458  0.00  0.00    +0.000 A 
ATOM     23  C   UNL     1      45.745   6.047  11.412  0.00  0.00    +0.000 A 
ATOM     24  C   UNL     1      45.251   7.356  11.284  0.00  0.00    +0.000 A 
BRANCH  23  25
ATOM     25  C   UNL     1      45.240   4.958  10.541  0.00  0.00    +0.000 A 
ATOM     26  C   UNL     1      45.508   4.959   9.160  0.00  0.00    +0.000 A 
ATOM     27  C   UNL     1      45.142   3.887   8.343  0.00  0.00    +0.000 A 
ATOM     28  C   UNL     1      44.500   2.781   8.890  0.00  0.00    +0.000 A 
ATOM     29  C   UNL     1      44.203   2.760  10.249  0.00  0.00    +0.000 A 
ATOM     30  C   UNL     1      44.558   3.842  11.062  0.00  0.00    +0.000 A 
ENDBRANCH  23  25
ENDBRANCH  18  19
ENDBRANCH   2  17
TORSDOF 5
ENDMDL
MODEL 9
REMARK VINA RESULT:    -7.189      3.065      4.981
REMARK INTER + INTRA:          -9.064
REMARK INTER:                  -8.594
REMARK INTRA:                  -0.470
REMARK UNBOUND:                 0.226
REMARK  Name = 
REMARK  7 active torsions:
REMARK  status: ('A' for Active; 'I' for Inactive)
REMARK    1  A    between atoms: C_1  and  C_2
REMARK    2  A    between atoms: C_2  and  C_3
REMARK    3  A    between atoms: C_2  and  C_4
REMARK    4  A    between atoms: C_2  and  N_18
REMARK    5  A    between atoms: C_5  and  C_6
REMARK    6  A    between atoms: C_10  and  C_11
REMARK    7  A    between atoms: C_22  and  C_23
REMARK                            x       y       z     vdW  Elec       q    Type
REMARK                         _______ _______ _______ _____ _____    ______ ____
ROOT
ATOM      1  C   UNL     1      48.326  10.570  12.972  0.00  0.00    +0.000 C 
ATOM      2  C   UNL     1      48.074   9.061  12.765  0.00  0.00    +0.000 C 
ATOM      3  C   UNL     1      49.108   8.570  11.733  0.00  0.00    +0.000 C 
ENDROOT
BRANCH   2   4
ATOM      4  N   UNL     1      46.696   8.916  12.256  0.00  0.00    +0.000 N 
ATOM      5  C   UNL     1      46.116   7.647  12.139  0.00  0.00    +0.000 A 
ATOM      6  C   UNL     1      44.809   7.551  11.666  0.00  0.00    +0.000 A 
ATOM      7  C   UNL     1      44.204   6.296  11.544  0.00  0.00    +0.000 A 
ATOM      8  C   UNL     1      44.909   5.150  11.908  0.00  0.00    +0.000 A 
ATOM      9  C   UNL     1      46.191   5.334  12.388  0.00  0.00    +0.000 A 
ATOM     10  N   UNL     1      46.789   6.543  12.510  0.00  0.00    +0.000 NA
ATOM     11  H   UNL     1      46.564   9.419  11.384  0.00  0.00    +0.000 HD
BRANCH   8  12
ATOM     12  C   UNL     1      44.279   3.818  11.764  0.00  0.00    +0.000 C 
ATOM     13  N   UNL     1      44.795   2.758  12.457  0.00  0.00    +0.000 N 
ATOM     14  O   UNL     1      43.311   3.652  11.029  0.00  0.00    +0.000 OA
ATOM     15  H   UNL     1      45.602   2.772  13.059  0.00  0.00    +0.000 HD
ATOM     16  H   UNL     1      44.340   1.866  12.308  0.00  0.00    +0.000 HD
ENDBRANCH   8  12
ENDBRANCH   2   4
BRANCH   2  17
ATOM     17  C   UNL     1      48.141   8.426  14.138  0.00  0.00    +0.000 C 
ATOM     18  C   UNL     1      48.280   9.060  15.313  0.00  0.00    +0.000 C 
BRANCH  18  19
ATOM     19  C   UNL     1      48.461   8.296  16.544  0.00  0.00    +0.000 A 
ATOM     20  C   UNL     1      48.126   8.840  17.781  0.00  0.00    +0.000 A 
ATOM     21  C   UNL     1      48.273   8.073  18.932  0.00  0.00    +0.000 A 
ATOM     22  C   UNL     1      48.733   6.753  18.843  0.00  0.00    +0.000 A 
ATOM     23  C   UNL     1      49.033   6.160  17.602  0.00  0.00    +0.000 A 
ATOM     24  C   UNL     1      48.910   6.971  16.461  0.00  0.00    +0.000 A 
BRANCH  23  25
ATOM     25  C   UNL     1      49.364   4.721  17.477  0.00  0.00    +0.000 A 
ATOM     26  C   UNL     1      48.405   3.799  17.019  0.00  0.00    +0.000 A 
ATOM     27  C   UNL     1      48.730   2.460  16.784  0.00  0.00    +0.000 A 
ATOM     28  C   UNL     1      50.028   2.010  16.997  0.00  0.00    +0.000 A 
ATOM     29  C   UNL     1      50.994   2.893  17.471  0.00  0.00    +0.000 A 
ATOM     30  C   UNL     1      50.661   4.230  17.719  0.00  0.00    +0.000 A 
ENDBRANCH  23  25
ENDBRANCH  18  19
ENDBRANCH   2  17
TORSDOF 5
ENDMDL
