MODEL 1
REMARK VINA RESULT:    -7.078      0.000      0.000
REMARK INTER + INTRA:          -9.335
REMARK INTER:                  -8.940
REMARK INTRA:                  -0.394
REMARK UNBOUND:                -0.394
REMARK  Name = 
REMARK  5 active torsions:
REMARK  status: ('A' for Active; 'I' for Inactive)
REMARK    1  A    between atoms: N_1  and  C_2
REMARK    2  A    between atoms: C_2  and  C_3
REMARK    3  A    between atoms: N_8  and  C_9
REMARK    4  A    between atoms: C_9  and  C_10
REMARK    5  A    between atoms: C_10  and  C_11
REMARK                            x       y       z     vdW  Elec       q    Type
REMARK                         _______ _______ _______ _____ _____    ______ ____
ROOT
ATOM      1  C   UNL     1      46.984   5.423  13.681  0.00  0.00    +0.000 A 
ATOM      2  C   UNL     1      47.700   6.615  13.681  0.00  0.00    +0.000 A 
ATOM      3  C   UNL     1      47.607   7.426  12.561  0.00  0.00    +0.000 A 
ATOM      4  N   UNL     1      46.867   7.140  11.465  0.00  0.00    +0.000 NA
ATOM      5  C   UNL     1      46.171   5.986  11.463  0.00  0.00    +0.000 A 
ATOM      6  N   UNL     1      45.419   5.731  10.339  0.00  0.00    +0.000 N 
ATOM      7  C   UNL     1      46.215   5.121  12.552  0.00  0.00    +0.000 A 
ATOM      8  H   UNL     1      45.500   6.424   9.607  0.00  0.00    +0.000 HD
ENDROOT
BRANCH   1   9
ATOM      9  C   UNL     1      46.999   4.477  14.849  0.00  0.00    +0.000 C 
BRANCH   9  10
ATOM     10  N   UNL     1      47.437   3.145  14.451  0.00  0.00    +0.000 NA
ATOM     11  H   UNL     1      48.163   2.823  15.087  0.00  0.00    +0.000 HD
ATOM     12  H   UNL     1      47.861   3.196  13.526  0.00  0.00    +0.000 HD
ENDBRANCH   9  10
ENDBRANCH   1   9
BRANCH   6  13
ATOM     13  C   UNL     1      44.650   4.516  10.181  0.00  0.00    +0.000 C 
BRANCH  13  14
ATOM     14  C   UNL     1      44.327   4.207   8.720  0.00  0.00    +0.000 C 
BRANCH  14  15
ATOM     15  C   UNL     1      45.278   3.160   8.182  0.00  0.00    +0.000 A 
ATOM     16  C   UNL     1      45.369   1.903   8.798  0.00  0.00    +0.000 A 
ATOM     17  C   UNL     1      46.207   0.914   8.277  0.00  0.00    +0.000 A 
ATOM     18  C   UNL     1      46.962   1.171   7.132  0.00  0.00    +0.000 A 
ATOM     19  C   UNL     1      46.868   2.413   6.510  0.00  0.00    +0.000 A 
ATOM     20 CL   UNL     1      47.789   2.725   5.088  0.00  0.00    +0.000 Cl
ATOM     21  C   UNL     1      46.031   3.405   7.024  0.00  0.00    +0.000 A 
ENDBRANCH  14  15
ENDBRANCH  13  14
ENDBRANCH   6  13
TORSDOF 5
ENDMDL
MODEL 2
REMARK VINA RESULT:    -6.982      1.569      2.918
REMARK INTER + INTRA:          -9.213
REMARK INTER:                  -8.592
REMARK INTRA:                  -0.621
REMARK UNBOUND:                -0.394
REMARK  Name = 
REMARK  5 active torsions:
REMARK  status: ('A' for Active; 'I' for Inactive)
REMARK    1  A    between atoms: N_1  and  C_2
REMARK    2  A    between atoms: C_2  and  C_3
REMARK    3  A    between atoms: N_8  and  C_9
REMARK    4  A    between atoms: C_9  and  C_10
REMARK    5  A    between atoms: C_10  and  C_11
REMARK                            x       y       z     vdW  Elec       q    Type
REMARK                         _______ _______ _______ _____ _____    ______ ____
ROOT
ATOM      1  C   UNL     1      46.266   6.259  12.733  0.00  0.00    +0.000 A 
ATOM      2  C   UNL     1      47.189   5.975  13.733  0.00  0.00    +0.000 A 
ATOM      3  C   UNL     1      47.251   4.673  14.206  0.00  0.00    +0.000 A 
ATOM      4  N   UNL     1      46.475   3.658  13.761  0.00  0.00    +0.000 NA
ATOM      5  C   UNL     1      45.580   3.930  12.791  0.00  0.00    +0.000 A 
ATOM      6  N   UNL     1      44.817   2.873  12.353  0.00  0.00    +0.000 N 
ATOM      7  C   UNL     1      45.461   5.213  12.267  0.00  0.00    +0.000 A 
ATOM      8  H   UNL     1      44.979   2.000  12.839  0.00  0.00    +0.000 HD
ENDROOT
BRANCH   1   9
ATOM      9  C   UNL     1      46.126   7.632  12.136  0.00  0.00    +0.000 C 
BRANCH   9  10
ATOM     10  N   UNL     1      44.728   8.041  12.062  0.00  0.00    +0.000 NA
ATOM     11  H   UNL     1      44.487   8.245  11.095  0.00  0.00    +0.000 HD
ATOM     12  H   UNL     1      44.607   8.908  12.582  0.00  0.00    +0.000 HD
ENDBRANCH   9  10
ENDBRANCH   1   9
BRANCH   6  13
ATOM     13  C   UNL     1      43.791   3.024  11.344  0.00  0.00    +0.000 C 
BRANCH  13  14
ATOM     14  C   UNL     1      43.977   2.070  10.166  0.00  0.00    +0.000 C 
BRANCH  14  15
ATOM     15  C   UNL     1      44.924   2.670   9.149  0.00  0.00    +0.000 A 
ATOM     16  C   UNL     1      44.971   4.059   8.959  0.00  0.00    +0.000 A 
ATOM     17  C   UNL     1      45.878   4.623   8.058  0.00  0.00    +0.000 A 
ATOM     18  C   UNL     1      46.751   3.805   7.340  0.00  0.00    +0.000 A 
ATOM     19  C   UNL     1      46.716   2.426   7.533  0.00  0.00    +0.000 A 
ATOM     20 CL   UNL     1      47.803   1.417   6.658  0.00  0.00    +0.000 Cl
ATOM     21  C   UNL     1      45.813   1.856   8.433  0.00  0.00    +0.000 A 
ENDBRANCH  14  15
ENDBRANCH  13  14
ENDBRANCH   6  13
TORSDOF 5
ENDMDL
MODEL 3
REMARK VINA RESULT:    -6.816      1.867      2.356
REMARK INTER + INTRA:          -9.004
REMARK INTER:                  -8.627
REMARK INTRA:                  -0.377
REMARK UNBOUND:                -0.394
REMARK  Name = 
REMARK  5 active torsions:
REMARK  status: ('A' for Active; 'I' for Inactive)
REMARK    1  A    between atoms: N_1  and  C_2
REMARK    2  A    between atoms: C_2  and  C_3
REMARK    3  A    between atoms: N_8  and  C_9
REMARK    4  A    between atoms: C_9  and  C_10
REMARK    5  A    between atoms: C_10  and  C_11
REMARK                            x       y       z     vdW  Elec       q    Type
REMARK                         _______ _______ _______ _____ _____    ______ ____
ROOT
ATOM      1  C   UNL     1      47.081   7.329  12.967  0.00  0.00    +0.000 A 
ATOM      2  C   UNL     1      46.708   8.660  12.818  0.00  0.00    +0.000 A 
ATOM      3  C   UNL     1      45.560   8.932  12.090  0.00  0.00    +0.000 A 
ATOM      4  N   UNL     1      44.776   7.992  11.514  0.00  0.00    +0.000 NA
ATOM      5  C   UNL     1      45.134   6.701  11.659  0.00  0.00    +0.000 A 
ATOM      6  N   UNL     1      44.308   5.770  11.072  0.00  0.00    +0.000 N 
ATOM      7  C   UNL     1      46.273   6.352  12.376  0.00  0.00    +0.000 A 
ATOM      8  H   UNL     1      43.531   6.158  10.553  0.00  0.00    +0.000 HD
ENDROOT
BRANCH   1   9
ATOM      9  C   UNL     1      48.297   6.920  13.751  0.00  0.00    +0.000 C 
BRANCH   9  10
ATOM     10  N   UNL     1      49.431   6.652  12.874  0.00  0.00    +0.000 NA
ATOM     11  H   UNL     1      49.903   5.805  13.181  0.00  0.00    +0.000 HD
ATOM     12  H   UNL     1      50.106   7.410  12.962  0.00  0.00    +0.000 HD
ENDBRANCH   9  10
ENDBRANCH   1   9
BRANCH   6  13
ATOM     13  C   UNL     1      44.587   4.351  11.114  0.00  0.00    +0.000 C 
BRANCH  13  14
ATOM     14  C   UNL     1      43.945   3.589   9.957  0.00  0.00    +0.000 C 
BRANCH  14  15
ATOM     15  C   UNL     1      44.997   3.192   8.942  0.00  0.00    +0.000 A 
ATOM     16  C   UNL     1      45.661   4.173   8.190  0.00  0.00    +0.000 A 
ATOM     17  C   UNL     1      46.668   3.817   7.289  0.00  0.00    +0.000 A 
ATOM     18  C   UNL     1      47.024   2.477   7.133  0.00  0.00    +0.000 A 
ATOM     19  C   UNL     1      46.376   1.500   7.885  0.00  0.00    +0.000 A 
ATOM     20 CL   UNL     1      46.826  -0.152   7.703  0.00  0.00    +0.000 Cl
ATOM     21  C   UNL     1      45.371   1.849   8.789  0.00  0.00    +0.000 A 
ENDBRANCH  14  15
ENDBRANCH  13  14
ENDBRANCH   6  13
TORSDOF 5
ENDMDL
MODEL 4
REMARK VINA RESULT:    -6.762      2.957      6.535
REMARK INTER + INTRA:          -8.935
REMARK INTER:                  -8.462
REMARK INTRA:                  -0.474
REMARK UNBOUND:                -0.394
REMARK  Name = 
REMARK  5 active torsions:
REMARK  status: ('A' for Active; 'I' for Inactive)
REMARK    1  A    between atoms: N_1  and  C_2
REMARK    2  A    between atoms: C_2  and  C_3
REMARK    3  A    between atoms: N_8  and  C_9
REMARK    4  A    between atoms: C_9  and  C_10
REMARK    5  A    between atoms: C_10  and  C_11
REMARK                            x       y       z     vdW  Elec       q    Type
REMARK                         _______ _______ _______ _____ _____    ______ ____
ROOT
ATOM      1  C   UNL     1      46.667   2.569   6.704  0.00  0.00    +0.000 A 
ATOM      2  C   UNL     1      46.965   1.226   6.905  0.00  0.00    +0.000 A 
ATOM      3  C   UNL     1      46.379   0.587   7.986  0.00  0.00    +0.000 A 
ATOM      4  N   UNL     1      45.533   1.179   8.860  0.00  0.00    +0.000 NA
ATOM      5  C   UNL     1      45.241   2.480   8.668  0.00  0.00    +0.000 A 
ATOM      6  N   UNL     1      44.369   3.048   9.568  0.00  0.00    +0.000 N 
ATOM      7  C   UNL     1      45.792   3.187   7.604  0.00  0.00    +0.000 A 
ATOM      8  H   UNL     1      44.067   2.434  10.313  0.00  0.00    +0.000 HD
ENDROOT
BRANCH   1   9
ATOM      9  C   UNL     1      47.234   3.354   5.554  0.00  0.00    +0.000 C 
BRANCH   9  10
ATOM     10  N   UNL     1      48.293   2.616   4.876  0.00  0.00    +0.000 NA
ATOM     11  H   UNL     1      48.795   3.244   4.251  0.00  0.00    +0.000 HD
ATOM     12  H   UNL     1      47.874   1.896   4.290  0.00  0.00    +0.000 HD
ENDBRANCH   9  10
ENDBRANCH   1   9
BRANCH   6  13
ATOM     13  C   UNL     1      43.994   4.444   9.507  0.00  0.00    +0.000 C 
BRANCH  13  14
ATOM     14  C   UNL     1      43.603   5.010  10.871  0.00  0.00    +0.000 C 
BRANCH  14  15
ATOM     15  C   UNL     1      44.838   5.244  11.715  0.00  0.00    +0.000 A 
ATOM     16  C   UNL     1      45.061   4.482  12.871  0.00  0.00    +0.000 A 
ATOM     17  C   UNL     1      46.223   4.658  13.626  0.00  0.00    +0.000 A 
ATOM     18  C   UNL     1      47.177   5.597  13.231  0.00  0.00    +0.000 A 
ATOM     19  C   UNL     1      46.967   6.349  12.078  0.00  0.00    +0.000 A 
ATOM     20 CL   UNL     1      48.151   7.496  11.583  0.00  0.00    +0.000 Cl
ATOM     21  C   UNL     1      45.809   6.176  11.318  0.00  0.00    +0.000 A 
ENDBRANCH  14  15
ENDBRANCH  13  14
ENDBRANCH   6  13
TORSDOF 5
ENDMDL
MODEL 5
REMARK VINA RESULT:    -6.353      2.616      4.602
REMARK INTER + INTRA:          -8.419
REMARK INTER:                  -8.086
REMARK INTRA:                  -0.333
REMARK UNBOUND:                -0.394
REMARK  Name = 
REMARK  5 active torsions:
REMARK  status: ('A' for Active; 'I' for Inactive)
REMARK    1  A    between atoms: N_1  and  C_2
REMARK    2  A    between atoms: C_2  and  C_3
REMARK    3  A    between atoms: N_8  and  C_9
REMARK    4  A    between atoms: C_9  and  C_10
REMARK    5  A    between atoms: C_10  and  C_11
REMARK                            x       y       z     vdW  Elec       q    Type
REMARK                         _______ _______ _______ _____ _____    ______ ____
ROOT
ATOM      1  C   UNL     1      47.946   4.420  17.550  0.00  0.00    +0.000 A 
ATOM      2  C   UNL     1      48.709   3.273  17.739  0.00  0.00    +0.000 A 
ATOM      3  C   UNL     1      48.817   2.387  16.679  0.00  0.00    +0.000 A 
ATOM      4  N   UNL     1      48.234   2.560  15.471  0.00  0.00    +0.000 NA
ATOM      5  C   UNL     1      47.495   3.671  15.284  0.00  0.00    +0.000 A 
ATOM      6  N   UNL     1      46.926   3.823  14.041  0.00  0.00    +0.000 N 
ATOM      7  C   UNL     1      47.341   4.607  16.302  0.00  0.00    +0.000 A 
ATOM      8  H   UNL     1      47.089   3.055  13.402  0.00  0.00    +0.000 HD
ENDROOT
BRANCH   1   9
ATOM      9  C   UNL     1      47.775   5.457  18.626  0.00  0.00    +0.000 C 
BRANCH   9  10
ATOM     10  N   UNL     1      46.382   5.571  19.038  0.00  0.00    +0.000 NA
ATOM     11  H   UNL     1      46.302   6.279  19.765  0.00  0.00    +0.000 HD
ATOM     12  H   UNL     1      46.084   4.691  19.456  0.00  0.00    +0.000 HD
ENDBRANCH   9  10
ENDBRANCH   1   9
BRANCH   6  13
ATOM     13  C   UNL     1      46.078   4.947  13.709  0.00  0.00    +0.000 C 
BRANCH  13  14
ATOM     14  C   UNL     1      44.769   4.524  13.047  0.00  0.00    +0.000 C 
BRANCH  14  15
ATOM     15  C   UNL     1      44.962   4.368  11.554  0.00  0.00    +0.000 A 
ATOM     16  C   UNL     1      45.386   5.457  10.777  0.00  0.00    +0.000 A 
ATOM     17  C   UNL     1      45.615   5.307   9.407  0.00  0.00    +0.000 A 
ATOM     18  C   UNL     1      45.425   4.066   8.799  0.00  0.00    +0.000 A 
ATOM     19  C   UNL     1      45.014   2.979   9.567  0.00  0.00    +0.000 A 
ATOM     20 CL   UNL     1      44.794   1.443   8.819  0.00  0.00    +0.000 Cl
ATOM     21  C   UNL     1      44.786   3.121  10.937  0.00  0.00    +0.000 A 
ENDBRANCH  14  15
ENDBRANCH  13  14
ENDBRANCH   6  13
TORSDOF 5
ENDMDL
MODEL 6
REMARK VINA RESULT:    -6.146      1.176      2.076
REMARK INTER + INTRA:          -8.157
REMARK INTER:                  -7.788
REMARK INTRA:                  -0.370
REMARK UNBOUND:                -0.394
REMARK  Name = 
REMARK  5 active torsions:
REMARK  status: ('A' for Active; 'I' for Inactive)
REMARK    1  A    between atoms: N_1  and  C_2
REMARK    2  A    between atoms: C_2  and  C_3
REMARK    3  A    between atoms: N_8  and  C_9
REMARK    4  A    between atoms: C_9  and  C_10
REMARK    5  A    between atoms: C_10  and  C_11
REMARK                            x       y       z     vdW  Elec       q    Type
REMARK                         _______ _______ _______ _____ _____    ______ ____
ROOT
ATOM      1  C   UNL     1      47.508   6.250  12.875  0.00  0.00    +0.000 A 
ATOM      2  C   UNL     1      47.512   5.707  14.155  0.00  0.00    +0.000 A 
ATOM      3  C   UNL     1      46.602   4.700  14.434  0.00  0.00    +0.000 A 
ATOM      4  N   UNL     1      45.709   4.205  13.546  0.00  0.00    +0.000 NA
ATOM      5  C   UNL     1      45.704   4.728  12.304  0.00  0.00    +0.000 A 
ATOM      6  N   UNL     1      44.793   4.194  11.422  0.00  0.00    +0.000 N 
ATOM      7  C   UNL     1      46.589   5.742  11.951  0.00  0.00    +0.000 A 
ATOM      8  H   UNL     1      44.187   3.485  11.814  0.00  0.00    +0.000 HD
ENDROOT
BRANCH   1   9
ATOM      9  C   UNL     1      48.464   7.334  12.460  0.00  0.00    +0.000 C 
BRANCH   9  10
ATOM     10  N   UNL     1      49.845   6.967  12.748  0.00  0.00    +0.000 NA
ATOM     11  H   UNL     1      49.860   6.093  13.270  0.00  0.00    +0.000 HD
ATOM     12  H   UNL     1      50.258   7.674  13.353  0.00  0.00    +0.000 HD
ENDBRANCH   9  10
ENDBRANCH   1   9
BRANCH   6  13
ATOM     13  C   UNL     1      44.649   4.681  10.067  0.00  0.00    +0.000 C 
BRANCH  13  14
ATOM     14  C   UNL     1      44.007   3.655   9.136  0.00  0.00    +0.000 C 
BRANCH  14  15
ATOM     15  C   UNL     1      45.075   2.888   8.385  0.00  0.00    +0.000 A 
ATOM     16  C   UNL     1      45.417   1.585   8.774  0.00  0.00    +0.000 A 
ATOM     17  C   UNL     1      46.366   0.854   8.054  0.00  0.00    +0.000 A 
ATOM     18  C   UNL     1      46.980   1.417   6.935  0.00  0.00    +0.000 A 
ATOM     19  C   UNL     1      46.636   2.706   6.537  0.00  0.00    +0.000 A 
ATOM     20 CL   UNL     1      47.383   3.396   5.147  0.00  0.00    +0.000 Cl
ATOM     21  C   UNL     1      45.688   3.442   7.251  0.00  0.00    +0.000 A 
ENDBRANCH  14  15
ENDBRANCH  13  14
ENDBRANCH   6  13
TORSDOF 5
ENDMDL
MODEL 7
REMARK VINA RESULT:    -5.935      2.981      6.671
REMARK INTER + INTRA:          -7.890
REMARK INTER:                  -7.411
REMARK INTRA:                  -0.479
REMARK UNBOUND:                -0.394
REMARK  Name = 
REMARK  5 active torsions:
REMARK  status: ('A' for Active; 'I' for Inactive)
REMARK    1  A    between atoms: N_1  and  C_2
REMARK    2  A    between atoms: C_2  and  C_3
REMARK    3  A    between atoms: N_8  and  C_9
REMARK    4  A    between atoms: C_9  and  C_10
REMARK    5  A    between atoms: C_10  and  C_11
REMARK                            x       y       z     vdW  Elec       q    Type
REMARK                         _______ _______ _______ _____ _____    ______ ____
ROOT
ATOM      1  C   UNL     1      45.898   3.620   8.222  0.00  0.00    +0.000 A 
ATOM      2  C   UNL     1      45.549   2.275   8.183  0.00  0.00    +0.000 A 
ATOM      3  C   UNL     1      44.621   1.820   9.107  0.00  0.00    +0.000 A 
ATOM      4  N   UNL     1      44.028   2.595  10.044  0.00  0.00    +0.000 NA
ATOM      5  C   UNL     1      44.363   3.900  10.083  0.00  0.00    +0.000 A 
ATOM      6  N   UNL     1      43.733   4.663  11.039  0.00  0.00    +0.000 N 
ATOM      7  C   UNL     1      45.288   4.428   9.188  0.00  0.00    +0.000 A 
ATOM      8  H   UNL     1      43.108   4.150  11.648  0.00  0.00    +0.000 HD
ENDROOT
BRANCH   1   9
ATOM      9  C   UNL     1      46.882   4.222   7.257  0.00  0.00    +0.000 C 
BRANCH   9  10
ATOM     10  N   UNL     1      46.956   3.452   6.021  0.00  0.00    +0.000 NA
ATOM     11  H   UNL     1      46.046   3.459   5.564  0.00  0.00    +0.000 HD
ATOM     12  H   UNL     1      47.161   2.480   6.246  0.00  0.00    +0.000 HD
ENDBRANCH   9  10
ENDBRANCH   1   9
BRANCH   6  13
ATOM     13  C   UNL     1      44.021   6.068  11.222  0.00  0.00    +0.000 C 
BRANCH  13  14
ATOM     14  C   UNL     1      44.732   6.359  12.542  0.00  0.00    +0.000 C 
BRANCH  14  15
ATOM     15  C   UNL     1      45.814   7.398  12.337  0.00  0.00    +0.000 A 
ATOM     16  C   UNL     1      45.531   8.760  12.519  0.00  0.00    +0.000 A 
ATOM     17  C   UNL     1      46.536   9.720  12.380  0.00  0.00    +0.000 A 
ATOM     18  C   UNL     1      47.837   9.328  12.063  0.00  0.00    +0.000 A 
ATOM     19  C   UNL     1      48.127   7.977  11.892  0.00  0.00    +0.000 A 
ATOM     20 CL   UNL     1      49.736   7.492  11.514  0.00  0.00    +0.000 Cl
ATOM     21  C   UNL     1      47.127   7.012  12.031  0.00  0.00    +0.000 A 
ENDBRANCH  14  15
ENDBRANCH  13  14
ENDBRANCH   6  13
TORSDOF 5
ENDMDL
MODEL 8
REMARK VINA RESULT:    -5.793      3.484      6.795
REMARK INTER + INTRA:          -7.711
REMARK INTER:                  -7.363
REMARK INTRA:                  -0.348
REMARK UNBOUND:                -0.394
REMARK  Name = 
REMARK  5 active torsions:
REMARK  status: ('A' for Active; 'I' for Inactive)
REMARK    1  A    between atoms: N_1  and  C_2
REMARK    2  A    between atoms: C_2  and  C_3
REMARK    3  A    between atoms: N_8  and  C_9
REMARK    4  A    between atoms: C_9  and  C_10
REMARK    5  A    between atoms: C_10  and  C_11
REMARK                            x       y       z     vdW  Elec       q    Type
REMARK                         _______ _______ _______ _____ _____    ______ ____
ROOT
ATOM      1  C   UNL     1      44.390   3.996  10.405  0.00  0.00    +0.000 A 
ATOM      2  C   UNL     1      43.692   2.974  11.039  0.00  0.00    +0.000 A 
ATOM      3  C   UNL     1      43.666   2.972  12.425  0.00  0.00    +0.000 A 
ATOM      4  N   UNL     1      44.272   3.896  13.205  0.00  0.00    +0.000 NA
ATOM      5  C   UNL     1      44.948   4.888  12.594  0.00  0.00    +0.000 A 
ATOM      6  N   UNL     1      45.541   5.818  13.415  0.00  0.00    +0.000 N 
ATOM      7  C   UNL     1      45.018   4.956  11.206  0.00  0.00    +0.000 A 
ATOM      8  H   UNL     1      45.442   5.636  14.406  0.00  0.00    +0.000 HD
ENDROOT
BRANCH   1   9
ATOM      9  C   UNL     1      44.469   4.105   8.907  0.00  0.00    +0.000 C 
BRANCH   9  10
ATOM     10  N   UNL     1      45.548   4.994   8.494  0.00  0.00    +0.000 NA
ATOM     11  H   UNL     1      45.511   5.849   9.045  0.00  0.00    +0.000 HD
ATOM     12  H   UNL     1      45.401   5.268   7.524  0.00  0.00    +0.000 HD
ENDBRANCH   9  10
ENDBRANCH   1   9
BRANCH   6  13
ATOM     13  C   UNL     1      46.330   6.917  12.901  0.00  0.00    +0.000 C 
BRANCH  13  14
ATOM     14  C   UNL     1      47.799   6.549  12.708  0.00  0.00    +0.000 C 
BRANCH  14  15
ATOM     15  C   UNL     1      48.582   7.752  12.226  0.00  0.00    +0.000 A 
ATOM     16  C   UNL     1      49.946   7.634  11.921  0.00  0.00    +0.000 A 
ATOM     17  C   UNL     1      50.662   8.727  11.427  0.00  0.00    +0.000 A 
ATOM     18  C   UNL     1      50.021   9.950  11.230  0.00  0.00    +0.000 A 
ATOM     19  C   UNL     1      48.664  10.071  11.520  0.00  0.00    +0.000 A 
ATOM     20 CL   UNL     1      47.869  11.577  11.262  0.00  0.00    +0.000 Cl
ATOM     21  C   UNL     1      47.942   8.982  12.012  0.00  0.00    +0.000 A 
ENDBRANCH  14  15
ENDBRANCH  13  14
ENDBRANCH   6  13
TORSDOF 5
ENDMDL
MODEL 9
REMARK VINA RESULT:    -5.722      4.319      7.876
REMARK INTER + INTRA:          -7.622
REMARK INTER:                  -7.311
REMARK INTRA:                  -0.311
REMARK UNBOUND:                -0.394
REMARK  Name = 
REMARK  5 active torsions:
REMARK  status: ('A' for Active; 'I' for Inactive)
REMARK    1  A    between atoms: N_1  and  C_2
REMARK    2  A    between atoms: C_2  and  C_3
REMARK    3  A    between atoms: N_8  and  C_9
REMARK    4  A    between atoms: C_9  and  C_10
REMARK    5  A    between atoms: C_10  and  C_11
REMARK                            x       y       z     vdW  Elec       q    Type
REMARK                         _______ _______ _______ _____ _____    ______ ____
ROOT
ATOM      1  C   UNL     1      44.960   4.289  11.862  0.00  0.00    +0.000 A 
ATOM      2  C   UNL     1      45.063   5.484  11.159  0.00  0.00    +0.000 A 
ATOM      3  C   UNL     1      45.866   6.480  11.691  0.00  0.00    +0.000 A 
ATOM      4  N   UNL     1      46.559   6.372  12.847  0.00  0.00    +0.000 NA
ATOM      5  C   UNL     1      46.462   5.214  13.530  0.00  0.00    +0.000 A 
ATOM      6  N   UNL     1      47.190   5.132  14.696  0.00  0.00    +0.000 N 
ATOM      7  C   UNL     1      45.676   4.169  13.058  0.00  0.00    +0.000 A 
ATOM      8  H   UNL     1      47.694   5.974  14.942  0.00  0.00    +0.000 HD
ENDROOT
BRANCH   1   9
ATOM      9  C   UNL     1      44.131   3.135  11.368  0.00  0.00    +0.000 C 
BRANCH   9  10
ATOM     10  N   UNL     1      43.670   2.300  12.471  0.00  0.00    +0.000 NA
ATOM     11  H   UNL     1      43.421   1.379  12.116  0.00  0.00    +0.000 HD
ATOM     12  H   UNL     1      42.819   2.702  12.860  0.00  0.00    +0.000 HD
ENDBRANCH   9  10
ENDBRANCH   1   9
BRANCH   6  13
ATOM     13  C   UNL     1      47.154   3.965  15.550  0.00  0.00    +0.000 C 
BRANCH  13  14
ATOM     14  C   UNL     1      47.512   4.285  17.000  0.00  0.00    +0.000 C 
BRANCH  14  15
ATOM     15  C   UNL     1      48.998   4.105  17.225  0.00  0.00    +0.000 A 
ATOM     16  C   UNL     1      49.812   5.213  17.503  0.00  0.00    +0.000 A 
ATOM     17  C   UNL     1      51.175   5.048  17.761  0.00  0.00    +0.000 A 
ATOM     18  C   UNL     1      51.739   3.772  17.748  0.00  0.00    +0.000 A 
ATOM     19  C   UNL     1      50.934   2.667  17.483  0.00  0.00    +0.000 A 
ATOM     20 CL   UNL     1      51.628   1.090  17.481  0.00  0.00    +0.000 Cl
ATOM     21  C   UNL     1      49.571   2.824  17.226  0.00  0.00    +0.000 A 
ENDBRANCH  14  15
ENDBRANCH  13  14
ENDBRANCH   6  13
TORSDOF 5
ENDMDL
