MODEL 1
REMARK VINA RESULT:    -8.482      0.000      0.000
REMARK INTER + INTRA:         -13.372
REMARK INTER:                 -12.201
REMARK INTRA:                  -1.171
REMARK UNBOUND:                -1.171
REMARK  Name = 
REMARK  10 active torsions:
REMARK  status: ('A' for Active; 'I' for Inactive)
REMARK    1  A    between atoms: C_1  and  C_2
REMARK    2  A    between atoms: C_6  and  C_7
REMARK    3  A    between atoms: C_7  and  N_8
REMARK    4  A    between atoms: N_8  and  C_9
REMARK    5  A    between atoms: C_9  and  C_10
REMARK    6  A    between atoms: C_9  and  C_11
REMARK    7  A    between atoms: C_14  and  C_15
REMARK    8  A    between atoms: C_15  and  N_16
REMARK    9  A    between atoms: C_17  and  C_19
REMARK   10  A    between atoms: C_26  and  O_27
REMARK                            x       y       z     vdW  Elec       q    Type
REMARK                         _______ _______ _______ _____ _____    ______ ____
ROOT
ATOM      1  C   UNL     1      44.660   6.318  11.566  0.00  0.00    +0.000 A 
ATOM      2  C   UNL     1      45.801   5.536  11.795  0.00  0.00    +0.000 A 
ATOM      3  C   UNL     1      46.984   6.117  12.274  0.00  0.00    +0.000 A 
ATOM      4  C   UNL     1      47.049   7.490  12.547  0.00  0.00    +0.000 A 
ATOM      5  C   UNL     1      45.926   8.280  12.277  0.00  0.00    +0.000 A 
ATOM      6  C   UNL     1      44.746   7.701  11.801  0.00  0.00    +0.000 A 
ENDROOT
BRANCH   1   7
ATOM      7  C   UNL     1      43.357   5.685  11.084  0.00  0.00    +0.000 C 
ATOM      8  C   UNL     1      42.815   4.731  12.157  0.00  0.00    +0.000 C 
BRANCH   7   9
ATOM      9  N   UNL     1      43.588   5.018   9.791  0.00  0.00    +0.000 NA
ATOM     10  H   UNL     1      42.701   5.009   9.282  0.00  0.00    +0.000 HD
BRANCH   9  11
ATOM     11  C   UNL     1      44.035   3.624   9.913  0.00  0.00    +0.000 C 
BRANCH  11  17
ATOM     12  C   UNL     1      46.720   0.172   7.729  0.00  0.00    +0.000 C 
ATOM     13  C   UNL     1      46.389   1.629   7.855  0.00  0.00    +0.000 A 
ATOM     14  C   UNL     1      47.072   2.580   7.104  0.00  0.00    +0.000 A 
ATOM     15  C   UNL     1      46.747   3.921   7.271  0.00  0.00    +0.000 A 
ATOM     16  C   UNL     1      45.755   4.274   8.180  0.00  0.00    +0.000 A 
ATOM     17  C   UNL     1      45.107   3.268   8.895  0.00  0.00    +0.000 A 
ATOM     18  N   UNL     1      45.414   1.956   8.741  0.00  0.00    +0.000 NA
ENDBRANCH  11  17
ENDBRANCH   9  11
ENDBRANCH   7   9
ENDBRANCH   1   7
BRANCH   4  19
ATOM     19  C   UNL     1      48.305   8.115  13.102  0.00  0.00    +0.000 C 
BRANCH  19  20
ATOM     20  N   UNL     1      48.853   7.320  14.170  0.00  0.00    +0.000 N 
ATOM     21  C   UNL     1      48.715   7.679  15.487  0.00  0.00    +0.000 C 
ATOM     22  O   UNL     1      48.244   8.759  15.828  0.00  0.00    +0.000 OA
ATOM     23  H   UNL     1      49.092   6.362  13.945  0.00  0.00    +0.000 HD
BRANCH  21  24
ATOM     24  C   UNL     1      49.202   6.704  16.472  0.00  0.00    +0.000 A 
ATOM     25  C   UNL     1      50.280   7.019  17.289  0.00  0.00    +0.000 A 
ATOM     26  S   UNL     1      50.713   5.760  18.354  0.00  0.00    +0.000 S 
ATOM     27  C   UNL     1      49.449   4.777  17.786  0.00  0.00    +0.000 A 
ATOM     28  N   UNL     1      49.254   3.553  18.311  0.00  0.00    +0.000 NA
ATOM     29  C   UNL     1      48.216   2.914  17.763  0.00  0.00    +0.000 A 
ATOM     30  N   UNL     1      47.407   3.360  16.794  0.00  0.00    +0.000 NA
ATOM     31  C   UNL     1      47.657   4.580  16.317  0.00  0.00    +0.000 A 
ATOM     32  C   UNL     1      48.704   5.376  16.780  0.00  0.00    +0.000 A 
BRANCH  31  33
ATOM     33  O   UNL     1      46.803   4.966  15.326  0.00  0.00    +0.000 OA
ATOM     34  H   UNL     1      47.211   4.524  14.556  0.00  0.00    +0.000 HD
ENDBRANCH  31  33
ENDBRANCH  21  24
ENDBRANCH  19  20
ENDBRANCH   4  19
TORSDOF 8
ENDMDL
MODEL 2
REMARK VINA RESULT:    -8.389      2.147      2.438
REMARK INTER + INTRA:         -13.238
REMARK INTER:                 -12.077
REMARK INTRA:                  -1.161
REMARK UNBOUND:                -1.171
REMARK  Name = 
REMARK  10 active torsions:
REMARK  status: ('A' for Active; 'I' for Inactive)
REMARK    1  A    between atoms: C_1  and  C_2
REMARK    2  A    between atoms: C_6  and  C_7
REMARK    3  A    between atoms: C_7  and  N_8
REMARK    4  A    between atoms: N_8  and  C_9
REMARK    5  A    between atoms: C_9  and  C_10
REMARK    6  A    between atoms: C_9  and  C_11
REMARK    7  A    between atoms: C_14  and  C_15
REMARK    8  A    between atoms: C_15  and  N_16
REMARK    9  A    between atoms: C_17  and  C_19
REMARK   10  A    between atoms: C_26  and  O_27
REMARK                            x       y       z     vdW  Elec       q    Type
REMARK                         _______ _______ _______ _____ _____    ______ ____
ROOT
ATOM      1  C   UNL     1      45.062   5.679  11.861  0.00  0.00    +0.000 A 
ATOM      2  C   UNL     1      45.289   4.954  13.039  0.00  0.00    +0.000 A 
ATOM      3  C   UNL     1      46.444   5.171  13.803  0.00  0.00    +0.000 A 
ATOM      4  C   UNL     1      47.392   6.127  13.415  0.00  0.00    +0.000 A 
ATOM      5  C   UNL     1      47.190   6.820  12.216  0.00  0.00    +0.000 A 
ATOM      6  C   UNL     1      46.037   6.605  11.455  0.00  0.00    +0.000 A 
ENDROOT
BRANCH   1   7
ATOM      7  C   UNL     1      43.786   5.477  11.046  0.00  0.00    +0.000 C 
ATOM      8  C   UNL     1      42.789   4.629  11.847  0.00  0.00    +0.000 C 
BRANCH   7   9
ATOM      9  N   UNL     1      44.128   4.880   9.745  0.00  0.00    +0.000 NA
ATOM     10  H   UNL     1      43.334   5.024   9.117  0.00  0.00    +0.000 HD
BRANCH   9  11
ATOM     11  C   UNL     1      44.382   3.434   9.803  0.00  0.00    +0.000 C 
BRANCH  11  17
ATOM     12  C   UNL     1      46.795  -0.247   7.675  0.00  0.00    +0.000 C 
ATOM     13  C   UNL     1      46.476   1.219   7.690  0.00  0.00    +0.000 A 
ATOM     14  C   UNL     1      47.058   2.082   6.768  0.00  0.00    +0.000 A 
ATOM     15  C   UNL     1      46.751   3.435   6.834  0.00  0.00    +0.000 A 
ATOM     16  C   UNL     1      45.876   3.889   7.815  0.00  0.00    +0.000 A 
ATOM     17  C   UNL     1      45.324   2.967   8.703  0.00  0.00    +0.000 A 
ATOM     18  N   UNL     1      45.614   1.643   8.650  0.00  0.00    +0.000 NA
ENDBRANCH  11  17
ENDBRANCH   9  11
ENDBRANCH   7   9
ENDBRANCH   1   7
BRANCH   4  19
ATOM     19  C   UNL     1      48.617   6.395  14.254  0.00  0.00    +0.000 C 
BRANCH  19  20
ATOM     20  N   UNL     1      48.258   6.693  15.616  0.00  0.00    +0.000 N 
ATOM     21  C   UNL     1      48.940   6.157  16.679  0.00  0.00    +0.000 C 
ATOM     22  O   UNL     1      49.797   5.291  16.542  0.00  0.00    +0.000 OA
ATOM     23  H   UNL     1      47.684   7.512  15.765  0.00  0.00    +0.000 HD
BRANCH  21  24
ATOM     24  C   UNL     1      48.554   6.657  18.006  0.00  0.00    +0.000 A 
ATOM     25  C   UNL     1      48.158   7.978  18.163  0.00  0.00    +0.000 A 
ATOM     26  S   UNL     1      47.767   8.380  19.774  0.00  0.00    +0.000 S 
ATOM     27  C   UNL     1      48.073   6.794  20.298  0.00  0.00    +0.000 A 
ATOM     28  N   UNL     1      47.903   6.462  21.591  0.00  0.00    +0.000 NA
ATOM     29  C   UNL     1      48.176   5.177  21.836  0.00  0.00    +0.000 A 
ATOM     30  N   UNL     1      48.580   4.250  20.959  0.00  0.00    +0.000 NA
ATOM     31  C   UNL     1      48.731   4.646  19.694  0.00  0.00    +0.000 A 
ATOM     32  C   UNL     1      48.490   5.954  19.274  0.00  0.00    +0.000 A 
BRANCH  31  33
ATOM     33  O   UNL     1      49.156   3.656  18.857  0.00  0.00    +0.000 OA
ATOM     34  H   UNL     1      50.002   4.034  18.548  0.00  0.00    +0.000 HD
ENDBRANCH  31  33
ENDBRANCH  21  24
ENDBRANCH  19  20
ENDBRANCH   4  19
TORSDOF 8
ENDMDL
MODEL 3
REMARK VINA RESULT:    -7.770      2.244      2.701
REMARK INTER + INTRA:         -12.348
REMARK INTER:                 -11.205
REMARK INTRA:                  -1.143
REMARK UNBOUND:                -1.171
REMARK  Name = 
REMARK  10 active torsions:
REMARK  status: ('A' for Active; 'I' for Inactive)
REMARK    1  A    between atoms: C_1  and  C_2
REMARK    2  A    between atoms: C_6  and  C_7
REMARK    3  A    between atoms: C_7  and  N_8
REMARK    4  A    between atoms: N_8  and  C_9
REMARK    5  A    between atoms: C_9  and  C_10
REMARK    6  A    between atoms: C_9  and  C_11
REMARK    7  A    between atoms: C_14  and  C_15
REMARK    8  A    between atoms: C_15  and  N_16
REMARK    9  A    between atoms: C_17  and  C_19
REMARK   10  A    between atoms: C_26  and  O_27
REMARK                            x       y       z     vdW  Elec       q    Type
REMARK                         _______ _______ _______ _____ _____    ______ ____
ROOT
ATOM      1  C   UNL     1      44.904   5.648  11.775  0.00  0.00    +0.000 A 
ATOM      2  C   UNL     1      45.373   4.853  12.830  0.00  0.00    +0.000 A 
ATOM      3  C   UNL     1      46.548   5.194  13.516  0.00  0.00    +0.000 A 
ATOM      4  C   UNL     1      47.272   6.343  13.172  0.00  0.00    +0.000 A 
ATOM      5  C   UNL     1      46.831   7.113  12.090  0.00  0.00    +0.000 A 
ATOM      6  C   UNL     1      45.659   6.775  11.408  0.00  0.00    +0.000 A 
ENDROOT
BRANCH   1   7
ATOM      7  C   UNL     1      43.604   5.305  11.051  0.00  0.00    +0.000 C 
ATOM      8  C   UNL     1      42.730   4.417  11.946  0.00  0.00    +0.000 C 
BRANCH   7   9
ATOM      9  N   UNL     1      43.917   4.678   9.756  0.00  0.00    +0.000 NA
ATOM     10  H   UNL     1      43.076   4.722   9.176  0.00  0.00    +0.000 HD
BRANCH   9  11
ATOM     11  C   UNL     1      44.304   3.264   9.859  0.00  0.00    +0.000 C 
BRANCH  11  17
ATOM     12  C   UNL     1      46.824  -0.302   7.662  0.00  0.00    +0.000 C 
ATOM     13  C   UNL     1      46.490   1.159   7.727  0.00  0.00    +0.000 A 
ATOM     14  C   UNL     1      47.095   2.065   6.863  0.00  0.00    +0.000 A 
ATOM     15  C   UNL     1      46.772   3.412   6.975  0.00  0.00    +0.000 A 
ATOM     16  C   UNL     1      45.860   3.816   7.945  0.00  0.00    +0.000 A 
ATOM     17  C   UNL     1      45.287   2.853   8.774  0.00  0.00    +0.000 A 
ATOM     18  N   UNL     1      45.592   1.535   8.674  0.00  0.00    +0.000 NA
ENDBRANCH  11  17
ENDBRANCH   9  11
ENDBRANCH   7   9
ENDBRANCH   1   7
BRANCH   4  19
ATOM     19  C   UNL     1      48.514   6.738  13.933  0.00  0.00    +0.000 C 
BRANCH  19  20
ATOM     20  N   UNL     1      48.416   6.361  15.319  0.00  0.00    +0.000 N 
ATOM     21  C   UNL     1      48.842   7.187  16.328  0.00  0.00    +0.000 C 
ATOM     22  O   UNL     1      49.454   8.228  16.111  0.00  0.00    +0.000 OA
ATOM     23  H   UNL     1      47.779   5.606  15.539  0.00  0.00    +0.000 HD
BRANCH  21  24
ATOM     24  C   UNL     1      48.553   6.732  17.694  0.00  0.00    +0.000 A 
ATOM     25  C   UNL     1      48.778   5.408  18.049  0.00  0.00    +0.000 A 
ATOM     26  S   UNL     1      48.368   5.062  19.668  0.00  0.00    +0.000 S 
ATOM     27  C   UNL     1      47.922   6.676  19.953  0.00  0.00    +0.000 A 
ATOM     28  N   UNL     1      47.491   7.056  21.171  0.00  0.00    +0.000 NA
ATOM     29  C   UNL     1      47.190   8.356  21.230  0.00  0.00    +0.000 A 
ATOM     30  N   UNL     1      47.273   9.256  20.243  0.00  0.00    +0.000 NA
ATOM     31  C   UNL     1      47.704   8.813  19.062  0.00  0.00    +0.000 A 
ATOM     32  C   UNL     1      48.057   7.484  18.832  0.00  0.00    +0.000 A 
BRANCH  31  33
ATOM     33  O   UNL     1      47.752   9.779  18.099  0.00  0.00    +0.000 OA
ATOM     34  H   UNL     1      48.603  10.206  18.316  0.00  0.00    +0.000 HD
ENDBRANCH  31  33
ENDBRANCH  21  24
ENDBRANCH  19  20
ENDBRANCH   4  19
TORSDOF 8
ENDMDL
MODEL 4
REMARK VINA RESULT:    -7.447      2.727      8.168
REMARK INTER + INTRA:         -11.882
REMARK INTER:                 -10.240
REMARK INTRA:                  -1.643
REMARK UNBOUND:                -1.171
REMARK  Name = 
REMARK  10 active torsions:
REMARK  status: ('A' for Active; 'I' for Inactive)
REMARK    1  A    between atoms: C_1  and  C_2
REMARK    2  A    between atoms: C_6  and  C_7
REMARK    3  A    between atoms: C_7  and  N_8
REMARK    4  A    between atoms: N_8  and  C_9
REMARK    5  A    between atoms: C_9  and  C_10
REMARK    6  A    between atoms: C_9  and  C_11
REMARK    7  A    between atoms: C_14  and  C_15
REMARK    8  A    between atoms: C_15  and  N_16
REMARK    9  A    between atoms: C_17  and  C_19
REMARK   10  A    between atoms: C_26  and  O_27
REMARK                            x       y       z     vdW  Elec       q    Type
REMARK                         _______ _______ _______ _____ _____    ______ ____
ROOT
ATOM      1  C   UNL     1      49.014   8.206  16.169  0.00  0.00    +0.000 A 
ATOM      2  C   UNL     1      48.392   9.266  15.494  0.00  0.00    +0.000 A 
ATOM      3  C   UNL     1      47.975   9.122  14.163  0.00  0.00    +0.000 A 
ATOM      4  C   UNL     1      48.157   7.910  13.482  0.00  0.00    +0.000 A 
ATOM      5  C   UNL     1      48.817   6.866  14.138  0.00  0.00    +0.000 A 
ATOM      6  C   UNL     1      49.231   7.009  15.466  0.00  0.00    +0.000 A 
ENDROOT
BRANCH   1   7
ATOM      7  C   UNL     1      49.433   8.344  17.631  0.00  0.00    +0.000 C 
ATOM      8  C   UNL     1      50.908   7.949  17.787  0.00  0.00    +0.000 C 
BRANCH   7   9
ATOM      9  N   UNL     1      48.534   7.538  18.474  0.00  0.00    +0.000 NA
ATOM     10  H   UNL     1      48.211   8.132  19.242  0.00  0.00    +0.000 HD
BRANCH   9  11
ATOM     11  C   UNL     1      49.177   6.361  19.073  0.00  0.00    +0.000 C 
BRANCH  11  17
ATOM     12  C   UNL     1      50.567   2.057  17.219  0.00  0.00    +0.000 C 
ATOM     13  C   UNL     1      49.449   3.021  17.483  0.00  0.00    +0.000 A 
ATOM     14  C   UNL     1      48.155   2.744  17.056  0.00  0.00    +0.000 A 
ATOM     15  C   UNL     1      47.156   3.677  17.303  0.00  0.00    +0.000 A 
ATOM     16  C   UNL     1      47.475   4.858  17.963  0.00  0.00    +0.000 A 
ATOM     17  C   UNL     1      48.792   5.069  18.369  0.00  0.00    +0.000 A 
ATOM     18  N   UNL     1      49.776   4.166  18.136  0.00  0.00    +0.000 NA
ENDBRANCH  11  17
ENDBRANCH   9  11
ENDBRANCH   7   9
ENDBRANCH   1   7
BRANCH   4  19
ATOM     19  C   UNL     1      47.672   7.734  12.064  0.00  0.00    +0.000 C 
BRANCH  19  20
ATOM     20  N   UNL     1      46.951   6.498  11.911  0.00  0.00    +0.000 N 
ATOM     21  C   UNL     1      45.589   6.429  12.065  0.00  0.00    +0.000 C 
ATOM     22  O   UNL     1      44.925   7.374  12.476  0.00  0.00    +0.000 OA
ATOM     23  H   UNL     1      47.427   5.753  11.418  0.00  0.00    +0.000 HD
BRANCH  21  24
ATOM     24  C   UNL     1      44.972   5.135  11.743  0.00  0.00    +0.000 A 
ATOM     25  C   UNL     1      44.261   4.443  12.714  0.00  0.00    +0.000 A 
ATOM     26  S   UNL     1      43.634   2.955  12.162  0.00  0.00    +0.000 S 
ATOM     27  C   UNL     1      44.257   3.214  10.602  0.00  0.00    +0.000 A 
ATOM     28  N   UNL     1      44.049   2.307   9.630  0.00  0.00    +0.000 NA
ATOM     29  C   UNL     1      44.594   2.664   8.464  0.00  0.00    +0.000 A 
ATOM     30  N   UNL     1      45.288   3.777   8.198  0.00  0.00    +0.000 NA
ATOM     31  C   UNL     1      45.460   4.633   9.206  0.00  0.00    +0.000 A 
ATOM     32  C   UNL     1      44.956   4.407  10.487  0.00  0.00    +0.000 A 
BRANCH  31  33
ATOM     33  O   UNL     1      46.185   5.738   8.870  0.00  0.00    +0.000 OA
ATOM     34  H   UNL     1      46.967   5.321   8.459  0.00  0.00    +0.000 HD
ENDBRANCH  31  33
ENDBRANCH  21  24
ENDBRANCH  19  20
ENDBRANCH   4  19
TORSDOF 8
ENDMDL
MODEL 5
REMARK VINA RESULT:    -7.253      2.736      8.083
REMARK INTER + INTRA:         -11.604
REMARK INTER:                  -9.893
REMARK INTRA:                  -1.712
REMARK UNBOUND:                -1.171
REMARK  Name = 
REMARK  10 active torsions:
REMARK  status: ('A' for Active; 'I' for Inactive)
REMARK    1  A    between atoms: C_1  and  C_2
REMARK    2  A    between atoms: C_6  and  C_7
REMARK    3  A    between atoms: C_7  and  N_8
REMARK    4  A    between atoms: N_8  and  C_9
REMARK    5  A    between atoms: C_9  and  C_10
REMARK    6  A    between atoms: C_9  and  C_11
REMARK    7  A    between atoms: C_14  and  C_15
REMARK    8  A    between atoms: C_15  and  N_16
REMARK    9  A    between atoms: C_17  and  C_19
REMARK   10  A    between atoms: C_26  and  O_27
REMARK                            x       y       z     vdW  Elec       q    Type
REMARK                         _______ _______ _______ _____ _____    ______ ____
ROOT
ATOM      1  C   UNL     1      50.213   7.915  15.194  0.00  0.00    +0.000 A 
ATOM      2  C   UNL     1      48.830   8.046  15.389  0.00  0.00    +0.000 A 
ATOM      3  C   UNL     1      47.951   8.063  14.297  0.00  0.00    +0.000 A 
ATOM      4  C   UNL     1      48.433   7.936  12.986  0.00  0.00    +0.000 A 
ATOM      5  C   UNL     1      49.815   7.850  12.786  0.00  0.00    +0.000 A 
ATOM      6  C   UNL     1      50.691   7.831  13.875  0.00  0.00    +0.000 A 
ENDROOT
BRANCH   1   7
ATOM      7  C   UNL     1      51.172   7.855  16.381  0.00  0.00    +0.000 C 
ATOM      8  C   UNL     1      52.482   7.178  15.957  0.00  0.00    +0.000 C 
BRANCH   7   9
ATOM      9  N   UNL     1      50.512   7.169  17.505  0.00  0.00    +0.000 NA
ATOM     10  H   UNL     1      50.820   7.621  18.370  0.00  0.00    +0.000 HD
BRANCH   9  11
ATOM     11  C   UNL     1      50.852   5.743  17.613  0.00  0.00    +0.000 C 
BRANCH  11  17
ATOM     12  C   UNL     1      46.968   4.338  14.998  0.00  0.00    +0.000 C 
ATOM     13  C   UNL     1      47.778   4.177  16.250  0.00  0.00    +0.000 A 
ATOM     14  C   UNL     1      47.384   3.285  17.242  0.00  0.00    +0.000 A 
ATOM     15  C   UNL     1      48.154   3.186  18.395  0.00  0.00    +0.000 A 
ATOM     16  C   UNL     1      49.290   3.978  18.526  0.00  0.00    +0.000 A 
ATOM     17  C   UNL     1      49.629   4.847  17.490  0.00  0.00    +0.000 A 
ATOM     18  N   UNL     1      48.887   4.952  16.359  0.00  0.00    +0.000 NA
ENDBRANCH  11  17
ENDBRANCH   9  11
ENDBRANCH   7   9
ENDBRANCH   1   7
BRANCH   4  19
ATOM     19  C   UNL     1      47.489   7.911  11.809  0.00  0.00    +0.000 C 
BRANCH  19  20
ATOM     20  N   UNL     1      46.814   6.643  11.711  0.00  0.00    +0.000 N 
ATOM     21  C   UNL     1      45.476   6.510  11.987  0.00  0.00    +0.000 C 
ATOM     22  O   UNL     1      44.810   7.422  12.464  0.00  0.00    +0.000 OA
ATOM     23  H   UNL     1      47.277   5.923  11.171  0.00  0.00    +0.000 HD
BRANCH  21  24
ATOM     24  C   UNL     1      44.893   5.191  11.710  0.00  0.00    +0.000 A 
ATOM     25  C   UNL     1      44.185   4.522  12.700  0.00  0.00    +0.000 A 
ATOM     26  S   UNL     1      43.599   2.999  12.202  0.00  0.00    +0.000 S 
ATOM     27  C   UNL     1      44.234   3.209  10.640  0.00  0.00    +0.000 A 
ATOM     28  N   UNL     1      44.058   2.260   9.703  0.00  0.00    +0.000 NA
ATOM     29  C   UNL     1      44.609   2.583   8.530  0.00  0.00    +0.000 A 
ATOM     30  N   UNL     1      45.281   3.700   8.226  0.00  0.00    +0.000 NA
ATOM     31  C   UNL     1      45.421   4.599   9.201  0.00  0.00    +0.000 A 
ATOM     32  C   UNL     1      44.908   4.413  10.485  0.00  0.00    +0.000 A 
BRANCH  31  33
ATOM     33  O   UNL     1      46.126   5.706   8.828  0.00  0.00    +0.000 OA
ATOM     34  H   UNL     1      46.210   6.163   9.687  0.00  0.00    +0.000 HD
ENDBRANCH  31  33
ENDBRANCH  21  24
ENDBRANCH  19  20
ENDBRANCH   4  19
TORSDOF 8
ENDMDL
MODEL 6
REMARK VINA RESULT:    -7.225      2.798      5.035
REMARK INTER + INTRA:         -11.564
REMARK INTER:                 -10.190
REMARK INTRA:                  -1.374
REMARK UNBOUND:                -1.171
REMARK  Name = 
REMARK  10 active torsions:
REMARK  status: ('A' for Active; 'I' for Inactive)
REMARK    1  A    between atoms: C_1  and  C_2
REMARK    2  A    between atoms: C_6  and  C_7
REMARK    3  A    between atoms: C_7  and  N_8
REMARK    4  A    between atoms: N_8  and  C_9
REMARK    5  A    between atoms: C_9  and  C_10
REMARK    6  A    between atoms: C_9  and  C_11
REMARK    7  A    between atoms: C_14  and  C_15
REMARK    8  A    between atoms: C_15  and  N_16
REMARK    9  A    between atoms: C_17  and  C_19
REMARK   10  A    between atoms: C_26  and  O_27
REMARK                            x       y       z     vdW  Elec       q    Type
REMARK                         _______ _______ _______ _____ _____    ______ ____
ROOT
ATOM      1  C   UNL     1      47.524   5.780  13.692  0.00  0.00    +0.000 A 
ATOM      2  C   UNL     1      48.109   6.307  14.852  0.00  0.00    +0.000 A 
ATOM      3  C   UNL     1      48.149   5.560  16.038  0.00  0.00    +0.000 A 
ATOM      4  C   UNL     1      47.617   4.264  16.087  0.00  0.00    +0.000 A 
ATOM      5  C   UNL     1      46.993   3.753  14.944  0.00  0.00    +0.000 A 
ATOM      6  C   UNL     1      46.955   4.497  13.761  0.00  0.00    +0.000 A 
ENDROOT
BRANCH   1   7
ATOM      7  C   UNL     1      47.514   6.573  12.386  0.00  0.00    +0.000 C 
ATOM      8  C   UNL     1      48.727   7.511  12.340  0.00  0.00    +0.000 C 
BRANCH   7   9
ATOM      9  N   UNL     1      46.233   7.289  12.261  0.00  0.00    +0.000 NA
ATOM     10  H   UNL     1      45.666   7.059  13.079  0.00  0.00    +0.000 HD
BRANCH   9  11
ATOM     11  C   UNL     1      45.457   6.912  11.071  0.00  0.00    +0.000 C 
BRANCH  11  17
ATOM     12  C   UNL     1      44.626   2.401   9.380  0.00  0.00    +0.000 C 
ATOM     13  C   UNL     1      44.351   3.429  10.437  0.00  0.00    +0.000 A 
ATOM     14  C   UNL     1      43.463   3.162  11.473  0.00  0.00    +0.000 A 
ATOM     15  C   UNL     1      43.221   4.152  12.418  0.00  0.00    +0.000 A 
ATOM     16  C   UNL     1      43.868   5.378  12.301  0.00  0.00    +0.000 A 
ATOM     17  C   UNL     1      44.751   5.575  11.240  0.00  0.00    +0.000 A 
ATOM     18  N   UNL     1      44.996   4.617  10.312  0.00  0.00    +0.000 NA
ENDBRANCH  11  17
ENDBRANCH   9  11
ENDBRANCH   7   9
ENDBRANCH   1   7
BRANCH   4  19
ATOM     19  C   UNL     1      47.695   3.438  17.347  0.00  0.00    +0.000 C 
BRANCH  19  20
ATOM     20  N   UNL     1      49.062   3.184  17.719  0.00  0.00    +0.000 N 
ATOM     21  C   UNL     1      49.859   2.323  17.007  0.00  0.00    +0.000 C 
ATOM     22  O   UNL     1      49.422   1.618  16.104  0.00  0.00    +0.000 OA
ATOM     23  H   UNL     1      49.496   3.856  18.337  0.00  0.00    +0.000 HD
BRANCH  21  24
ATOM     24  C   UNL     1      51.268   2.267  17.417  0.00  0.00    +0.000 A 
ATOM     25  C   UNL     1      51.898   1.040  17.580  0.00  0.00    +0.000 A 
ATOM     26  S   UNL     1      53.524   1.174  18.076  0.00  0.00    +0.000 S 
ATOM     27  C   UNL     1      53.447   2.871  18.044  0.00  0.00    +0.000 A 
ATOM     28  N   UNL     1      54.533   3.605  18.351  0.00  0.00    +0.000 NA
ATOM     29  C   UNL     1      54.308   4.919  18.269  0.00  0.00    +0.000 A 
ATOM     30  N   UNL     1      53.166   5.530  17.931  0.00  0.00    +0.000 NA
ATOM     31  C   UNL     1      52.129   4.744  17.641  0.00  0.00    +0.000 A 
ATOM     32  C   UNL     1      52.197   3.352  17.681  0.00  0.00    +0.000 A 
BRANCH  31  33
ATOM     33  O   UNL     1      50.995   5.431  17.317  0.00  0.00    +0.000 OA
ATOM     34  H   UNL     1      50.696   5.711  18.203  0.00  0.00    +0.000 HD
ENDBRANCH  31  33
ENDBRANCH  21  24
ENDBRANCH  19  20
ENDBRANCH   4  19
TORSDOF 8
ENDMDL
MODEL 7
REMARK VINA RESULT:    -7.190      1.410      2.667
REMARK INTER + INTRA:         -11.514
REMARK INTER:                  -9.992
REMARK INTRA:                  -1.523
REMARK UNBOUND:                -1.171
REMARK  Name = 
REMARK  10 active torsions:
REMARK  status: ('A' for Active; 'I' for Inactive)
REMARK    1  A    between atoms: C_1  and  C_2
REMARK    2  A    between atoms: C_6  and  C_7
REMARK    3  A    between atoms: C_7  and  N_8
REMARK    4  A    between atoms: N_8  and  C_9
REMARK    5  A    between atoms: C_9  and  C_10
REMARK    6  A    between atoms: C_9  and  C_11
REMARK    7  A    between atoms: C_14  and  C_15
REMARK    8  A    between atoms: C_15  and  N_16
REMARK    9  A    between atoms: C_17  and  C_19
REMARK   10  A    between atoms: C_26  and  O_27
REMARK                            x       y       z     vdW  Elec       q    Type
REMARK                         _______ _______ _______ _____ _____    ______ ____
ROOT
ATOM      1  C   UNL     1      45.996   8.007  11.914  0.00  0.00    +0.000 A 
ATOM      2  C   UNL     1      46.432   9.075  12.712  0.00  0.00    +0.000 A 
ATOM      3  C   UNL     1      47.703   9.055  13.304  0.00  0.00    +0.000 A 
ATOM      4  C   UNL     1      48.571   7.973  13.101  0.00  0.00    +0.000 A 
ATOM      5  C   UNL     1      48.122   6.887  12.342  0.00  0.00    +0.000 A 
ATOM      6  C   UNL     1      46.855   6.908  11.751  0.00  0.00    +0.000 A 
ENDROOT
BRANCH   1   7
ATOM      7  C   UNL     1      44.629   8.042  11.233  0.00  0.00    +0.000 C 
ATOM      8  C   UNL     1      44.139   9.493  11.129  0.00  0.00    +0.000 C 
BRANCH   7   9
ATOM      9  N   UNL     1      43.695   7.175  11.970  0.00  0.00    +0.000 NA
ATOM     10  H   UNL     1      44.249   6.515  12.520  0.00  0.00    +0.000 HD
BRANCH   9  11
ATOM     11  C   UNL     1      42.808   6.385  11.104  0.00  0.00    +0.000 C 
BRANCH  11  17
ATOM     12  C   UNL     1      45.072   3.314   8.048  0.00  0.00    +0.000 C 
ATOM     13  C   UNL     1      44.426   3.524   9.385  0.00  0.00    +0.000 A 
ATOM     14  C   UNL     1      44.306   2.475  10.289  0.00  0.00    +0.000 A 
ATOM     15  C   UNL     1      43.680   2.711  11.508  0.00  0.00    +0.000 A 
ATOM     16  C   UNL     1      43.192   3.982  11.787  0.00  0.00    +0.000 A 
ATOM     17  C   UNL     1      43.352   4.990  10.837  0.00  0.00    +0.000 A 
ATOM     18  N   UNL     1      43.962   4.773   9.645  0.00  0.00    +0.000 NA
ENDBRANCH  11  17
ENDBRANCH   9  11
ENDBRANCH   7   9
ENDBRANCH   1   7
BRANCH   4  19
ATOM     19  C   UNL     1      49.956   7.963  13.701  0.00  0.00    +0.000 C 
BRANCH  19  20
ATOM     20  N   UNL     1      50.059   6.990  14.756  0.00  0.00    +0.000 N 
ATOM     21  C   UNL     1      49.772   7.302  16.061  0.00  0.00    +0.000 C 
ATOM     22  O   UNL     1      49.548   8.450  16.429  0.00  0.00    +0.000 OA
ATOM     23  H   UNL     1      50.074   6.018  14.476  0.00  0.00    +0.000 HD
BRANCH  21  24
ATOM     24  C   UNL     1      49.785   6.178  17.007  0.00  0.00    +0.000 A 
ATOM     25  C   UNL     1      50.745   6.123  18.009  0.00  0.00    +0.000 A 
ATOM     26  S   UNL     1      50.614   4.738  18.996  0.00  0.00    +0.000 S 
ATOM     27  C   UNL     1      49.249   4.196  18.143  0.00  0.00    +0.000 A 
ATOM     28  N   UNL     1      48.631   3.057  18.505  0.00  0.00    +0.000 NA
ATOM     29  C   UNL     1      47.571   2.778  17.741  0.00  0.00    +0.000 A 
ATOM     30  N   UNL     1      47.103   3.490  16.709  0.00  0.00    +0.000 NA
ATOM     31  C   UNL     1      47.763   4.606  16.401  0.00  0.00    +0.000 A 
ATOM     32  C   UNL     1      48.891   5.038  17.099  0.00  0.00    +0.000 A 
BRANCH  31  33
ATOM     33  O   UNL     1      47.241   5.275  15.333  0.00  0.00    +0.000 OA
ATOM     34  H   UNL     1      46.642   4.595  14.971  0.00  0.00    +0.000 HD
ENDBRANCH  31  33
ENDBRANCH  21  24
ENDBRANCH  19  20
ENDBRANCH   4  19
TORSDOF 8
ENDMDL
MODEL 8
REMARK VINA RESULT:    -7.119      3.313      7.855
REMARK INTER + INTRA:         -11.411
REMARK INTER:                  -9.585
REMARK INTRA:                  -1.827
REMARK UNBOUND:                -1.171
REMARK  Name = 
REMARK  10 active torsions:
REMARK  status: ('A' for Active; 'I' for Inactive)
REMARK    1  A    between atoms: C_1  and  C_2
REMARK    2  A    between atoms: C_6  and  C_7
REMARK    3  A    between atoms: C_7  and  N_8
REMARK    4  A    between atoms: N_8  and  C_9
REMARK    5  A    between atoms: C_9  and  C_10
REMARK    6  A    between atoms: C_9  and  C_11
REMARK    7  A    between atoms: C_14  and  C_15
REMARK    8  A    between atoms: C_15  and  N_16
REMARK    9  A    between atoms: C_17  and  C_19
REMARK   10  A    between atoms: C_26  and  O_27
REMARK                            x       y       z     vdW  Elec       q    Type
REMARK                         _______ _______ _______ _____ _____    ______ ____
ROOT
ATOM      1  C   UNL     1      49.378   7.777  17.781  0.00  0.00    +0.000 A 
ATOM      2  C   UNL     1      50.291   6.969  17.089  0.00  0.00    +0.000 A 
ATOM      3  C   UNL     1      50.329   6.968  15.688  0.00  0.00    +0.000 A 
ATOM      4  C   UNL     1      49.464   7.785  14.946  0.00  0.00    +0.000 A 
ATOM      5  C   UNL     1      48.522   8.559  15.633  0.00  0.00    +0.000 A 
ATOM      6  C   UNL     1      48.486   8.561  17.031  0.00  0.00    +0.000 A 
ENDROOT
BRANCH   1   7
ATOM      7  C   UNL     1      49.361   7.813  19.308  0.00  0.00    +0.000 C 
ATOM      8  C   UNL     1      50.731   7.389  19.853  0.00  0.00    +0.000 C 
BRANCH   7   9
ATOM      9  N   UNL     1      48.263   6.967  19.803  0.00  0.00    +0.000 NA
ATOM     10  H   UNL     1      47.944   7.357  20.693  0.00  0.00    +0.000 HD
BRANCH   9  11
ATOM     11  C   UNL     1      48.654   5.572  20.053  0.00  0.00    +0.000 C 
BRANCH  11  17
ATOM     12  C   UNL     1      50.346   2.024  17.148  0.00  0.00    +0.000 C 
ATOM     13  C   UNL     1      49.246   2.998  17.450  0.00  0.00    +0.000 A 
ATOM     14  C   UNL     1      48.134   3.093  16.621  0.00  0.00    +0.000 A 
ATOM     15  C   UNL     1      47.150   4.026  16.927  0.00  0.00    +0.000 A 
ATOM     16  C   UNL     1      47.305   4.837  18.046  0.00  0.00    +0.000 A 
ATOM     17  C   UNL     1      48.444   4.685  18.836  0.00  0.00    +0.000 A 
ATOM     18  N   UNL     1      49.410   3.777  18.550  0.00  0.00    +0.000 NA
ENDBRANCH  11  17
ENDBRANCH   9  11
ENDBRANCH   7   9
ENDBRANCH   1   7
BRANCH   4  19
ATOM     19  C   UNL     1      49.527   7.821  13.439  0.00  0.00    +0.000 C 
BRANCH  19  20
ATOM     20  N   UNL     1      48.234   7.570  12.858  0.00  0.00    +0.000 N 
ATOM     21  C   UNL     1      47.644   6.333  12.908  0.00  0.00    +0.000 C 
ATOM     22  O   UNL     1      48.233   5.340  13.322  0.00  0.00    +0.000 OA
ATOM     23  H   UNL     1      47.659   8.380  12.665  0.00  0.00    +0.000 HD
BRANCH  21  24
ATOM     24  C   UNL     1      46.268   6.257  12.400  0.00  0.00    +0.000 A 
ATOM     25  C   UNL     1      45.672   7.379  11.838  0.00  0.00    +0.000 A 
ATOM     26  S   UNL     1      44.069   7.105  11.321  0.00  0.00    +0.000 S 
ATOM     27  C   UNL     1      44.142   5.475  11.791  0.00  0.00    +0.000 A 
ATOM     28  N   UNL     1      43.083   4.666  11.599  0.00  0.00    +0.000 NA
ATOM     29  C   UNL     1      43.306   3.416  12.014  0.00  0.00    +0.000 A 
ATOM     30  N   UNL     1      44.421   2.930  12.571  0.00  0.00    +0.000 NA
ATOM     31  C   UNL     1      45.431   3.785  12.735  0.00  0.00    +0.000 A 
ATOM     32  C   UNL     1      45.360   5.126  12.358  0.00  0.00    +0.000 A 
BRANCH  31  33
ATOM     33  O   UNL     1      46.531   3.228  13.319  0.00  0.00    +0.000 OA
ATOM     34  H   UNL     1      47.243   3.652  12.803  0.00  0.00    +0.000 HD
ENDBRANCH  31  33
ENDBRANCH  21  24
ENDBRANCH  19  20
ENDBRANCH   4  19
TORSDOF 8
ENDMDL
MODEL 9
REMARK VINA RESULT:    -7.097      4.317      9.631
REMARK INTER + INTRA:         -11.380
REMARK INTER:                 -10.315
REMARK INTRA:                  -1.064
REMARK UNBOUND:                -1.171
REMARK  Name = 
REMARK  10 active torsions:
REMARK  status: ('A' for Active; 'I' for Inactive)
REMARK    1  A    between atoms: C_1  and  C_2
REMARK    2  A    between atoms: C_6  and  C_7
REMARK    3  A    between atoms: C_7  and  N_8
REMARK    4  A    between atoms: N_8  and  C_9
REMARK    5  A    between atoms: C_9  and  C_10
REMARK    6  A    between atoms: C_9  and  C_11
REMARK    7  A    between atoms: C_14  and  C_15
REMARK    8  A    between atoms: C_15  and  N_16
REMARK    9  A    between atoms: C_17  and  C_19
REMARK   10  A    between atoms: C_26  and  O_27
REMARK                            x       y       z     vdW  Elec       q    Type
REMARK                         _______ _______ _______ _____ _____    ______ ____
ROOT
ATOM      1  C   UNL     1      51.264   3.804  18.303  0.00  0.00    +0.000 A 
ATOM      2  C   UNL     1      50.882   2.716  17.505  0.00  0.00    +0.000 A 
ATOM      3  C   UNL     1      49.559   2.585  17.059  0.00  0.00    +0.000 A 
ATOM      4  C   UNL     1      48.592   3.544  17.390  0.00  0.00    +0.000 A 
ATOM      5  C   UNL     1      48.960   4.606  18.223  0.00  0.00    +0.000 A 
ATOM      6  C   UNL     1      50.279   4.738  18.666  0.00  0.00    +0.000 A 
ENDROOT
BRANCH   1   7
ATOM      7  C   UNL     1      52.712   3.974  18.758  0.00  0.00    +0.000 C 
ATOM      8  C   UNL     1      53.565   4.486  17.589  0.00  0.00    +0.000 C 
BRANCH   7   9
ATOM      9  N   UNL     1      53.204   2.701  19.309  0.00  0.00    +0.000 NA
ATOM     10  H   UNL     1      53.218   2.786  20.327  0.00  0.00    +0.000 HD
BRANCH   9  11
ATOM     11  C   UNL     1      54.566   2.354  18.880  0.00  0.00    +0.000 C 
BRANCH  11  17
ATOM     12  C   UNL     1      54.137  -2.488  19.396  0.00  0.00    +0.000 C 
ATOM     13  C   UNL     1      54.439  -1.333  18.489  0.00  0.00    +0.000 A 
ATOM     14  C   UNL     1      54.806  -1.545  17.165  0.00  0.00    +0.000 A 
ATOM     15  C   UNL     1      55.099  -0.445  16.368  0.00  0.00    +0.000 A 
ATOM     16  C   UNL     1      55.020   0.832  16.913  0.00  0.00    +0.000 A 
ATOM     17  C   UNL     1      54.639   0.972  18.247  0.00  0.00    +0.000 A 
ATOM     18  N   UNL     1      54.350  -0.093  19.035  0.00  0.00    +0.000 NA
ENDBRANCH  11  17
ENDBRANCH   9  11
ENDBRANCH   7   9
ENDBRANCH   1   7
BRANCH   4  19
ATOM     19  C   UNL     1      47.177   3.431  16.879  0.00  0.00    +0.000 C 
BRANCH  19  20
ATOM     20  N   UNL     1      46.901   4.436  15.886  0.00  0.00    +0.000 N 
ATOM     21  C   UNL     1      46.917   4.153  14.544  0.00  0.00    +0.000 C 
ATOM     22  O   UNL     1      47.300   3.074  14.103  0.00  0.00    +0.000 OA
ATOM     23  H   UNL     1      46.426   5.271  16.205  0.00  0.00    +0.000 HD
BRANCH  21  24
ATOM     24  C   UNL     1      46.481   5.238  13.654  0.00  0.00    +0.000 A 
ATOM     25  C   UNL     1      47.330   6.304  13.390  0.00  0.00    +0.000 A 
ATOM     26  S   UNL     1      46.645   7.473  12.353  0.00  0.00    +0.000 S 
ATOM     27  C   UNL     1      45.216   6.569  12.194  0.00  0.00    +0.000 A 
ATOM     28  N   UNL     1      44.215   7.014  11.411  0.00  0.00    +0.000 NA
ATOM     29  C   UNL     1      43.169   6.183  11.387  0.00  0.00    +0.000 A 
ATOM     30  N   UNL     1      43.039   5.020  12.036  0.00  0.00    +0.000 NA
ATOM     31  C   UNL     1      44.066   4.639  12.796  0.00  0.00    +0.000 A 
ATOM     32  C   UNL     1      45.231   5.393  12.932  0.00  0.00    +0.000 A 
BRANCH  31  33
ATOM     33  O   UNL     1      43.862   3.452  13.438  0.00  0.00    +0.000 OA
ATOM     34  H   UNL     1      44.782   3.202  13.649  0.00  0.00    +0.000 HD
ENDBRANCH  31  33
ENDBRANCH  21  24
ENDBRANCH  19  20
ENDBRANCH   4  19
TORSDOF 8
ENDMDL
