MODEL 1
REMARK VINA RESULT:    -8.569      0.000      0.000
REMARK INTER + INTRA:         -12.897
REMARK INTER:                 -12.075
REMARK INTRA:                  -0.822
REMARK UNBOUND:                -0.822
REMARK  Name = 
REMARK  7 active torsions:
REMARK  status: ('A' for Active; 'I' for Inactive)
REMARK    1  A    between atoms: C_2  and  C_20
REMARK    2  A    between atoms: N_3  and  C_4
REMARK    3  A    between atoms: C_4  and  C_5
REMARK    4  A    between atoms: C_8  and  C_9
REMARK    5  A    between atoms: C_9  and  N_10
REMARK    6  A    between atoms: N_10  and  C_11
REMARK    7  A    between atoms: C_11  and  C_12
REMARK                            x       y       z     vdW  Elec       q    Type
REMARK                         _______ _______ _______ _____ _____    ______ ____
ROOT
ATOM      1  C   UNL     1      46.909   5.971  13.092  0.00  0.00    +0.000 A 
ATOM      2  C   UNL     1      45.973   5.027  13.529  0.00  0.00    +0.000 A 
ATOM      3  C   UNL     1      44.913   4.640  12.708  0.00  0.00    +0.000 A 
ATOM      4  C   UNL     1      44.764   5.186  11.424  0.00  0.00    +0.000 A 
ATOM      5  C   UNL     1      45.718   6.108  10.972  0.00  0.00    +0.000 A 
ATOM      6  C   UNL     1      46.779   6.494  11.794  0.00  0.00    +0.000 A 
ENDROOT
BRANCH   1   7
ATOM      7  C   UNL     1      48.044   6.389  13.983  0.00  0.00    +0.000 C 
BRANCH   7  10
ATOM      8  O   UNL     1      49.977   6.140  15.964  0.00  0.00    +0.000 OA
ATOM      9  C   UNL     1      48.802   5.937  16.263  0.00  0.00    +0.000 C 
ATOM     10  N   UNL     1      47.778   6.052  15.356  0.00  0.00    +0.000 N 
ATOM     11  H   UNL     1      46.823   6.042  15.682  0.00  0.00    +0.000 HD
BRANCH   9  12
ATOM     12  C   UNL     1      48.392   5.566  17.615  0.00  0.00    +0.000 A 
ATOM     13  C   UNL     1      48.328   4.281  18.137  0.00  0.00    +0.000 A 
ATOM     14  N   UNL     1      48.010   4.374  19.469  0.00  0.00    +0.000 N 
ATOM     15  C   UNL     1      47.861   5.685  19.820  0.00  0.00    +0.000 A 
ATOM     16  N   UNL     1      47.590   6.109  21.068  0.00  0.00    +0.000 NA
ATOM     17  C   UNL     1      47.481   7.455  21.151  0.00  0.00    +0.000 A 
ATOM     18  C   UNL     1      47.590   8.344  20.090  0.00  0.00    +0.000 A 
ATOM     19  C   UNL     1      47.877   7.847  18.818  0.00  0.00    +0.000 A 
ATOM     20  C   UNL     1      48.045   6.458  18.679  0.00  0.00    +0.000 A 
ATOM     21  H   UNL     1      47.923   3.611  20.124  0.00  0.00    +0.000 HD
ENDBRANCH   9  12
ENDBRANCH   7  10
ENDBRANCH   1   7
BRANCH   4  22
ATOM     22  C   UNL     1      43.597   4.782  10.552  0.00  0.00    +0.000 C 
BRANCH  22  23
ATOM     23  N   UNL     1      44.064   4.283   9.260  0.00  0.00    +0.000 NA
ATOM     24  H   UNL     1      44.894   4.811   8.986  0.00  0.00    +0.000 HD
BRANCH  23  25
ATOM     25  C   UNL     1      44.430   2.863   9.331  0.00  0.00    +0.000 C 
BRANCH  25  26
ATOM     26  C   UNL     1      45.525   2.510   8.341  0.00  0.00    +0.000 A 
ATOM     27  C   UNL     1      45.965   3.456   7.415  0.00  0.00    +0.000 A 
ATOM     28  C   UNL     1      46.981   3.113   6.527  0.00  0.00    +0.000 A 
ATOM     29  C   UNL     1      47.528   1.837   6.583  0.00  0.00    +0.000 A 
ATOM     30  C   UNL     1      47.035   0.956   7.530  0.00  0.00    +0.000 A 
ATOM     31  N   UNL     1      46.051   1.260   8.406  0.00  0.00    +0.000 NA
ENDBRANCH  25  26
ENDBRANCH  23  25
ENDBRANCH  22  23
ENDBRANCH   4  22
TORSDOF 7
ENDMDL
MODEL 2
REMARK VINA RESULT:    -8.230      1.539      2.183
REMARK INTER + INTRA:         -12.419
REMARK INTER:                 -11.352
REMARK INTRA:                  -1.067
REMARK UNBOUND:                -0.822
REMARK  Name = 
REMARK  7 active torsions:
REMARK  status: ('A' for Active; 'I' for Inactive)
REMARK    1  A    between atoms: C_2  and  C_20
REMARK    2  A    between atoms: N_3  and  C_4
REMARK    3  A    between atoms: C_4  and  C_5
REMARK    4  A    between atoms: C_8  and  C_9
REMARK    5  A    between atoms: C_9  and  N_10
REMARK    6  A    between atoms: N_10  and  C_11
REMARK    7  A    between atoms: C_11  and  C_12
REMARK                            x       y       z     vdW  Elec       q    Type
REMARK                         _______ _______ _______ _____ _____    ______ ____
ROOT
ATOM      1  C   UNL     1      46.448   6.335  12.694  0.00  0.00    +0.000 A 
ATOM      2  C   UNL     1      45.978   5.236  13.422  0.00  0.00    +0.000 A 
ATOM      3  C   UNL     1      45.046   4.359  12.868  0.00  0.00    +0.000 A 
ATOM      4  C   UNL     1      44.559   4.557  11.566  0.00  0.00    +0.000 A 
ATOM      5  C   UNL     1      45.052   5.640  10.824  0.00  0.00    +0.000 A 
ATOM      6  C   UNL     1      45.987   6.517  11.380  0.00  0.00    +0.000 A 
ENDROOT
BRANCH   1   7
ATOM      7  C   UNL     1      47.447   7.280  13.300  0.00  0.00    +0.000 C 
BRANCH   7  10
ATOM      8  O   UNL     1      50.029   7.107  14.315  0.00  0.00    +0.000 OA
ATOM      9  C   UNL     1      49.087   6.822  15.053  0.00  0.00    +0.000 C 
ATOM     10  N   UNL     1      47.779   6.894  14.645  0.00  0.00    +0.000 N 
ATOM     11  H   UNL     1      47.040   6.815  15.329  0.00  0.00    +0.000 HD
BRANCH   9  12
ATOM     12  C   UNL     1      49.281   6.394  16.437  0.00  0.00    +0.000 A 
ATOM     13  C   UNL     1      49.868   7.132  17.457  0.00  0.00    +0.000 A 
ATOM     14  N   UNL     1      49.751   6.419  18.624  0.00  0.00    +0.000 N 
ATOM     15  C   UNL     1      49.110   5.238  18.384  0.00  0.00    +0.000 A 
ATOM     16  N   UNL     1      48.804   4.334  19.333  0.00  0.00    +0.000 NA
ATOM     17  C   UNL     1      48.178   3.243  18.835  0.00  0.00    +0.000 A 
ATOM     18  C   UNL     1      47.892   3.013  17.496  0.00  0.00    +0.000 A 
ATOM     19  C   UNL     1      48.227   3.988  16.556  0.00  0.00    +0.000 A 
ATOM     20  C   UNL     1      48.842   5.164  17.021  0.00  0.00    +0.000 A 
ATOM     21  H   UNL     1      50.054   6.708  19.542  0.00  0.00    +0.000 HD
ENDBRANCH   9  12
ENDBRANCH   7  10
ENDBRANCH   1   7
BRANCH   4  22
ATOM     22  C   UNL     1      43.527   3.618  10.984  0.00  0.00    +0.000 C 
BRANCH  22  23
ATOM     23  N   UNL     1      43.847   3.294   9.596  0.00  0.00    +0.000 NA
ATOM     24  H   UNL     1      44.350   4.081   9.183  0.00  0.00    +0.000 HD
BRANCH  23  25
ATOM     25  C   UNL     1      44.705   2.107   9.503  0.00  0.00    +0.000 C 
BRANCH  25  26
ATOM     26  C   UNL     1      45.690   2.207   8.352  0.00  0.00    +0.000 A 
ATOM     27  C   UNL     1      45.768   3.377   7.597  0.00  0.00    +0.000 A 
ATOM     28  C   UNL     1      46.691   3.451   6.556  0.00  0.00    +0.000 A 
ATOM     29  C   UNL     1      47.505   2.356   6.293  0.00  0.00    +0.000 A 
ATOM     30  C   UNL     1      47.363   1.231   7.088  0.00  0.00    +0.000 A 
ATOM     31  N   UNL     1      46.480   1.131   8.106  0.00  0.00    +0.000 NA
ENDBRANCH  25  26
ENDBRANCH  23  25
ENDBRANCH  22  23
ENDBRANCH   4  22
TORSDOF 7
ENDMDL
MODEL 3
REMARK VINA RESULT:    -7.574      3.614      5.864
REMARK INTER + INTRA:         -11.495
REMARK INTER:                 -10.535
REMARK INTRA:                  -0.960
REMARK UNBOUND:                -0.822
REMARK  Name = 
REMARK  7 active torsions:
REMARK  status: ('A' for Active; 'I' for Inactive)
REMARK    1  A    between atoms: C_2  and  C_20
REMARK    2  A    between atoms: N_3  and  C_4
REMARK    3  A    between atoms: C_4  and  C_5
REMARK    4  A    between atoms: C_8  and  C_9
REMARK    5  A    between atoms: C_9  and  N_10
REMARK    6  A    between atoms: N_10  and  C_11
REMARK    7  A    between atoms: C_11  and  C_12
REMARK                            x       y       z     vdW  Elec       q    Type
REMARK                         _______ _______ _______ _____ _____    ______ ____
ROOT
ATOM      1  C   UNL     1      46.909   5.863  13.005  0.00  0.00    +0.000 A 
ATOM      2  C   UNL     1      46.733   6.420  11.733  0.00  0.00    +0.000 A 
ATOM      3  C   UNL     1      45.630   6.077  10.950  0.00  0.00    +0.000 A 
ATOM      4  C   UNL     1      44.671   5.168  11.422  0.00  0.00    +0.000 A 
ATOM      5  C   UNL     1      44.829   4.633  12.708  0.00  0.00    +0.000 A 
ATOM      6  C   UNL     1      45.933   4.978  13.492  0.00  0.00    +0.000 A 
ENDROOT
BRANCH   1   7
ATOM      7  C   UNL     1      48.103   6.231  13.840  0.00  0.00    +0.000 C 
BRANCH   7  10
ATOM      8  O   UNL     1      48.731   8.913  14.207  0.00  0.00    +0.000 OA
ATOM      9  C   UNL     1      49.305   8.293  13.313  0.00  0.00    +0.000 C 
ATOM     10  N   UNL     1      49.071   6.963  13.069  0.00  0.00    +0.000 N 
ATOM     11  H   UNL     1      49.682   6.459  12.443  0.00  0.00    +0.000 HD
BRANCH   9  12
ATOM     12  C   UNL     1      50.296   8.918  12.440  0.00  0.00    +0.000 A 
ATOM     13  C   UNL     1      51.625   8.542  12.295  0.00  0.00    +0.000 A 
ATOM     14  N   UNL     1      52.180   9.304  11.298  0.00  0.00    +0.000 N 
ATOM     15  C   UNL     1      51.247  10.166  10.799  0.00  0.00    +0.000 A 
ATOM     16  N   UNL     1      51.469  11.019   9.782  0.00  0.00    +0.000 NA
ATOM     17  C   UNL     1      50.386  11.773   9.484  0.00  0.00    +0.000 A 
ATOM     18  C   UNL     1      49.167  11.737  10.147  0.00  0.00    +0.000 A 
ATOM     19  C   UNL     1      48.991  10.830  11.192  0.00  0.00    +0.000 A 
ATOM     20  C   UNL     1      50.070   9.989  11.519  0.00  0.00    +0.000 A 
ATOM     21  H   UNL     1      53.123   9.241  10.942  0.00  0.00    +0.000 HD
ENDBRANCH   9  12
ENDBRANCH   7  10
ENDBRANCH   1   7
BRANCH   4  22
ATOM     22  C   UNL     1      43.494   4.780  10.555  0.00  0.00    +0.000 C 
BRANCH  22  23
ATOM     23  N   UNL     1      43.949   4.240   9.276  0.00  0.00    +0.000 NA
ATOM     24  H   UNL     1      44.731   4.805   8.942  0.00  0.00    +0.000 HD
BRANCH  23  25
ATOM     25  C   UNL     1      44.414   2.854   9.412  0.00  0.00    +0.000 C 
BRANCH  25  26
ATOM     26  C   UNL     1      45.505   2.521   8.410  0.00  0.00    +0.000 A 
ATOM     27  C   UNL     1      45.970   3.498   7.530  0.00  0.00    +0.000 A 
ATOM     28  C   UNL     1      46.982   3.173   6.630  0.00  0.00    +0.000 A 
ATOM     29  C   UNL     1      47.499   1.884   6.628  0.00  0.00    +0.000 A 
ATOM     30  C   UNL     1      46.981   0.971   7.532  0.00  0.00    +0.000 A 
ATOM     31  N   UNL     1      46.002   1.258   8.418  0.00  0.00    +0.000 NA
ENDBRANCH  25  26
ENDBRANCH  23  25
ENDBRANCH  22  23
ENDBRANCH   4  22
TORSDOF 7
ENDMDL
MODEL 4
REMARK VINA RESULT:    -7.359      1.844      2.497
REMARK INTER + INTRA:         -11.191
REMARK INTER:                 -10.338
REMARK INTRA:                  -0.853
REMARK UNBOUND:                -0.822
REMARK  Name = 
REMARK  7 active torsions:
REMARK  status: ('A' for Active; 'I' for Inactive)
REMARK    1  A    between atoms: C_2  and  C_20
REMARK    2  A    between atoms: N_3  and  C_4
REMARK    3  A    between atoms: C_4  and  C_5
REMARK    4  A    between atoms: C_8  and  C_9
REMARK    5  A    between atoms: C_9  and  N_10
REMARK    6  A    between atoms: N_10  and  C_11
REMARK    7  A    between atoms: C_11  and  C_12
REMARK                            x       y       z     vdW  Elec       q    Type
REMARK                         _______ _______ _______ _____ _____    ______ ____
ROOT
ATOM      1  C   UNL     1      46.987   6.211  12.911  0.00  0.00    +0.000 A 
ATOM      2  C   UNL     1      46.583   5.037  13.557  0.00  0.00    +0.000 A 
ATOM      3  C   UNL     1      45.649   4.184  12.967  0.00  0.00    +0.000 A 
ATOM      4  C   UNL     1      45.096   4.483  11.712  0.00  0.00    +0.000 A 
ATOM      5  C   UNL     1      45.523   5.643  11.051  0.00  0.00    +0.000 A 
ATOM      6  C   UNL     1      46.459   6.495  11.641  0.00  0.00    +0.000 A 
ENDROOT
BRANCH   1   7
ATOM      7  C   UNL     1      47.989   7.129  13.554  0.00  0.00    +0.000 C 
BRANCH   7  10
ATOM      8  O   UNL     1      48.993   8.708  15.609  0.00  0.00    +0.000 OA
ATOM      9  C   UNL     1      48.883   7.498  15.799  0.00  0.00    +0.000 C 
ATOM     10  N   UNL     1      48.383   6.643  14.849  0.00  0.00    +0.000 N 
ATOM     11  H   UNL     1      48.155   5.694  15.107  0.00  0.00    +0.000 HD
BRANCH   9  12
ATOM     12  C   UNL     1      49.266   6.867  17.060  0.00  0.00    +0.000 A 
ATOM     13  C   UNL     1      48.450   6.663  18.164  0.00  0.00    +0.000 A 
ATOM     14  N   UNL     1      49.155   5.938  19.092  0.00  0.00    +0.000 N 
ATOM     15  C   UNL     1      50.408   5.674  18.618  0.00  0.00    +0.000 A 
ATOM     16  N   UNL     1      51.328   4.944  19.275  0.00  0.00    +0.000 NA
ATOM     17  C   UNL     1      52.494   4.837  18.596  0.00  0.00    +0.000 A 
ATOM     18  C   UNL     1      52.774   5.426  17.370  0.00  0.00    +0.000 A 
ATOM     19  C   UNL     1      51.779   6.167  16.732  0.00  0.00    +0.000 A 
ATOM     20  C   UNL     1      50.532   6.278  17.371  0.00  0.00    +0.000 A 
ATOM     21  H   UNL     1      48.819   5.608  19.985  0.00  0.00    +0.000 HD
ENDBRANCH   9  12
ENDBRANCH   7  10
ENDBRANCH   1   7
BRANCH   4  22
ATOM     22  C   UNL     1      44.064   3.568  11.095  0.00  0.00    +0.000 C 
BRANCH  22  23
ATOM     23  N   UNL     1      44.687   2.340  10.605  0.00  0.00    +0.000 NA
ATOM     24  H   UNL     1      44.343   1.555  11.160  0.00  0.00    +0.000 HD
BRANCH  23  25
ATOM     25  C   UNL     1      44.347   2.087   9.199  0.00  0.00    +0.000 C 
BRANCH  25  26
ATOM     26  C   UNL     1      45.568   2.161   8.299  0.00  0.00    +0.000 A 
ATOM     27  C   UNL     1      45.918   3.366   7.692  0.00  0.00    +0.000 A 
ATOM     28  C   UNL     1      47.051   3.413   6.883  0.00  0.00    +0.000 A 
ATOM     29  C   UNL     1      47.800   2.257   6.698  0.00  0.00    +0.000 A 
ATOM     30  C   UNL     1      47.383   1.100   7.334  0.00  0.00    +0.000 A 
ATOM     31  N   UNL     1      46.291   1.025   8.127  0.00  0.00    +0.000 NA
ENDBRANCH  25  26
ENDBRANCH  23  25
ENDBRANCH  22  23
ENDBRANCH   4  22
TORSDOF 7
ENDMDL
MODEL 5
REMARK VINA RESULT:    -7.320      1.369      1.718
REMARK INTER + INTRA:         -11.137
REMARK INTER:                 -10.624
REMARK INTRA:                  -0.513
REMARK UNBOUND:                -0.822
REMARK  Name = 
REMARK  7 active torsions:
REMARK  status: ('A' for Active; 'I' for Inactive)
REMARK    1  A    between atoms: C_2  and  C_20
REMARK    2  A    between atoms: N_3  and  C_4
REMARK    3  A    between atoms: C_4  and  C_5
REMARK    4  A    between atoms: C_8  and  C_9
REMARK    5  A    between atoms: C_9  and  N_10
REMARK    6  A    between atoms: N_10  and  C_11
REMARK    7  A    between atoms: C_11  and  C_12
REMARK                            x       y       z     vdW  Elec       q    Type
REMARK                         _______ _______ _______ _____ _____    ______ ____
ROOT
ATOM      1  C   UNL     1      47.420   7.284  13.824  0.00  0.00    +0.000 A 
ATOM      2  C   UNL     1      47.278   5.911  13.591  0.00  0.00    +0.000 A 
ATOM      3  C   UNL     1      46.347   5.438  12.666  0.00  0.00    +0.000 A 
ATOM      4  C   UNL     1      45.535   6.327  11.946  0.00  0.00    +0.000 A 
ATOM      5  C   UNL     1      45.698   7.704  12.155  0.00  0.00    +0.000 A 
ATOM      6  C   UNL     1      46.631   8.177  13.080  0.00  0.00    +0.000 A 
ENDROOT
BRANCH   1   7
ATOM      7  C   UNL     1      48.420   7.788  14.826  0.00  0.00    +0.000 C 
BRANCH   7  10
ATOM      8  O   UNL     1      50.741   6.572  15.754  0.00  0.00    +0.000 OA
ATOM      9  C   UNL     1      49.686   6.350  16.345  0.00  0.00    +0.000 C 
ATOM     10  N   UNL     1      48.494   6.918  15.969  0.00  0.00    +0.000 N 
ATOM     11  H   UNL     1      47.693   6.841  16.580  0.00  0.00    +0.000 HD
BRANCH   9  12
ATOM     12  C   UNL     1      49.611   5.469  17.508  0.00  0.00    +0.000 A 
ATOM     13  C   UNL     1      50.293   4.271  17.683  0.00  0.00    +0.000 A 
ATOM     14  N   UNL     1      50.039   3.814  18.952  0.00  0.00    +0.000 N 
ATOM     15  C   UNL     1      49.207   4.682  19.599  0.00  0.00    +0.000 A 
ATOM     16  N   UNL     1      48.805   4.537  20.875  0.00  0.00    +0.000 NA
ATOM     17  C   UNL     1      47.975   5.527  21.278  0.00  0.00    +0.000 A 
ATOM     18  C   UNL     1      47.526   6.579  20.491  0.00  0.00    +0.000 A 
ATOM     19  C   UNL     1      47.980   6.681  19.176  0.00  0.00    +0.000 A 
ATOM     20  C   UNL     1      48.880   5.704  18.714  0.00  0.00    +0.000 A 
ATOM     21  H   UNL     1      50.418   2.984  19.383  0.00  0.00    +0.000 HD
ENDBRANCH   9  12
ENDBRANCH   7  10
ENDBRANCH   1   7
BRANCH   4  22
ATOM     22  C   UNL     1      44.509   5.803  10.966  0.00  0.00    +0.000 C 
BRANCH  22  23
ATOM     23  N   UNL     1      45.149   5.384   9.721  0.00  0.00    +0.000 NA
ATOM     24  H   UNL     1      46.125   5.153   9.916  0.00  0.00    +0.000 HD
BRANCH  23  25
ATOM     25  C   UNL     1      44.503   4.191   9.159  0.00  0.00    +0.000 C 
BRANCH  25  26
ATOM     26  C   UNL     1      45.474   3.347   8.353  0.00  0.00    +0.000 A 
ATOM     27  C   UNL     1      45.645   1.996   8.653  0.00  0.00    +0.000 A 
ATOM     28  C   UNL     1      46.530   1.239   7.889  0.00  0.00    +0.000 A 
ATOM     29  C   UNL     1      47.223   1.849   6.851  0.00  0.00    +0.000 A 
ATOM     30  C   UNL     1      46.998   3.196   6.619  0.00  0.00    +0.000 A 
ATOM     31  N   UNL     1      46.145   3.955   7.341  0.00  0.00    +0.000 NA
ENDBRANCH  25  26
ENDBRANCH  23  25
ENDBRANCH  22  23
ENDBRANCH   4  22
TORSDOF 7
ENDMDL
MODEL 6
REMARK VINA RESULT:    -7.094      1.393      2.104
REMARK INTER + INTRA:         -10.819
REMARK INTER:                 -10.397
REMARK INTRA:                  -0.422
REMARK UNBOUND:                -0.822
REMARK  Name = 
REMARK  7 active torsions:
REMARK  status: ('A' for Active; 'I' for Inactive)
REMARK    1  A    between atoms: C_2  and  C_20
REMARK    2  A    between atoms: N_3  and  C_4
REMARK    3  A    between atoms: C_4  and  C_5
REMARK    4  A    between atoms: C_8  and  C_9
REMARK    5  A    between atoms: C_9  and  N_10
REMARK    6  A    between atoms: N_10  and  C_11
REMARK    7  A    between atoms: C_11  and  C_12
REMARK                            x       y       z     vdW  Elec       q    Type
REMARK                         _______ _______ _______ _____ _____    ______ ____
ROOT
ATOM      1  C   UNL     1      46.470   4.734  13.527  0.00  0.00    +0.000 A 
ATOM      2  C   UNL     1      46.563   5.760  12.579  0.00  0.00    +0.000 A 
ATOM      3  C   UNL     1      45.546   5.961  11.645  0.00  0.00    +0.000 A 
ATOM      4  C   UNL     1      44.407   5.142  11.636  0.00  0.00    +0.000 A 
ATOM      5  C   UNL     1      44.298   4.134  12.604  0.00  0.00    +0.000 A 
ATOM      6  C   UNL     1      45.315   3.934  13.541  0.00  0.00    +0.000 A 
ENDROOT
BRANCH   1   7
ATOM      7  C   UNL     1      47.571   4.518  14.527  0.00  0.00    +0.000 C 
BRANCH   7  10
ATOM      8  O   UNL     1      49.217   4.586  16.765  0.00  0.00    +0.000 OA
ATOM      9  C   UNL     1      48.484   5.549  16.546  0.00  0.00    +0.000 C 
ATOM     10  N   UNL     1      47.650   5.611  15.458  0.00  0.00    +0.000 N 
ATOM     11  H   UNL     1      47.196   6.484  15.230  0.00  0.00    +0.000 HD
BRANCH   9  12
ATOM     12  C   UNL     1      48.446   6.718  17.422  0.00  0.00    +0.000 A 
ATOM     13  C   UNL     1      48.681   8.036  17.053  0.00  0.00    +0.000 A 
ATOM     14  N   UNL     1      48.434   8.836  18.140  0.00  0.00    +0.000 N 
ATOM     15  C   UNL     1      48.052   8.070  19.203  0.00  0.00    +0.000 A 
ATOM     16  N   UNL     1      47.699   8.562  20.405  0.00  0.00    +0.000 NA
ATOM     17  C   UNL     1      47.372   7.594  21.292  0.00  0.00    +0.000 A 
ATOM     18  C   UNL     1      47.414   6.227  21.052  0.00  0.00    +0.000 A 
ATOM     19  C   UNL     1      47.783   5.774  19.785  0.00  0.00    +0.000 A 
ATOM     20  C   UNL     1      48.093   6.737  18.808  0.00  0.00    +0.000 A 
ATOM     21  H   UNL     1      48.487   9.844  18.174  0.00  0.00    +0.000 HD
ENDBRANCH   9  12
ENDBRANCH   7  10
ENDBRANCH   1   7
BRANCH   4  22
ATOM     22  C   UNL     1      43.324   5.350  10.601  0.00  0.00    +0.000 C 
BRANCH  22  23
ATOM     23  N   UNL     1      43.697   4.732   9.331  0.00  0.00    +0.000 NA
ATOM     24  H   UNL     1      44.444   5.283   8.905  0.00  0.00    +0.000 HD
BRANCH  23  25
ATOM     25  C   UNL     1      44.194   3.363   9.523  0.00  0.00    +0.000 C 
BRANCH  25  26
ATOM     26  C   UNL     1      45.315   3.026   8.556  0.00  0.00    +0.000 A 
ATOM     27  C   UNL     1      45.822   1.728   8.497  0.00  0.00    +0.000 A 
ATOM     28  C   UNL     1      46.840   1.440   7.590  0.00  0.00    +0.000 A 
ATOM     29  C   UNL     1      47.326   2.452   6.772  0.00  0.00    +0.000 A 
ATOM     30  C   UNL     1      46.770   3.714   6.894  0.00  0.00    +0.000 A 
ATOM     31  N   UNL     1      45.781   4.024   7.762  0.00  0.00    +0.000 NA
ENDBRANCH  25  26
ENDBRANCH  23  25
ENDBRANCH  22  23
ENDBRANCH   4  22
TORSDOF 7
ENDMDL
MODEL 7
REMARK VINA RESULT:    -6.954      2.427      3.239
REMARK INTER + INTRA:         -10.621
REMARK INTER:                  -9.775
REMARK INTRA:                  -0.846
REMARK UNBOUND:                -0.822
REMARK  Name = 
REMARK  7 active torsions:
REMARK  status: ('A' for Active; 'I' for Inactive)
REMARK    1  A    between atoms: C_2  and  C_20
REMARK    2  A    between atoms: N_3  and  C_4
REMARK    3  A    between atoms: C_4  and  C_5
REMARK    4  A    between atoms: C_8  and  C_9
REMARK    5  A    between atoms: C_9  and  N_10
REMARK    6  A    between atoms: N_10  and  C_11
REMARK    7  A    between atoms: C_11  and  C_12
REMARK                            x       y       z     vdW  Elec       q    Type
REMARK                         _______ _______ _______ _____ _____    ______ ____
ROOT
ATOM      1  C   UNL     1      45.592   6.554  12.502  0.00  0.00    +0.000 A 
ATOM      2  C   UNL     1      44.819   6.621  11.337  0.00  0.00    +0.000 A 
ATOM      3  C   UNL     1      44.104   5.510  10.890  0.00  0.00    +0.000 A 
ATOM      4  C   UNL     1      44.141   4.300  11.600  0.00  0.00    +0.000 A 
ATOM      5  C   UNL     1      44.889   4.240  12.784  0.00  0.00    +0.000 A 
ATOM      6  C   UNL     1      45.604   5.353  13.232  0.00  0.00    +0.000 A 
ENDROOT
BRANCH   1   7
ATOM      7  C   UNL     1      46.366   7.752  12.974  0.00  0.00    +0.000 C 
BRANCH   7  10
ATOM      8  O   UNL     1      47.701   9.041  15.043  0.00  0.00    +0.000 OA
ATOM      9  C   UNL     1      48.244   8.079  14.504  0.00  0.00    +0.000 C 
ATOM     10  N   UNL     1      47.654   7.371  13.486  0.00  0.00    +0.000 N 
ATOM     11  H   UNL     1      48.059   6.494  13.192  0.00  0.00    +0.000 HD
BRANCH   9  12
ATOM     12  C   UNL     1      49.562   7.597  14.909  0.00  0.00    +0.000 A 
ATOM     13  C   UNL     1      50.787   8.015  14.405  0.00  0.00    +0.000 A 
ATOM     14  N   UNL     1      51.780   7.406  15.129  0.00  0.00    +0.000 N 
ATOM     15  C   UNL     1      51.230   6.601  16.085  0.00  0.00    +0.000 A 
ATOM     16  N   UNL     1      51.942   5.898  16.985  0.00  0.00    +0.000 NA
ATOM     17  C   UNL     1      51.161   5.171  17.817  0.00  0.00    +0.000 A 
ATOM     18  C   UNL     1      49.776   5.092  17.766  0.00  0.00    +0.000 A 
ATOM     19  C   UNL     1      49.090   5.847  16.813  0.00  0.00    +0.000 A 
ATOM     20  C   UNL     1      49.847   6.657  15.949  0.00  0.00    +0.000 A 
ATOM     21  H   UNL     1      52.776   7.535  15.019  0.00  0.00    +0.000 HD
ENDBRANCH   9  12
ENDBRANCH   7  10
ENDBRANCH   1   7
BRANCH   4  22
ATOM     22  C   UNL     1      43.386   3.093  11.093  0.00  0.00    +0.000 C 
BRANCH  22  23
ATOM     23  N   UNL     1      43.871   2.695   9.773  0.00  0.00    +0.000 NA
ATOM     24  H   UNL     1      43.843   3.508   9.155  0.00  0.00    +0.000 HD
BRANCH  23  25
ATOM     25  C   UNL     1      45.258   2.216   9.831  0.00  0.00    +0.000 C 
BRANCH  25  26
ATOM     26  C   UNL     1      45.928   2.250   8.469  0.00  0.00    +0.000 A 
ATOM     27  C   UNL     1      45.914   3.421   7.711  0.00  0.00    +0.000 A 
ATOM     28  C   UNL     1      46.548   3.433   6.471  0.00  0.00    +0.000 A 
ATOM     29  C   UNL     1      47.175   2.278   6.019  0.00  0.00    +0.000 A 
ATOM     30  C   UNL     1      47.141   1.157   6.831  0.00  0.00    +0.000 A 
ATOM     31  N   UNL     1      46.537   1.116   8.039  0.00  0.00    +0.000 NA
ENDBRANCH  25  26
ENDBRANCH  23  25
ENDBRANCH  22  23
ENDBRANCH   4  22
TORSDOF 7
ENDMDL
MODEL 8
REMARK VINA RESULT:    -6.654      4.465      6.593
REMARK INTER + INTRA:         -10.199
REMARK INTER:                  -9.644
REMARK INTRA:                  -0.555
REMARK UNBOUND:                -0.822
REMARK  Name = 
REMARK  7 active torsions:
REMARK  status: ('A' for Active; 'I' for Inactive)
REMARK    1  A    between atoms: C_2  and  C_20
REMARK    2  A    between atoms: N_3  and  C_4
REMARK    3  A    between atoms: C_4  and  C_5
REMARK    4  A    between atoms: C_8  and  C_9
REMARK    5  A    between atoms: C_9  and  N_10
REMARK    6  A    between atoms: N_10  and  C_11
REMARK    7  A    between atoms: C_11  and  C_12
REMARK                            x       y       z     vdW  Elec       q    Type
REMARK                         _______ _______ _______ _____ _____    ______ ____
ROOT
ATOM      1  C   UNL     1      45.932   6.672  12.637  0.00  0.00    +0.000 A 
ATOM      2  C   UNL     1      46.500   7.832  13.175  0.00  0.00    +0.000 A 
ATOM      3  C   UNL     1      46.022   9.092  12.818  0.00  0.00    +0.000 A 
ATOM      4  C   UNL     1      44.957   9.226  11.913  0.00  0.00    +0.000 A 
ATOM      5  C   UNL     1      44.366   8.064  11.397  0.00  0.00    +0.000 A 
ATOM      6  C   UNL     1      44.845   6.802  11.756  0.00  0.00    +0.000 A 
ENDROOT
BRANCH   1   7
ATOM      7  C   UNL     1      46.456   5.317  13.021  0.00  0.00    +0.000 C 
BRANCH   7  10
ATOM      8  O   UNL     1      47.455   3.083  14.338  0.00  0.00    +0.000 OA
ATOM      9  C   UNL     1      47.270   4.111  14.985  0.00  0.00    +0.000 C 
ATOM     10  N   UNL     1      46.795   5.267  14.418  0.00  0.00    +0.000 N 
ATOM     11  H   UNL     1      46.819   6.126  14.948  0.00  0.00    +0.000 HD
BRANCH   9  12
ATOM     12  C   UNL     1      47.551   4.195  16.417  0.00  0.00    +0.000 A 
ATOM     13  C   UNL     1      47.214   3.255  17.383  0.00  0.00    +0.000 A 
ATOM     14  N   UNL     1      47.757   3.655  18.578  0.00  0.00    +0.000 N 
ATOM     15  C   UNL     1      48.430   4.830  18.412  0.00  0.00    +0.000 A 
ATOM     16  N   UNL     1      49.109   5.459  19.388  0.00  0.00    +0.000 NA
ATOM     17  C   UNL     1      49.681   6.612  18.970  0.00  0.00    +0.000 A 
ATOM     18  C   UNL     1      49.578   7.151  17.694  0.00  0.00    +0.000 A 
ATOM     19  C   UNL     1      48.865   6.452  16.720  0.00  0.00    +0.000 A 
ATOM     20  C   UNL     1      48.285   5.224  17.086  0.00  0.00    +0.000 A 
ATOM     21  H   UNL     1      47.710   3.161  19.458  0.00  0.00    +0.000 HD
ENDBRANCH   9  12
ENDBRANCH   7  10
ENDBRANCH   1   7
BRANCH   4  22
ATOM     22  C   UNL     1      44.464  10.597  11.509  0.00  0.00    +0.000 C 
BRANCH  22  23
ATOM     23  N   UNL     1      43.158  10.873  12.103  0.00  0.00    +0.000 NA
ATOM     24  H   UNL     1      43.276  11.561  12.848  0.00  0.00    +0.000 HD
BRANCH  23  25
ATOM     25  C   UNL     1      42.224  11.427  11.116  0.00  0.00    +0.000 C 
BRANCH  25  26
ATOM     26  C   UNL     1      40.776  11.202  11.516  0.00  0.00    +0.000 A 
ATOM     27  C   UNL     1      40.236  11.888  12.603  0.00  0.00    +0.000 A 
ATOM     28  C   UNL     1      38.901  11.677  12.942  0.00  0.00    +0.000 A 
ATOM     29  C   UNL     1      38.145  10.786  12.192  0.00  0.00    +0.000 A 
ATOM     30  C   UNL     1      38.757  10.143  11.129  0.00  0.00    +0.000 A 
ATOM     31  N   UNL     1      40.048  10.329  10.775  0.00  0.00    +0.000 NA
ENDBRANCH  25  26
ENDBRANCH  23  25
ENDBRANCH  22  23
ENDBRANCH   4  22
TORSDOF 7
ENDMDL
MODEL 9
REMARK VINA RESULT:    -6.562      4.118      4.773
REMARK INTER + INTRA:         -10.069
REMARK INTER:                  -9.255
REMARK INTRA:                  -0.814
REMARK UNBOUND:                -0.822
REMARK  Name = 
REMARK  7 active torsions:
REMARK  status: ('A' for Active; 'I' for Inactive)
REMARK    1  A    between atoms: C_2  and  C_20
REMARK    2  A    between atoms: N_3  and  C_4
REMARK    3  A    between atoms: C_4  and  C_5
REMARK    4  A    between atoms: C_8  and  C_9
REMARK    5  A    between atoms: C_9  and  N_10
REMARK    6  A    between atoms: N_10  and  C_11
REMARK    7  A    between atoms: C_11  and  C_12
REMARK                            x       y       z     vdW  Elec       q    Type
REMARK                         _______ _______ _______ _____ _____    ______ ____
ROOT
ATOM      1  C   UNL     1      45.519   7.195  12.493  0.00  0.00    +0.000 A 
ATOM      2  C   UNL     1      45.928   5.927  12.923  0.00  0.00    +0.000 A 
ATOM      3  C   UNL     1      45.278   4.778  12.474  0.00  0.00    +0.000 A 
ATOM      4  C   UNL     1      44.201   4.866  11.578  0.00  0.00    +0.000 A 
ATOM      5  C   UNL     1      43.810   6.132  11.122  0.00  0.00    +0.000 A 
ATOM      6  C   UNL     1      44.462   7.283  11.572  0.00  0.00    +0.000 A 
ENDROOT
BRANCH   1   7
ATOM      7  C   UNL     1      46.219   8.430  12.986  0.00  0.00    +0.000 C 
BRANCH   7  10
ATOM      8  O   UNL     1      48.125   9.840  11.536  0.00  0.00    +0.000 OA
ATOM      9  C   UNL     1      48.506   8.960  12.305  0.00  0.00    +0.000 C 
ATOM     10  N   UNL     1      47.639   8.223  13.073  0.00  0.00    +0.000 N 
ATOM     11  H   UNL     1      48.005   7.633  13.807  0.00  0.00    +0.000 HD
BRANCH   9  12
ATOM     12  C   UNL     1      49.919   8.629  12.476  0.00  0.00    +0.000 A 
ATOM     13  C   UNL     1      50.732   7.976  11.559  0.00  0.00    +0.000 A 
ATOM     14  N   UNL     1      52.013   7.964  12.053  0.00  0.00    +0.000 N 
ATOM     15  C   UNL     1      52.046   8.586  13.268  0.00  0.00    +0.000 A 
ATOM     16  N   UNL     1      53.165   8.775  13.992  0.00  0.00    +0.000 NA
ATOM     17  C   UNL     1      52.929   9.408  15.164  0.00  0.00    +0.000 A 
ATOM     18  C   UNL     1      51.685   9.807  15.634  0.00  0.00    +0.000 A 
ATOM     19  C   UNL     1      50.560   9.589  14.838  0.00  0.00    +0.000 A 
ATOM     20  C   UNL     1      50.749   8.973  13.588  0.00  0.00    +0.000 A 
ATOM     21  H   UNL     1      52.832   7.589  11.599  0.00  0.00    +0.000 HD
ENDBRANCH   9  12
ENDBRANCH   7  10
ENDBRANCH   1   7
BRANCH   4  22
ATOM     22  C   UNL     1      43.485   3.616  11.119  0.00  0.00    +0.000 C 
BRANCH  22  23
ATOM     23  N   UNL     1      43.846   3.289   9.742  0.00  0.00    +0.000 NA
ATOM     24  H   UNL     1      44.234   4.122   9.298  0.00  0.00    +0.000 HD
BRANCH  23  25
ATOM     25  C   UNL     1      44.862   2.230   9.689  0.00  0.00    +0.000 C 
BRANCH  25  26
ATOM     26  C   UNL     1      45.740   2.349   8.456  0.00  0.00    +0.000 A 
ATOM     27  C   UNL     1      46.421   1.232   7.971  0.00  0.00    +0.000 A 
ATOM     28  C   UNL     1      47.209   1.362   6.830  0.00  0.00    +0.000 A 
ATOM     29  C   UNL     1      47.300   2.600   6.206  0.00  0.00    +0.000 A 
ATOM     30  C   UNL     1      46.595   3.660   6.752  0.00  0.00    +0.000 A 
ATOM     31  N   UNL     1      45.821   3.564   7.856  0.00  0.00    +0.000 NA
ENDBRANCH  25  26
ENDBRANCH  23  25
ENDBRANCH  22  23
ENDBRANCH   4  22
TORSDOF 7
ENDMDL
