MODEL 1
REMARK VINA RESULT:    -7.799      0.000      0.000
REMARK INTER + INTRA:         -10.338
REMARK INTER:                  -9.623
REMARK INTRA:                  -0.715
REMARK UNBOUND:                -0.715
REMARK  Name = 
REMARK  6 active torsions:
REMARK  status: ('A' for Active; 'I' for Inactive)
REMARK    1  A    between atoms: C_1  and  C_2
REMARK    2  A    between atoms: C_2  and  C_3
REMARK    3  A    between atoms: C_2  and  C_4
REMARK    4  A    between atoms: C_2  and  C_15
REMARK    5  A    between atoms: C_4  and  N_5
REMARK    6  A    between atoms: C_9  and  C_10
REMARK                            x       y       z     vdW  Elec       q    Type
REMARK                         _______ _______ _______ _____ _____    ______ ____
ROOT
ATOM      1  N   UNL     1      43.981   3.062  10.244  0.00  0.00    +0.000 N 
ATOM      2  C   UNL     1      44.915   2.915   9.207  0.00  0.00    +0.000 A 
ATOM      3  C   UNL     1      45.344   1.630   8.883  0.00  0.00    +0.000 A 
ATOM      4  C   UNL     1      46.260   1.449   7.846  0.00  0.00    +0.000 A 
ATOM      5  C   UNL     1      46.740   2.557   7.148  0.00  0.00    +0.000 A 
ATOM      6  C   UNL     1      46.285   3.799   7.556  0.00  0.00    +0.000 A 
ATOM      7  N   UNL     1      45.398   3.997   8.563  0.00  0.00    +0.000 NA
ATOM      8  H   UNL     1      43.174   2.473  10.044  0.00  0.00    +0.000 HD
ENDROOT
BRANCH   5   9
ATOM      9  C   UNL     1      47.684   2.355   6.021  0.00  0.00    +0.000 C 
ATOM     10  N   UNL     1      47.646   3.217   4.960  0.00  0.00    +0.000 N 
ATOM     11  O   UNL     1      48.482   1.426   6.024  0.00  0.00    +0.000 OA
ATOM     12  H   UNL     1      47.024   4.000   4.847  0.00  0.00    +0.000 HD
ATOM     13  H   UNL     1      48.293   3.025   4.205  0.00  0.00    +0.000 HD
ENDBRANCH   5   9
BRANCH   1  14
ATOM     14  C   UNL     1      43.581   4.448  10.511  0.00  0.00    +0.000 C 
BRANCH  14  16
ATOM     15  C   UNL     1      42.633   5.787  12.429  0.00  0.00    +0.000 C 
ATOM     16  C   UNL     1      43.770   4.820  12.016  0.00  0.00    +0.000 C 
ATOM     17  C   UNL     1      43.583   3.538  12.864  0.00  0.00    +0.000 C 
BRANCH  16  18
ATOM     18  C   UNL     1      45.185   5.381  12.275  0.00  0.00    +0.000 A 
ATOM     19  C   UNL     1      45.806   6.286  11.397  0.00  0.00    +0.000 A 
ATOM     20  C   UNL     1      47.080   6.796  11.662  0.00  0.00    +0.000 A 
ATOM     21  C   UNL     1      47.765   6.412  12.809  0.00  0.00    +0.000 A 
ATOM     22  C   UNL     1      47.179   5.510  13.689  0.00  0.00    +0.000 A 
ATOM     23  C   UNL     1      45.906   4.998  13.424  0.00  0.00    +0.000 A 
ENDBRANCH  16  18
ENDBRANCH  14  16
ENDBRANCH   1  14
TORSDOF 4
ENDMDL
MODEL 2
REMARK VINA RESULT:    -7.542      1.308      1.852
REMARK INTER + INTRA:         -10.021
REMARK INTER:                  -9.584
REMARK INTRA:                  -0.437
REMARK UNBOUND:                -0.715
REMARK  Name = 
REMARK  6 active torsions:
REMARK  status: ('A' for Active; 'I' for Inactive)
REMARK    1  A    between atoms: C_1  and  C_2
REMARK    2  A    between atoms: C_2  and  C_3
REMARK    3  A    between atoms: C_2  and  C_4
REMARK    4  A    between atoms: C_2  and  C_15
REMARK    5  A    between atoms: C_4  and  N_5
REMARK    6  A    between atoms: C_9  and  C_10
REMARK                            x       y       z     vdW  Elec       q    Type
REMARK                         _______ _______ _______ _____ _____    ______ ____
ROOT
ATOM      1  N   UNL     1      44.297   5.137   9.793  0.00  0.00    +0.000 N 
ATOM      2  C   UNL     1      45.039   4.198   9.061  0.00  0.00    +0.000 A 
ATOM      3  C   UNL     1      45.869   4.662   8.044  0.00  0.00    +0.000 A 
ATOM      4  C   UNL     1      46.632   3.754   7.308  0.00  0.00    +0.000 A 
ATOM      5  C   UNL     1      46.553   2.392   7.595  0.00  0.00    +0.000 A 
ATOM      6  C   UNL     1      45.680   2.016   8.603  0.00  0.00    +0.000 A 
ATOM      7  N   UNL     1      44.927   2.881   9.327  0.00  0.00    +0.000 NA
ATOM      8  H   UNL     1      44.934   5.840  10.166  0.00  0.00    +0.000 HD
ENDROOT
BRANCH   5   9
ATOM      9  C   UNL     1      47.396   1.436   6.836  0.00  0.00    +0.000 C 
ATOM     10  N   UNL     1      48.528   1.892   6.220  0.00  0.00    +0.000 N 
ATOM     11  O   UNL     1      47.086   0.255   6.744  0.00  0.00    +0.000 OA
ATOM     12  H   UNL     1      48.867   2.841   6.217  0.00  0.00    +0.000 HD
ATOM     13  H   UNL     1      49.058   1.209   5.694  0.00  0.00    +0.000 HD
ENDBRANCH   5   9
BRANCH   1  14
ATOM     14  C   UNL     1      43.457   4.560  10.849  0.00  0.00    +0.000 C 
BRANCH  14  16
ATOM     15  C   UNL     1      42.936   4.981  13.282  0.00  0.00    +0.000 C 
ATOM     16  C   UNL     1      44.084   4.775  12.263  0.00  0.00    +0.000 C 
ATOM     17  C   UNL     1      44.809   3.472  12.680  0.00  0.00    +0.000 C 
BRANCH  16  18
ATOM     18  C   UNL     1      45.111   5.928  12.245  0.00  0.00    +0.000 A 
ATOM     19  C   UNL     1      46.496   5.699  12.201  0.00  0.00    +0.000 A 
ATOM     20  C   UNL     1      47.407   6.760  12.165  0.00  0.00    +0.000 A 
ATOM     21  C   UNL     1      46.954   8.074  12.175  0.00  0.00    +0.000 A 
ATOM     22  C   UNL     1      45.588   8.329  12.230  0.00  0.00    +0.000 A 
ATOM     23  C   UNL     1      44.678   7.269  12.267  0.00  0.00    +0.000 A 
ENDBRANCH  16  18
ENDBRANCH  14  16
ENDBRANCH   1  14
TORSDOF 4
ENDMDL
MODEL 3
REMARK VINA RESULT:    -6.732      4.152      6.264
REMARK INTER + INTRA:          -9.021
REMARK INTER:                  -8.541
REMARK INTRA:                  -0.480
REMARK UNBOUND:                -0.715
REMARK  Name = 
REMARK  6 active torsions:
REMARK  status: ('A' for Active; 'I' for Inactive)
REMARK    1  A    between atoms: C_1  and  C_2
REMARK    2  A    between atoms: C_2  and  C_3
REMARK    3  A    between atoms: C_2  and  C_4
REMARK    4  A    between atoms: C_2  and  C_15
REMARK    5  A    between atoms: C_4  and  N_5
REMARK    6  A    between atoms: C_9  and  C_10
REMARK                            x       y       z     vdW  Elec       q    Type
REMARK                         _______ _______ _______ _____ _____    ______ ____
ROOT
ATOM      1  N   UNL     1      47.153   5.387  14.678  0.00  0.00    +0.000 N 
ATOM      2  C   UNL     1      46.419   4.933  13.572  0.00  0.00    +0.000 A 
ATOM      3  C   UNL     1      46.192   5.820  12.523  0.00  0.00    +0.000 A 
ATOM      4  C   UNL     1      45.478   5.394  11.402  0.00  0.00    +0.000 A 
ATOM      5  C   UNL     1      44.997   4.087  11.345  0.00  0.00    +0.000 A 
ATOM      6  C   UNL     1      45.243   3.282  12.445  0.00  0.00    +0.000 A 
ATOM      7  N   UNL     1      45.930   3.677  13.545  0.00  0.00    +0.000 NA
ATOM      8  H   UNL     1      48.042   5.764  14.350  0.00  0.00    +0.000 HD
ENDROOT
BRANCH   5   9
ATOM      9  C   UNL     1      44.274   3.627  10.134  0.00  0.00    +0.000 C 
ATOM     10  N   UNL     1      43.955   4.538   9.165  0.00  0.00    +0.000 N 
ATOM     11  O   UNL     1      43.950   2.454   9.998  0.00  0.00    +0.000 OA
ATOM     12  H   UNL     1      44.157   5.525   9.181  0.00  0.00    +0.000 HD
ATOM     13  H   UNL     1      43.441   4.183   8.369  0.00  0.00    +0.000 HD
ENDBRANCH   5   9
BRANCH   1  14
ATOM     14  C   UNL     1      47.352   4.385  15.732  0.00  0.00    +0.000 C 
BRANCH  14  16
ATOM     15  C   UNL     1      48.659   6.387  16.538  0.00  0.00    +0.000 C 
ATOM     16  C   UNL     1      48.243   4.937  16.889  0.00  0.00    +0.000 C 
ATOM     17  C   UNL     1      47.380   5.028  18.171  0.00  0.00    +0.000 C 
BRANCH  16  18
ATOM     18  C   UNL     1      49.439   3.999  17.163  0.00  0.00    +0.000 A 
ATOM     19  C   UNL     1      49.356   2.606  16.991  0.00  0.00    +0.000 A 
ATOM     20  C   UNL     1      50.457   1.779  17.227  0.00  0.00    +0.000 A 
ATOM     21  C   UNL     1      51.667   2.322  17.644  0.00  0.00    +0.000 A 
ATOM     22  C   UNL     1      51.773   3.695  17.833  0.00  0.00    +0.000 A 
ATOM     23  C   UNL     1      50.673   4.524  17.598  0.00  0.00    +0.000 A 
ENDBRANCH  16  18
ENDBRANCH  14  16
ENDBRANCH   1  14
TORSDOF 4
ENDMDL
MODEL 4
REMARK VINA RESULT:    -6.693      4.650      7.649
REMARK INTER + INTRA:          -8.973
REMARK INTER:                  -8.493
REMARK INTRA:                  -0.480
REMARK UNBOUND:                -0.715
REMARK  Name = 
REMARK  6 active torsions:
REMARK  status: ('A' for Active; 'I' for Inactive)
REMARK    1  A    between atoms: C_1  and  C_2
REMARK    2  A    between atoms: C_2  and  C_3
REMARK    3  A    between atoms: C_2  and  C_4
REMARK    4  A    between atoms: C_2  and  C_15
REMARK    5  A    between atoms: C_4  and  N_5
REMARK    6  A    between atoms: C_9  and  C_10
REMARK                            x       y       z     vdW  Elec       q    Type
REMARK                         _______ _______ _______ _____ _____    ______ ____
ROOT
ATOM      1  N   UNL     1      46.609   5.409  13.733  0.00  0.00    +0.000 N 
ATOM      2  C   UNL     1      47.238   5.003  14.920  0.00  0.00    +0.000 A 
ATOM      3  C   UNL     1      48.121   5.887  15.534  0.00  0.00    +0.000 A 
ATOM      4  C   UNL     1      48.751   5.519  16.724  0.00  0.00    +0.000 A 
ATOM      5  C   UNL     1      48.492   4.268  17.283  0.00  0.00    +0.000 A 
ATOM      6  C   UNL     1      47.624   3.441  16.591  0.00  0.00    +0.000 A 
ATOM      7  N   UNL     1      47.006   3.778  15.432  0.00  0.00    +0.000 NA
ATOM      8  H   UNL     1      46.142   6.300  13.898  0.00  0.00    +0.000 HD
ENDROOT
BRANCH   5   9
ATOM      9  C   UNL     1      49.133   3.898  18.569  0.00  0.00    +0.000 C 
ATOM     10  N   UNL     1      48.430   3.150  19.472  0.00  0.00    +0.000 N 
ATOM     11  O   UNL     1      50.272   4.262  18.835  0.00  0.00    +0.000 OA
ATOM     12  H   UNL     1      47.487   2.812  19.364  0.00  0.00    +0.000 HD
ATOM     13  H   UNL     1      48.900   2.942  20.344  0.00  0.00    +0.000 HD
ENDBRANCH   5   9
BRANCH   1  14
ATOM     14  C   UNL     1      45.690   4.419  13.160  0.00  0.00    +0.000 C 
BRANCH  14  16
ATOM     15  C   UNL     1      43.286   5.010  12.671  0.00  0.00    +0.000 C 
ATOM     16  C   UNL     1      44.730   5.065  12.112  0.00  0.00    +0.000 C 
ATOM     17  C   UNL     1      45.090   6.565  11.978  0.00  0.00    +0.000 C 
BRANCH  16  18
ATOM     18  C   UNL     1      44.885   4.394  10.730  0.00  0.00    +0.000 A 
ATOM     19  C   UNL     1      45.494   5.044   9.643  0.00  0.00    +0.000 A 
ATOM     20  C   UNL     1      45.641   4.410   8.407  0.00  0.00    +0.000 A 
ATOM     21  C   UNL     1      45.180   3.111   8.225  0.00  0.00    +0.000 A 
ATOM     22  C   UNL     1      44.564   2.448   9.280  0.00  0.00    +0.000 A 
ATOM     23  C   UNL     1      44.415   3.082  10.517  0.00  0.00    +0.000 A 
ENDBRANCH  16  18
ENDBRANCH  14  16
ENDBRANCH   1  14
TORSDOF 4
ENDMDL
MODEL 5
REMARK VINA RESULT:    -6.358      4.272      7.109
REMARK INTER + INTRA:          -8.559
REMARK INTER:                  -8.083
REMARK INTRA:                  -0.477
REMARK UNBOUND:                -0.715
REMARK  Name = 
REMARK  6 active torsions:
REMARK  status: ('A' for Active; 'I' for Inactive)
REMARK    1  A    between atoms: C_1  and  C_2
REMARK    2  A    between atoms: C_2  and  C_3
REMARK    3  A    between atoms: C_2  and  C_4
REMARK    4  A    between atoms: C_2  and  C_15
REMARK    5  A    between atoms: C_4  and  N_5
REMARK    6  A    between atoms: C_9  and  C_10
REMARK                            x       y       z     vdW  Elec       q    Type
REMARK                         _______ _______ _______ _____ _____    ______ ____
ROOT
ATOM      1  N   UNL     1      45.729   4.154  13.415  0.00  0.00    +0.000 N 
ATOM      2  C   UNL     1      46.683   4.744  14.258  0.00  0.00    +0.000 A 
ATOM      3  C   UNL     1      46.992   4.103  15.455  0.00  0.00    +0.000 A 
ATOM      4  C   UNL     1      47.949   4.656  16.307  0.00  0.00    +0.000 A 
ATOM      5  C   UNL     1      48.582   5.847  15.953  0.00  0.00    +0.000 A 
ATOM      6  C   UNL     1      48.193   6.432  14.760  0.00  0.00    +0.000 A 
ATOM      7  N   UNL     1      47.263   5.913  13.920  0.00  0.00    +0.000 NA
ATOM      8  H   UNL     1      46.008   3.193  13.226  0.00  0.00    +0.000 HD
ENDROOT
BRANCH   5   9
ATOM      9  C   UNL     1      49.627   6.409  16.844  0.00  0.00    +0.000 C 
ATOM     10  N   UNL     1      50.813   5.742  16.982  0.00  0.00    +0.000 N 
ATOM     11  O   UNL     1      49.437   7.449  17.463  0.00  0.00    +0.000 OA
ATOM     12  H   UNL     1      51.068   4.877  16.536  0.00  0.00    +0.000 HD
ATOM     13  H   UNL     1      51.485   6.152  17.618  0.00  0.00    +0.000 HD
ENDBRANCH   5   9
BRANCH   1  14
ATOM     14  C   UNL     1      45.471   4.893  12.174  0.00  0.00    +0.000 C 
BRANCH  14  16
ATOM     15  C   UNL     1      43.760   3.040  12.124  0.00  0.00    +0.000 C 
ATOM     16  C   UNL     1      44.400   4.178  11.291  0.00  0.00    +0.000 C 
ATOM     17  C   UNL     1      43.266   5.186  10.984  0.00  0.00    +0.000 C 
BRANCH  16  18
ATOM     18  C   UNL     1      45.012   3.699   9.956  0.00  0.00    +0.000 A 
ATOM     19  C   UNL     1      45.505   4.595   8.992  0.00  0.00    +0.000 A 
ATOM     20  C   UNL     1      46.073   4.138   7.799  0.00  0.00    +0.000 A 
ATOM     21  C   UNL     1      46.157   2.775   7.540  0.00  0.00    +0.000 A 
ATOM     22  C   UNL     1      45.667   1.867   8.471  0.00  0.00    +0.000 A 
ATOM     23  C   UNL     1      45.098   2.323   9.664  0.00  0.00    +0.000 A 
ENDBRANCH  16  18
ENDBRANCH  14  16
ENDBRANCH   1  14
TORSDOF 4
ENDMDL
MODEL 6
REMARK VINA RESULT:    -5.619      4.058      6.538
REMARK INTER + INTRA:          -7.648
REMARK INTER:                  -6.905
REMARK INTRA:                  -0.743
REMARK UNBOUND:                -0.715
REMARK  Name = 
REMARK  6 active torsions:
REMARK  status: ('A' for Active; 'I' for Inactive)
REMARK    1  A    between atoms: C_1  and  C_2
REMARK    2  A    between atoms: C_2  and  C_3
REMARK    3  A    between atoms: C_2  and  C_4
REMARK    4  A    between atoms: C_2  and  C_15
REMARK    5  A    between atoms: C_4  and  N_5
REMARK    6  A    between atoms: C_9  and  C_10
REMARK                            x       y       z     vdW  Elec       q    Type
REMARK                         _______ _______ _______ _____ _____    ______ ____
ROOT
ATOM      1  N   UNL     1      48.390   6.538  12.941  0.00  0.00    +0.000 N 
ATOM      2  C   UNL     1      47.086   6.164  12.583  0.00  0.00    +0.000 A 
ATOM      3  C   UNL     1      46.355   5.383  13.476  0.00  0.00    +0.000 A 
ATOM      4  C   UNL     1      45.050   5.007  13.156  0.00  0.00    +0.000 A 
ATOM      5  C   UNL     1      44.492   5.414  11.945  0.00  0.00    +0.000 A 
ATOM      6  C   UNL     1      45.299   6.162  11.104  0.00  0.00    +0.000 A 
ATOM      7  N   UNL     1      46.570   6.534  11.394  0.00  0.00    +0.000 NA
ATOM      8  H   UNL     1      48.362   6.995  13.851  0.00  0.00    +0.000 HD
ENDROOT
BRANCH   5   9
ATOM      9  C   UNL     1      43.090   5.045  11.628  0.00  0.00    +0.000 C 
ATOM     10  N   UNL     1      42.111   5.993  11.743  0.00  0.00    +0.000 N 
ATOM     11  O   UNL     1      42.799   3.908  11.279  0.00  0.00    +0.000 OA
ATOM     12  H   UNL     1      42.235   6.949  12.035  0.00  0.00    +0.000 HD
ATOM     13  H   UNL     1      41.167   5.688  11.539  0.00  0.00    +0.000 HD
ENDBRANCH   5   9
BRANCH   1  14
ATOM     14  C   UNL     1      49.082   7.365  11.945  0.00  0.00    +0.000 C 
BRANCH  14  16
ATOM     15  C   UNL     1      49.283   8.749  14.045  0.00  0.00    +0.000 C 
ATOM     16  C   UNL     1      49.396   8.790  12.501  0.00  0.00    +0.000 C 
ATOM     17  C   UNL     1      50.873   9.126  12.180  0.00  0.00    +0.000 C 
BRANCH  16  18
ATOM     18  C   UNL     1      48.492   9.854  11.841  0.00  0.00    +0.000 A 
ATOM     19  C   UNL     1      47.121   9.962  12.134  0.00  0.00    +0.000 A 
ATOM     20  C   UNL     1      46.327  10.946  11.540  0.00  0.00    +0.000 A 
ATOM     21  C   UNL     1      46.882  11.843  10.635  0.00  0.00    +0.000 A 
ATOM     22  C   UNL     1      48.232  11.752  10.319  0.00  0.00    +0.000 A 
ATOM     23  C   UNL     1      49.027  10.768  10.912  0.00  0.00    +0.000 A 
ENDBRANCH  16  18
ENDBRANCH  14  16
ENDBRANCH   1  14
TORSDOF 4
ENDMDL
MODEL 7
REMARK VINA RESULT:    -5.514      5.359      8.497
REMARK INTER + INTRA:          -7.518
REMARK INTER:                  -7.032
REMARK INTRA:                  -0.486
REMARK UNBOUND:                -0.715
REMARK  Name = 
REMARK  6 active torsions:
REMARK  status: ('A' for Active; 'I' for Inactive)
REMARK    1  A    between atoms: C_1  and  C_2
REMARK    2  A    between atoms: C_2  and  C_3
REMARK    3  A    between atoms: C_2  and  C_4
REMARK    4  A    between atoms: C_2  and  C_15
REMARK    5  A    between atoms: C_4  and  N_5
REMARK    6  A    between atoms: C_9  and  C_10
REMARK                            x       y       z     vdW  Elec       q    Type
REMARK                         _______ _______ _______ _____ _____    ______ ____
ROOT
ATOM      1  N   UNL     1      48.059   6.872  14.586  0.00  0.00    +0.000 N 
ATOM      2  C   UNL     1      48.382   6.252  15.802  0.00  0.00    +0.000 A 
ATOM      3  C   UNL     1      48.985   7.019  16.795  0.00  0.00    +0.000 A 
ATOM      4  C   UNL     1      49.304   6.435  18.021  0.00  0.00    +0.000 A 
ATOM      5  C   UNL     1      49.019   5.088  18.239  0.00  0.00    +0.000 A 
ATOM      6  C   UNL     1      48.446   4.392  17.187  0.00  0.00    +0.000 A 
ATOM      7  N   UNL     1      48.132   4.940  15.987  0.00  0.00    +0.000 NA
ATOM      8  H   UNL     1      47.487   7.693  14.778  0.00  0.00    +0.000 HD
ENDROOT
BRANCH   5   9
ATOM      9  C   UNL     1      49.324   4.482  19.559  0.00  0.00    +0.000 C 
ATOM     10  N   UNL     1      48.520   3.483  20.033  0.00  0.00    +0.000 N 
ATOM     11  O   UNL     1      50.271   4.872  20.229  0.00  0.00    +0.000 OA
ATOM     12  H   UNL     1      47.710   3.098  19.575  0.00  0.00    +0.000 HD
ATOM     13  H   UNL     1      48.753   3.117  20.947  0.00  0.00    +0.000 HD
ENDBRANCH   5   9
BRANCH   1  14
ATOM     14  C   UNL     1      47.420   5.991  13.602  0.00  0.00    +0.000 C 
BRANCH  14  16
ATOM     15  C   UNL     1      46.236   8.179  13.181  0.00  0.00    +0.000 C 
ATOM     16  C   UNL     1      46.583   6.802  12.563  0.00  0.00    +0.000 C 
ATOM     17  C   UNL     1      47.476   7.087  11.331  0.00  0.00    +0.000 C 
BRANCH  16  18
ATOM     18  C   UNL     1      45.345   6.001  12.102  0.00  0.00    +0.000 A 
ATOM     19  C   UNL     1      45.240   5.460  10.809  0.00  0.00    +0.000 A 
ATOM     20  C   UNL     1      44.119   4.721  10.420  0.00  0.00    +0.000 A 
ATOM     21  C   UNL     1      43.075   4.508  11.313  0.00  0.00    +0.000 A 
ATOM     22  C   UNL     1      43.148   5.041  12.594  0.00  0.00    +0.000 A 
ATOM     23  C   UNL     1      44.268   5.781  12.984  0.00  0.00    +0.000 A 
ENDBRANCH  16  18
ENDBRANCH  14  16
ENDBRANCH   1  14
TORSDOF 4
ENDMDL
MODEL 8
REMARK VINA RESULT:    -5.402      3.991      6.097
REMARK INTER + INTRA:          -7.380
REMARK INTER:                  -7.143
REMARK INTRA:                  -0.237
REMARK UNBOUND:                -0.715
REMARK  Name = 
REMARK  6 active torsions:
REMARK  status: ('A' for Active; 'I' for Inactive)
REMARK    1  A    between atoms: C_1  and  C_2
REMARK    2  A    between atoms: C_2  and  C_3
REMARK    3  A    between atoms: C_2  and  C_4
REMARK    4  A    between atoms: C_2  and  C_15
REMARK    5  A    between atoms: C_4  and  N_5
REMARK    6  A    between atoms: C_9  and  C_10
REMARK                            x       y       z     vdW  Elec       q    Type
REMARK                         _______ _______ _______ _____ _____    ______ ____
ROOT
ATOM      1  N   UNL     1      47.392   5.320  15.063  0.00  0.00    +0.000 N 
ATOM      2  C   UNL     1      46.677   5.033  13.891  0.00  0.00    +0.000 A 
ATOM      3  C   UNL     1      46.596   6.018  12.909  0.00  0.00    +0.000 A 
ATOM      4  C   UNL     1      45.904   5.758  11.726  0.00  0.00    +0.000 A 
ATOM      5  C   UNL     1      45.298   4.517  11.539  0.00  0.00    +0.000 A 
ATOM      6  C   UNL     1      45.402   3.607  12.579  0.00  0.00    +0.000 A 
ATOM      7  N   UNL     1      46.065   3.841  13.738  0.00  0.00    +0.000 NA
ATOM      8  H   UNL     1      48.331   5.626  14.807  0.00  0.00    +0.000 HD
ENDROOT
BRANCH   5   9
ATOM      9  C   UNL     1      44.598   4.232  10.262  0.00  0.00    +0.000 C 
ATOM     10  N   UNL     1      44.993   4.884   9.127  0.00  0.00    +0.000 N 
ATOM     11  O   UNL     1      43.669   3.435  10.215  0.00  0.00    +0.000 OA
ATOM     12  H   UNL     1      45.730   5.567   9.055  0.00  0.00    +0.000 HD
ATOM     13  H   UNL     1      44.471   4.675   8.286  0.00  0.00    +0.000 HD
ENDBRANCH   5   9
BRANCH   1  14
ATOM     14  C   UNL     1      47.432   4.224  16.038  0.00  0.00    +0.000 C 
BRANCH  14  16
ATOM     15  C   UNL     1      46.931   5.266  18.280  0.00  0.00    +0.000 C 
ATOM     16  C   UNL     1      48.058   4.682  17.393  0.00  0.00    +0.000 C 
ATOM     17  C   UNL     1      48.594   3.432  18.132  0.00  0.00    +0.000 C 
BRANCH  16  18
ATOM     18  C   UNL     1      49.231   5.658  17.159  0.00  0.00    +0.000 A 
ATOM     19  C   UNL     1      50.560   5.219  17.030  0.00  0.00    +0.000 A 
ATOM     20  C   UNL     1      51.604   6.119  16.799  0.00  0.00    +0.000 A 
ATOM     21  C   UNL     1      51.345   7.481  16.694  0.00  0.00    +0.000 A 
ATOM     22  C   UNL     1      50.041   7.944  16.828  0.00  0.00    +0.000 A 
ATOM     23  C   UNL     1      48.997   7.045  17.060  0.00  0.00    +0.000 A 
ENDBRANCH  16  18
ENDBRANCH  14  16
ENDBRANCH   1  14
TORSDOF 4
ENDMDL
MODEL 9
REMARK VINA RESULT:    -5.342      3.763      6.082
REMARK INTER + INTRA:          -7.307
REMARK INTER:                  -6.771
REMARK INTRA:                  -0.536
REMARK UNBOUND:                -0.715
REMARK  Name = 
REMARK  6 active torsions:
REMARK  status: ('A' for Active; 'I' for Inactive)
REMARK    1  A    between atoms: C_1  and  C_2
REMARK    2  A    between atoms: C_2  and  C_3
REMARK    3  A    between atoms: C_2  and  C_4
REMARK    4  A    between atoms: C_2  and  C_15
REMARK    5  A    between atoms: C_4  and  N_5
REMARK    6  A    between atoms: C_9  and  C_10
REMARK                            x       y       z     vdW  Elec       q    Type
REMARK                         _______ _______ _______ _____ _____    ______ ____
ROOT
ATOM      1  N   UNL     1      46.241   7.689  13.183  0.00  0.00    +0.000 N 
ATOM      2  C   UNL     1      45.692   6.540  12.594  0.00  0.00    +0.000 A 
ATOM      3  C   UNL     1      45.238   5.523  13.431  0.00  0.00    +0.000 A 
ATOM      4  C   UNL     1      44.674   4.374  12.876  0.00  0.00    +0.000 A 
ATOM      5  C   UNL     1      44.573   4.253  11.491  0.00  0.00    +0.000 A 
ATOM      6  C   UNL     1      45.077   5.298  10.734  0.00  0.00    +0.000 A 
ATOM      7  N   UNL     1      45.633   6.421  11.253  0.00  0.00    +0.000 NA
ATOM      8  H   UNL     1      45.569   8.069  13.849  0.00  0.00    +0.000 HD
ENDROOT
BRANCH   5   9
ATOM      9  C   UNL     1      43.936   3.046  10.909  0.00  0.00    +0.000 C 
ATOM     10  N   UNL     1      43.404   2.105  11.747  0.00  0.00    +0.000 N 
ATOM     11  O   UNL     1      43.892   2.878   9.697  0.00  0.00    +0.000 OA
ATOM     12  H   UNL     1      43.399   2.135  12.753  0.00  0.00    +0.000 HD
ATOM     13  H   UNL     1      43.001   1.289  11.304  0.00  0.00    +0.000 HD
ENDBRANCH   5   9
BRANCH   1  14
ATOM     14  C   UNL     1      46.686   8.711  12.227  0.00  0.00    +0.000 C 
BRANCH  14  16
ATOM     15  C   UNL     1      48.568   9.168  13.844  0.00  0.00    +0.000 C 
ATOM     16  C   UNL     1      48.219   8.979  12.347  0.00  0.00    +0.000 C 
ATOM     17  C   UNL     1      48.976   7.713  11.877  0.00  0.00    +0.000 C 
BRANCH  16  18
ATOM     18  C   UNL     1      48.644  10.168  11.457  0.00  0.00    +0.000 A 
ATOM     19  C   UNL     1      47.717  11.090  10.942  0.00  0.00    +0.000 A 
ATOM     20  C   UNL     1      48.128  12.170  10.154  0.00  0.00    +0.000 A 
ATOM     21  C   UNL     1      49.474  12.352   9.861  0.00  0.00    +0.000 A 
ATOM     22  C   UNL     1      50.412  11.449  10.349  0.00  0.00    +0.000 A 
ATOM     23  C   UNL     1      50.002  10.368  11.135  0.00  0.00    +0.000 A 
ENDBRANCH  16  18
ENDBRANCH  14  16
ENDBRANCH   1  14
TORSDOF 4
ENDMDL
