MODEL 1
REMARK VINA RESULT:    -7.882      0.000      0.000
REMARK INTER + INTRA:         -14.055
REMARK INTER:                 -12.259
REMARK INTRA:                  -1.795
REMARK UNBOUND:                -1.795
REMARK  Name = 
REMARK  10 active torsions:
REMARK  status: ('A' for Active; 'I' for Inactive)
REMARK    1  A    between atoms: C_2  and  C_23
REMARK    2  A    between atoms: N_3  and  C_4
REMARK    3  A    between atoms: C_4  and  C_5
REMARK    4  A    between atoms: C_8  and  C_9
REMARK    5  A    between atoms: C_9  and  N_10
REMARK    6  A    between atoms: N_10  and  C_11
REMARK    7  A    between atoms: N_10  and  C_14
REMARK    8  A    between atoms: C_11  and  C_12
REMARK    9  A    between atoms: C_12  and  O_13
REMARK   10  A    between atoms: C_14  and  C_15
REMARK                            x       y       z     vdW  Elec       q    Type
REMARK                         _______ _______ _______ _____ _____    ______ ____
ROOT
ATOM      1  C   UNL     1      46.596   7.654  12.612  0.00  0.00    +0.000 A 
ATOM      2  C   UNL     1      47.228   6.877  11.638  0.00  0.00    +0.000 A 
ATOM      3  C   UNL     1      46.464   6.099  10.775  0.00  0.00    +0.000 A 
ATOM      4  C   UNL     1      45.079   6.092  10.926  0.00  0.00    +0.000 A 
ATOM      5  N   UNL     1      44.439   6.867  11.839  0.00  0.00    +0.000 NA
ATOM      6  C   UNL     1      45.207   7.626  12.654  0.00  0.00    +0.000 A 
ENDROOT
BRANCH   1   7
ATOM      7  C   UNL     1      47.381   8.411  13.640  0.00  0.00    +0.000 C 
BRANCH   7  10
ATOM      8  O   UNL     1      49.866   7.175  14.087  0.00  0.00    +0.000 OA
ATOM      9  C   UNL     1      48.980   7.039  14.924  0.00  0.00    +0.000 C 
ATOM     10  N   UNL     1      47.721   7.553  14.753  0.00  0.00    +0.000 N 
ATOM     11  H   UNL     1      47.097   7.593  15.550  0.00  0.00    +0.000 HD
BRANCH   9  12
ATOM     12  C   UNL     1      49.201   6.263  16.155  0.00  0.00    +0.000 A 
ATOM     13  C   UNL     1      50.171   6.670  17.061  0.00  0.00    +0.000 A 
ATOM     14  S   UNL     1      50.302   5.653  18.423  0.00  0.00    +0.000 S 
ATOM     15  C   UNL     1      49.032   4.661  17.873  0.00  0.00    +0.000 A 
ATOM     16  N   UNL     1      48.605   3.600  18.610  0.00  0.00    +0.000 NA
ATOM     17  C   UNL     1      47.598   2.971  18.101  0.00  0.00    +0.000 A 
ATOM     18  N   UNL     1      46.994   3.293  16.915  0.00  0.00    +0.000 N 
ATOM     19  C   UNL     1      47.454   4.295  16.091  0.00  0.00    +0.000 A 
ATOM     20  O   UNL     1      47.003   4.450  14.964  0.00  0.00    +0.000 OA
ATOM     21  C   UNL     1      48.540   5.079  16.651  0.00  0.00    +0.000 A 
ATOM     22  H   UNL     1      46.228   2.741  16.558  0.00  0.00    +0.000 HD
ENDBRANCH   9  12
ENDBRANCH   7  10
ENDBRANCH   1   7
BRANCH   4  23
ATOM     23  C   UNL     1      44.236   5.096  10.144  0.00  0.00    +0.000 C 
BRANCH  23  24
ATOM     24  N   UNL     1      44.631   3.664  10.367  0.00  0.00    +0.000 NA
BRANCH  24  25
ATOM     25  C   UNL     1      43.860   3.122  11.523  0.00  0.00    +0.000 C 
BRANCH  25  26
ATOM     26  C   UNL     1      44.519   3.301  12.905  0.00  0.00    +0.000 C 
BRANCH  26  27
ATOM     27  O   UNL     1      45.839   2.766  12.932  0.00  0.00    +0.000 OA
ATOM     28  H   UNL     1      46.103   2.665  12.000  0.00  0.00    +0.000 HD
ENDBRANCH  26  27
ENDBRANCH  25  26
ENDBRANCH  24  25
BRANCH  24  29
ATOM     29  C   UNL     1      44.323   2.894   9.138  0.00  0.00    +0.000 C 
BRANCH  29  30
ATOM     30  C   UNL     1      45.524   2.512   8.290  0.00  0.00    +0.000 A 
ATOM     31  C   UNL     1      46.198   3.472   7.535  0.00  0.00    +0.000 A 
ATOM     32  C   UNL     1      47.355   3.101   6.856  0.00  0.00    +0.000 A 
ATOM     33  C   UNL     1      47.803   1.789   6.940  0.00  0.00    +0.000 A 
ATOM     34  C   UNL     1      47.062   0.891   7.691  0.00  0.00    +0.000 A 
ATOM     35  N   UNL     1      45.940   1.223   8.365  0.00  0.00    +0.000 NA
ENDBRANCH  29  30
ENDBRANCH  24  29
ENDBRANCH  23  24
ENDBRANCH   4  23
TORSDOF 10
ENDMDL
MODEL 2
REMARK VINA RESULT:    -7.376      2.525      3.058
REMARK INTER + INTRA:         -13.267
REMARK INTER:                 -12.093
REMARK INTRA:                  -1.174
REMARK UNBOUND:                -1.795
REMARK  Name = 
REMARK  10 active torsions:
REMARK  status: ('A' for Active; 'I' for Inactive)
REMARK    1  A    between atoms: C_2  and  C_23
REMARK    2  A    between atoms: N_3  and  C_4
REMARK    3  A    between atoms: C_4  and  C_5
REMARK    4  A    between atoms: C_8  and  C_9
REMARK    5  A    between atoms: C_9  and  N_10
REMARK    6  A    between atoms: N_10  and  C_11
REMARK    7  A    between atoms: N_10  and  C_14
REMARK    8  A    between atoms: C_11  and  C_12
REMARK    9  A    between atoms: C_12  and  O_13
REMARK   10  A    between atoms: C_14  and  C_15
REMARK                            x       y       z     vdW  Elec       q    Type
REMARK                         _______ _______ _______ _____ _____    ______ ____
ROOT
ATOM      1  C   UNL     1      48.162   6.541  13.592  0.00  0.00    +0.000 A 
ATOM      2  C   UNL     1      47.200   5.593  13.944  0.00  0.00    +0.000 A 
ATOM      3  C   UNL     1      46.172   5.293  13.057  0.00  0.00    +0.000 A 
ATOM      4  C   UNL     1      46.111   5.975  11.844  0.00  0.00    +0.000 A 
ATOM      5  N   UNL     1      47.054   6.874  11.464  0.00  0.00    +0.000 NA
ATOM      6  C   UNL     1      48.053   7.133  12.340  0.00  0.00    +0.000 A 
ENDROOT
BRANCH   1   7
ATOM      7  C   UNL     1      49.216   6.985  14.562  0.00  0.00    +0.000 C 
BRANCH   7  10
ATOM      8  O   UNL     1      50.853   5.744  16.481  0.00  0.00    +0.000 OA
ATOM      9  C   UNL     1      49.722   6.091  16.805  0.00  0.00    +0.000 C 
ATOM     10  N   UNL     1      48.839   6.642  15.914  0.00  0.00    +0.000 N 
ATOM     11  H   UNL     1      48.005   7.096  16.270  0.00  0.00    +0.000 HD
BRANCH   9  12
ATOM     12  C   UNL     1      49.220   5.888  18.174  0.00  0.00    +0.000 A 
ATOM     13  C   UNL     1      49.409   4.665  18.802  0.00  0.00    +0.000 A 
ATOM     14  S   UNL     1      48.755   4.597  20.376  0.00  0.00    +0.000 S 
ATOM     15  C   UNL     1      48.239   6.218  20.289  0.00  0.00    +0.000 A 
ATOM     16  N   UNL     1      47.623   6.813  21.347  0.00  0.00    +0.000 NA
ATOM     17  C   UNL     1      47.339   8.059  21.164  0.00  0.00    +0.000 A 
ATOM     18  N   UNL     1      47.596   8.759  20.014  0.00  0.00    +0.000 N 
ATOM     19  C   UNL     1      48.127   8.173  18.887  0.00  0.00    +0.000 A 
ATOM     20  O   UNL     1      48.189   8.778  17.825  0.00  0.00    +0.000 OA
ATOM     21  C   UNL     1      48.530   6.791  19.065  0.00  0.00    +0.000 A 
ATOM     22  H   UNL     1      47.321   9.726  19.925  0.00  0.00    +0.000 HD
ENDBRANCH   9  12
ENDBRANCH   7  10
ENDBRANCH   1   7
BRANCH   4  23
ATOM     23  C   UNL     1      44.888   5.827  10.951  0.00  0.00    +0.000 C 
BRANCH  23  24
ATOM     24  N   UNL     1      44.492   4.400  10.700  0.00  0.00    +0.000 NA
BRANCH  24  25
ATOM     25  C   UNL     1      43.234   4.109  11.446  0.00  0.00    +0.000 C 
BRANCH  25  26
ATOM     26  C   UNL     1      42.492   5.339  12.007  0.00  0.00    +0.000 C 
BRANCH  26  27
ATOM     27  O   UNL     1      42.554   5.387  13.430  0.00  0.00    +0.000 OA
ATOM     28  H   UNL     1      43.348   4.880  13.678  0.00  0.00    +0.000 HD
ENDBRANCH  26  27
ENDBRANCH  25  26
ENDBRANCH  24  25
BRANCH  24  29
ATOM     29  C   UNL     1      44.280   4.221   9.244  0.00  0.00    +0.000 C 
BRANCH  29  30
ATOM     30  C   UNL     1      45.345   3.411   8.525  0.00  0.00    +0.000 A 
ATOM     31  C   UNL     1      45.496   2.048   8.781  0.00  0.00    +0.000 A 
ATOM     32  C   UNL     1      46.412   1.321   8.026  0.00  0.00    +0.000 A 
ATOM     33  C   UNL     1      47.155   1.970   7.047  0.00  0.00    +0.000 A 
ATOM     34  C   UNL     1      46.962   3.330   6.873  0.00  0.00    +0.000 A 
ATOM     35  N   UNL     1      46.078   4.060   7.586  0.00  0.00    +0.000 NA
ENDBRANCH  29  30
ENDBRANCH  24  29
ENDBRANCH  23  24
ENDBRANCH   4  23
TORSDOF 10
ENDMDL
MODEL 3
REMARK VINA RESULT:    -7.165      2.033      2.471
REMARK INTER + INTRA:         -12.940
REMARK INTER:                 -11.733
REMARK INTRA:                  -1.206
REMARK UNBOUND:                -1.795
REMARK  Name = 
REMARK  10 active torsions:
REMARK  status: ('A' for Active; 'I' for Inactive)
REMARK    1  A    between atoms: C_2  and  C_23
REMARK    2  A    between atoms: N_3  and  C_4
REMARK    3  A    between atoms: C_4  and  C_5
REMARK    4  A    between atoms: C_8  and  C_9
REMARK    5  A    between atoms: C_9  and  N_10
REMARK    6  A    between atoms: N_10  and  C_11
REMARK    7  A    between atoms: N_10  and  C_14
REMARK    8  A    between atoms: C_11  and  C_12
REMARK    9  A    between atoms: C_12  and  O_13
REMARK   10  A    between atoms: C_14  and  C_15
REMARK                            x       y       z     vdW  Elec       q    Type
REMARK                         _______ _______ _______ _____ _____    ______ ____
ROOT
ATOM      1  C   UNL     1      48.393   6.768  13.235  0.00  0.00    +0.000 A 
ATOM      2  C   UNL     1      47.447   5.885  13.760  0.00  0.00    +0.000 A 
ATOM      3  C   UNL     1      46.341   5.527  12.997  0.00  0.00    +0.000 A 
ATOM      4  C   UNL     1      46.189   6.087  11.731  0.00  0.00    +0.000 A 
ATOM      5  N   UNL     1      47.113   6.918  11.184  0.00  0.00    +0.000 NA
ATOM      6  C   UNL     1      48.188   7.236  11.943  0.00  0.00    +0.000 A 
ENDROOT
BRANCH   1   7
ATOM      7  C   UNL     1      49.534   7.277  14.064  0.00  0.00    +0.000 C 
BRANCH   7  10
ATOM      8  O   UNL     1      51.123   8.174  16.203  0.00  0.00    +0.000 OA
ATOM      9  C   UNL     1      50.077   7.587  16.451  0.00  0.00    +0.000 C 
ATOM     10  N   UNL     1      49.278   7.060  15.470  0.00  0.00    +0.000 N 
ATOM     11  H   UNL     1      48.336   6.772  15.709  0.00  0.00    +0.000 HD
BRANCH   9  12
ATOM     12  C   UNL     1      49.633   7.363  17.837  0.00  0.00    +0.000 A 
ATOM     13  C   UNL     1      49.336   8.449  18.649  0.00  0.00    +0.000 A 
ATOM     14  S   UNL     1      48.851   8.011  20.224  0.00  0.00    +0.000 S 
ATOM     15  C   UNL     1      48.973   6.352  19.859  0.00  0.00    +0.000 A 
ATOM     16  N   UNL     1      48.653   5.407  20.785  0.00  0.00    +0.000 NA
ATOM     17  C   UNL     1      48.736   4.192  20.354  0.00  0.00    +0.000 A 
ATOM     18  N   UNL     1      49.128   3.836  19.091  0.00  0.00    +0.000 N 
ATOM     19  C   UNL     1      49.554   4.751  18.156  0.00  0.00    +0.000 A 
ATOM     20  O   UNL     1      50.057   4.394  17.099  0.00  0.00    +0.000 OA
ATOM     21  C   UNL     1      49.412   6.136  18.566  0.00  0.00    +0.000 A 
ATOM     22  H   UNL     1      49.199   2.864  18.827  0.00  0.00    +0.000 HD
ENDBRANCH   9  12
ENDBRANCH   7  10
ENDBRANCH   1   7
BRANCH   4  23
ATOM     23  C   UNL     1      44.892   5.885  10.963  0.00  0.00    +0.000 C 
BRANCH  23  24
ATOM     24  N   UNL     1      44.546   4.442  10.729  0.00  0.00    +0.000 NA
BRANCH  24  25
ATOM     25  C   UNL     1      43.319   4.106  11.508  0.00  0.00    +0.000 C 
BRANCH  25  26
ATOM     26  C   UNL     1      42.496   5.311  12.006  0.00  0.00    +0.000 C 
BRANCH  26  27
ATOM     27  O   UNL     1      42.545   5.431  13.425  0.00  0.00    +0.000 OA
ATOM     28  H   UNL     1      41.619   5.525  13.715  0.00  0.00    +0.000 HD
ENDBRANCH  26  27
ENDBRANCH  25  26
ENDBRANCH  24  25
BRANCH  24  29
ATOM     29  C   UNL     1      44.305   4.246   9.280  0.00  0.00    +0.000 C 
BRANCH  29  30
ATOM     30  C   UNL     1      45.342   3.406   8.555  0.00  0.00    +0.000 A 
ATOM     31  C   UNL     1      45.460   2.040   8.812  0.00  0.00    +0.000 A 
ATOM     32  C   UNL     1      46.350   1.288   8.052  0.00  0.00    +0.000 A 
ATOM     33  C   UNL     1      47.101   1.915   7.065  0.00  0.00    +0.000 A 
ATOM     34  C   UNL     1      46.943   3.279   6.890  0.00  0.00    +0.000 A 
ATOM     35  N   UNL     1      46.084   4.034   7.607  0.00  0.00    +0.000 NA
ENDBRANCH  29  30
ENDBRANCH  24  29
ENDBRANCH  23  24
ENDBRANCH   4  23
TORSDOF 10
ENDMDL
MODEL 4
REMARK VINA RESULT:    -6.922      3.198      3.758
REMARK INTER + INTRA:         -12.561
REMARK INTER:                 -11.626
REMARK INTRA:                  -0.934
REMARK UNBOUND:                -1.795
REMARK  Name = 
REMARK  10 active torsions:
REMARK  status: ('A' for Active; 'I' for Inactive)
REMARK    1  A    between atoms: C_2  and  C_23
REMARK    2  A    between atoms: N_3  and  C_4
REMARK    3  A    between atoms: C_4  and  C_5
REMARK    4  A    between atoms: C_8  and  C_9
REMARK    5  A    between atoms: C_9  and  N_10
REMARK    6  A    between atoms: N_10  and  C_11
REMARK    7  A    between atoms: N_10  and  C_14
REMARK    8  A    between atoms: C_11  and  C_12
REMARK    9  A    between atoms: C_12  and  O_13
REMARK   10  A    between atoms: C_14  and  C_15
REMARK                            x       y       z     vdW  Elec       q    Type
REMARK                         _______ _______ _______ _____ _____    ______ ____
ROOT
ATOM      1  C   UNL     1      47.339   4.616  14.847  0.00  0.00    +0.000 A 
ATOM      2  C   UNL     1      46.856   3.520  14.128  0.00  0.00    +0.000 A 
ATOM      3  C   UNL     1      46.225   3.722  12.906  0.00  0.00    +0.000 A 
ATOM      4  C   UNL     1      46.061   5.025  12.441  0.00  0.00    +0.000 A 
ATOM      5  N   UNL     1      46.554   6.103  13.103  0.00  0.00    +0.000 NA
ATOM      6  C   UNL     1      47.179   5.875  14.282  0.00  0.00    +0.000 A 
ENDROOT
BRANCH   1   7
ATOM      7  C   UNL     1      47.915   4.459  16.222  0.00  0.00    +0.000 C 
BRANCH   7  10
ATOM      8  O   UNL     1      49.725   5.736  17.954  0.00  0.00    +0.000 OA
ATOM      9  C   UNL     1      48.613   6.227  17.795  0.00  0.00    +0.000 C 
ATOM     10  N   UNL     1      47.650   5.634  17.021  0.00  0.00    +0.000 N 
ATOM     11  H   UNL     1      46.834   6.174  16.757  0.00  0.00    +0.000 HD
BRANCH   9  12
ATOM     12  C   UNL     1      48.221   7.473  18.474  0.00  0.00    +0.000 A 
ATOM     13  C   UNL     1      48.152   8.657  17.753  0.00  0.00    +0.000 A 
ATOM     14  S   UNL     1      47.696  10.004  18.695  0.00  0.00    +0.000 S 
ATOM     15  C   UNL     1      47.527   9.040  20.089  0.00  0.00    +0.000 A 
ATOM     16  N   UNL     1      47.114   9.582  21.267  0.00  0.00    +0.000 NA
ATOM     17  C   UNL     1      46.975   8.727  22.225  0.00  0.00    +0.000 A 
ATOM     18  N   UNL     1      47.229   7.385  22.117  0.00  0.00    +0.000 N 
ATOM     19  C   UNL     1      47.741   6.811  20.976  0.00  0.00    +0.000 A 
ATOM     20  O   UNL     1      48.117   5.647  20.962  0.00  0.00    +0.000 OA
ATOM     21  C   UNL     1      47.849   7.718  19.848  0.00  0.00    +0.000 A 
ATOM     22  H   UNL     1      47.127   6.774  22.915  0.00  0.00    +0.000 HD
ENDBRANCH   9  12
ENDBRANCH   7  10
ENDBRANCH   1   7
BRANCH   4  23
ATOM     23  C   UNL     1      45.193   5.292  11.222  0.00  0.00    +0.000 C 
BRANCH  23  24
ATOM     24  N   UNL     1      44.448   4.083  10.733  0.00  0.00    +0.000 NA
BRANCH  24  25
ATOM     25  C   UNL     1      43.097   4.058  11.364  0.00  0.00    +0.000 C 
BRANCH  25  26
ATOM     26  C   UNL     1      42.586   5.411  11.898  0.00  0.00    +0.000 C 
BRANCH  26  27
ATOM     27  O   UNL     1      42.524   5.427  13.321  0.00  0.00    +0.000 OA
ATOM     28  H   UNL     1      43.151   6.115  13.606  0.00  0.00    +0.000 HD
ENDBRANCH  26  27
ENDBRANCH  25  26
ENDBRANCH  24  25
BRANCH  24  29
ATOM     29  C   UNL     1      44.324   4.172   9.258  0.00  0.00    +0.000 C 
BRANCH  29  30
ATOM     30  C   UNL     1      45.281   3.295   8.470  0.00  0.00    +0.000 A 
ATOM     31  C   UNL     1      46.127   3.849   7.509  0.00  0.00    +0.000 A 
ATOM     32  C   UNL     1      47.062   3.028   6.884  0.00  0.00    +0.000 A 
ATOM     33  C   UNL     1      47.124   1.683   7.226  0.00  0.00    +0.000 A 
ATOM     34  C   UNL     1      46.231   1.207   8.172  0.00  0.00    +0.000 A 
ATOM     35  N   UNL     1      45.318   1.979   8.799  0.00  0.00    +0.000 NA
ENDBRANCH  29  30
ENDBRANCH  24  29
ENDBRANCH  23  24
ENDBRANCH   4  23
TORSDOF 10
ENDMDL
MODEL 5
REMARK VINA RESULT:    -6.602      1.947      2.214
REMARK INTER + INTRA:         -12.063
REMARK INTER:                 -11.177
REMARK INTRA:                  -0.886
REMARK UNBOUND:                -1.795
REMARK  Name = 
REMARK  10 active torsions:
REMARK  status: ('A' for Active; 'I' for Inactive)
REMARK    1  A    between atoms: C_2  and  C_23
REMARK    2  A    between atoms: N_3  and  C_4
REMARK    3  A    between atoms: C_4  and  C_5
REMARK    4  A    between atoms: C_8  and  C_9
REMARK    5  A    between atoms: C_9  and  N_10
REMARK    6  A    between atoms: N_10  and  C_11
REMARK    7  A    between atoms: N_10  and  C_14
REMARK    8  A    between atoms: C_11  and  C_12
REMARK    9  A    between atoms: C_12  and  O_13
REMARK   10  A    between atoms: C_14  and  C_15
REMARK                            x       y       z     vdW  Elec       q    Type
REMARK                         _______ _______ _______ _____ _____    ______ ____
ROOT
ATOM      1  C   UNL     1      47.705   7.306  14.063  0.00  0.00    +0.000 A 
ATOM      2  C   UNL     1      47.669   5.947  13.742  0.00  0.00    +0.000 A 
ATOM      3  C   UNL     1      47.079   5.535  12.553  0.00  0.00    +0.000 A 
ATOM      4  C   UNL     1      46.506   6.494  11.720  0.00  0.00    +0.000 A 
ATOM      5  N   UNL     1      46.560   7.823  11.991  0.00  0.00    +0.000 NA
ATOM      6  C   UNL     1      47.156   8.196  13.148  0.00  0.00    +0.000 A 
ENDROOT
BRANCH   1   7
ATOM      7  C   UNL     1      48.219   7.786  15.387  0.00  0.00    +0.000 C 
BRANCH   7  10
ATOM      8  O   UNL     1      48.304   6.410  17.838  0.00  0.00    +0.000 OA
ATOM      9  C   UNL     1      49.222   6.253  17.041  0.00  0.00    +0.000 C 
ATOM     10  N   UNL     1      49.291   6.935  15.854  0.00  0.00    +0.000 N 
ATOM     11  H   UNL     1      49.947   6.622  15.148  0.00  0.00    +0.000 HD
BRANCH   9  12
ATOM     12  C   UNL     1      50.346   5.349  17.334  0.00  0.00    +0.000 A 
ATOM     13  C   UNL     1      51.534   5.868  17.831  0.00  0.00    +0.000 A 
ATOM     14  S   UNL     1      52.734   4.687  18.102  0.00  0.00    +0.000 S 
ATOM     15  C   UNL     1      51.689   3.435  17.612  0.00  0.00    +0.000 A 
ATOM     16  N   UNL     1      52.092   2.135  17.642  0.00  0.00    +0.000 NA
ATOM     17  C   UNL     1      51.180   1.288  17.299  0.00  0.00    +0.000 A 
ATOM     18  N   UNL     1      49.910   1.622  16.911  0.00  0.00    +0.000 N 
ATOM     19  C   UNL     1      49.490   2.925  16.771  0.00  0.00    +0.000 A 
ATOM     20  O   UNL     1      48.410   3.195  16.263  0.00  0.00    +0.000 OA
ATOM     21  C   UNL     1      50.455   3.914  17.213  0.00  0.00    +0.000 A 
ATOM     22  H   UNL     1      49.253   0.910  16.626  0.00  0.00    +0.000 HD
ENDBRANCH   9  12
ENDBRANCH   7  10
ENDBRANCH   1   7
BRANCH   4  23
ATOM     23  C   UNL     1      45.670   6.059  10.526  0.00  0.00    +0.000 C 
BRANCH  23  24
ATOM     24  N   UNL     1      45.280   4.610  10.557  0.00  0.00    +0.000 NA
BRANCH  24  25
ATOM     25  C   UNL     1      44.235   4.411  11.602  0.00  0.00    +0.000 C 
BRANCH  25  26
ATOM     26  C   UNL     1      43.478   3.069  11.541  0.00  0.00    +0.000 C 
BRANCH  26  27
ATOM     27  O   UNL     1      43.753   2.257  12.679  0.00  0.00    +0.000 OA
ATOM     28  H   UNL     1      43.028   2.427  13.307  0.00  0.00    +0.000 HD
ENDBRANCH  26  27
ENDBRANCH  25  26
ENDBRANCH  24  25
BRANCH  24  29
ATOM     29  C   UNL     1      44.749   4.237   9.224  0.00  0.00    +0.000 C 
BRANCH  29  30
ATOM     30  C   UNL     1      45.617   3.284   8.420  0.00  0.00    +0.000 A 
ATOM     31  C   UNL     1      46.531   3.770   7.485  0.00  0.00    +0.000 A 
ATOM     32  C   UNL     1      47.380   2.871   6.846  0.00  0.00    +0.000 A 
ATOM     33  C   UNL     1      47.291   1.518   7.149  0.00  0.00    +0.000 A 
ATOM     34  C   UNL     1      46.339   1.115   8.070  0.00  0.00    +0.000 A 
ATOM     35  N   UNL     1      45.507   1.964   8.710  0.00  0.00    +0.000 NA
ENDBRANCH  29  30
ENDBRANCH  24  29
ENDBRANCH  23  24
ENDBRANCH   4  23
TORSDOF 10
ENDMDL
MODEL 6
REMARK VINA RESULT:    -6.424      3.226      4.047
REMARK INTER + INTRA:         -11.787
REMARK INTER:                 -10.544
REMARK INTRA:                  -1.243
REMARK UNBOUND:                -1.795
REMARK  Name = 
REMARK  10 active torsions:
REMARK  status: ('A' for Active; 'I' for Inactive)
REMARK    1  A    between atoms: C_2  and  C_23
REMARK    2  A    between atoms: N_3  and  C_4
REMARK    3  A    between atoms: C_4  and  C_5
REMARK    4  A    between atoms: C_8  and  C_9
REMARK    5  A    between atoms: C_9  and  N_10
REMARK    6  A    between atoms: N_10  and  C_11
REMARK    7  A    between atoms: N_10  and  C_14
REMARK    8  A    between atoms: C_11  and  C_12
REMARK    9  A    between atoms: C_12  and  O_13
REMARK   10  A    between atoms: C_14  and  C_15
REMARK                            x       y       z     vdW  Elec       q    Type
REMARK                         _______ _______ _______ _____ _____    ______ ____
ROOT
ATOM      1  C   UNL     1      47.725   6.038  14.134  0.00  0.00    +0.000 A 
ATOM      2  C   UNL     1      47.106   4.820  13.847  0.00  0.00    +0.000 A 
ATOM      3  C   UNL     1      46.319   4.697  12.707  0.00  0.00    +0.000 A 
ATOM      4  C   UNL     1      46.142   5.812  11.891  0.00  0.00    +0.000 A 
ATOM      5  N   UNL     1      46.762   6.996  12.127  0.00  0.00    +0.000 NA
ATOM      6  C   UNL     1      47.536   7.081  13.235  0.00  0.00    +0.000 A 
ENDROOT
BRANCH   1   7
ATOM      7  C   UNL     1      48.480   6.253  15.410  0.00  0.00    +0.000 C 
BRANCH   7  10
ATOM      8  O   UNL     1      50.492   8.167  15.854  0.00  0.00    +0.000 OA
ATOM      9  C   UNL     1      49.322   8.490  16.025  0.00  0.00    +0.000 C 
ATOM     10  N   UNL     1      48.286   7.601  15.895  0.00  0.00    +0.000 N 
ATOM     11  H   UNL     1      47.339   7.958  15.843  0.00  0.00    +0.000 HD
BRANCH   9  12
ATOM     12  C   UNL     1      48.955   9.855  16.437  0.00  0.00    +0.000 A 
ATOM     13  C   UNL     1      49.320  10.934  15.643  0.00  0.00    +0.000 A 
ATOM     14  S   UNL     1      48.828  12.441  16.273  0.00  0.00    +0.000 S 
ATOM     15  C   UNL     1      48.066  11.698  17.602  0.00  0.00    +0.000 A 
ATOM     16  N   UNL     1      47.402  12.439  18.531  0.00  0.00    +0.000 NA
ATOM     17  C   UNL     1      46.824  11.742  19.452  0.00  0.00    +0.000 A 
ATOM     18  N   UNL     1      46.866  10.375  19.540  0.00  0.00    +0.000 N 
ATOM     19  C   UNL     1      47.606   9.595  18.682  0.00  0.00    +0.000 A 
ATOM     20  O   UNL     1      47.762   8.398  18.884  0.00  0.00    +0.000 OA
ATOM     21  C   UNL     1      48.216  10.324  17.586  0.00  0.00    +0.000 A 
ATOM     22  H   UNL     1      46.416   9.893  20.304  0.00  0.00    +0.000 HD
ENDBRANCH   9  12
ENDBRANCH   7  10
ENDBRANCH   1   7
BRANCH   4  23
ATOM     23  C   UNL     1      45.123   5.771  10.763  0.00  0.00    +0.000 C 
BRANCH  23  24
ATOM     24  N   UNL     1      44.629   4.390  10.443  0.00  0.00    +0.000 NA
BRANCH  24  25
ATOM     25  C   UNL     1      43.317   4.176  11.120  0.00  0.00    +0.000 C 
BRANCH  25  26
ATOM     26  C   UNL     1      43.230   2.928  12.023  0.00  0.00    +0.000 C 
BRANCH  26  27
ATOM     27  O   UNL     1      43.205   1.726  11.258  0.00  0.00    +0.000 OA
ATOM     28  H   UNL     1      43.486   1.977  10.360  0.00  0.00    +0.000 HD
ENDBRANCH  26  27
ENDBRANCH  25  26
ENDBRANCH  24  25
BRANCH  24  29
ATOM     29  C   UNL     1      44.473   4.274   8.974  0.00  0.00    +0.000 C 
BRANCH  29  30
ATOM     30  C   UNL     1      45.400   3.278   8.297  0.00  0.00    +0.000 A 
ATOM     31  C   UNL     1      46.341   3.705   7.360  0.00  0.00    +0.000 A 
ATOM     32  C   UNL     1      47.240   2.777   6.842  0.00  0.00    +0.000 A 
ATOM     33  C   UNL     1      47.172   1.455   7.262  0.00  0.00    +0.000 A 
ATOM     34  C   UNL     1      46.191   1.108   8.177  0.00  0.00    +0.000 A 
ATOM     35  N   UNL     1      45.310   1.986   8.701  0.00  0.00    +0.000 NA
ENDBRANCH  29  30
ENDBRANCH  24  29
ENDBRANCH  23  24
ENDBRANCH   4  23
TORSDOF 10
ENDMDL
MODEL 7
REMARK VINA RESULT:    -6.410      4.032      5.694
REMARK INTER + INTRA:         -11.765
REMARK INTER:                 -10.191
REMARK INTRA:                  -1.573
REMARK UNBOUND:                -1.795
REMARK  Name = 
REMARK  10 active torsions:
REMARK  status: ('A' for Active; 'I' for Inactive)
REMARK    1  A    between atoms: C_2  and  C_23
REMARK    2  A    between atoms: N_3  and  C_4
REMARK    3  A    between atoms: C_4  and  C_5
REMARK    4  A    between atoms: C_8  and  C_9
REMARK    5  A    between atoms: C_9  and  N_10
REMARK    6  A    between atoms: N_10  and  C_11
REMARK    7  A    between atoms: N_10  and  C_14
REMARK    8  A    between atoms: C_11  and  C_12
REMARK    9  A    between atoms: C_12  and  O_13
REMARK   10  A    between atoms: C_14  and  C_15
REMARK                            x       y       z     vdW  Elec       q    Type
REMARK                         _______ _______ _______ _____ _____    ______ ____
ROOT
ATOM      1  C   UNL     1      47.647   7.292  13.113  0.00  0.00    +0.000 A 
ATOM      2  C   UNL     1      46.674   8.202  12.694  0.00  0.00    +0.000 A 
ATOM      3  C   UNL     1      45.509   7.737  12.093  0.00  0.00    +0.000 A 
ATOM      4  C   UNL     1      45.356   6.367  11.896  0.00  0.00    +0.000 A 
ATOM      5  N   UNL     1      46.270   5.460  12.328  0.00  0.00    +0.000 NA
ATOM      6  C   UNL     1      47.386   5.940  12.924  0.00  0.00    +0.000 A 
ENDROOT
BRANCH   1   7
ATOM      7  C   UNL     1      48.968   7.750  13.653  0.00  0.00    +0.000 C 
BRANCH   7  10
ATOM      8  O   UNL     1      51.066   9.538  14.209  0.00  0.00    +0.000 OA
ATOM      9  C   UNL     1      50.692   9.409  13.049  0.00  0.00    +0.000 C 
ATOM     10  N   UNL     1      49.635   8.610  12.701  0.00  0.00    +0.000 N 
ATOM     11  H   UNL     1      49.499   8.378  11.723  0.00  0.00    +0.000 HD
BRANCH   9  12
ATOM     12  C   UNL     1      51.330  10.153  11.951  0.00  0.00    +0.000 A 
ATOM     13  C   UNL     1      51.452  11.534  12.034  0.00  0.00    +0.000 A 
ATOM     14  S   UNL     1      52.202  12.236  10.673  0.00  0.00    +0.000 S 
ATOM     15  C   UNL     1      52.434  10.713   9.947  0.00  0.00    +0.000 A 
ATOM     16  N   UNL     1      53.070  10.599   8.749  0.00  0.00    +0.000 NA
ATOM     17  C   UNL     1      53.228   9.383   8.345  0.00  0.00    +0.000 A 
ATOM     18  N   UNL     1      52.791   8.273   9.019  0.00  0.00    +0.000 N 
ATOM     19  C   UNL     1      52.058   8.346  10.181  0.00  0.00    +0.000 A 
ATOM     20  O   UNL     1      51.537   7.351  10.669  0.00  0.00    +0.000 OA
ATOM     21  C   UNL     1      51.915   9.688  10.715  0.00  0.00    +0.000 A 
ATOM     22  H   UNL     1      52.921   7.349   8.632  0.00  0.00    +0.000 HD
ENDBRANCH   9  12
ENDBRANCH   7  10
ENDBRANCH   1   7
BRANCH   4  23
ATOM     23  C   UNL     1      44.200   5.846  11.055  0.00  0.00    +0.000 C 
BRANCH  23  24
ATOM     24  N   UNL     1      44.352   4.411  10.641  0.00  0.00    +0.000 NA
BRANCH  24  25
ATOM     25  C   UNL     1      43.265   3.607  11.270  0.00  0.00    +0.000 C 
BRANCH  25  26
ATOM     26  C   UNL     1      43.675   2.793  12.515  0.00  0.00    +0.000 C 
BRANCH  26  27
ATOM     27  O   UNL     1      45.086   2.607  12.581  0.00  0.00    +0.000 OA
ATOM     28  H   UNL     1      45.226   1.643  12.579  0.00  0.00    +0.000 HD
ENDBRANCH  26  27
ENDBRANCH  25  26
ENDBRANCH  24  25
BRANCH  24  29
ATOM     29  C   UNL     1      44.257   4.336   9.163  0.00  0.00    +0.000 C 
BRANCH  29  30
ATOM     30  C   UNL     1      45.334   3.510   8.481  0.00  0.00    +0.000 A 
ATOM     31  C   UNL     1      45.463   2.147   8.750  0.00  0.00    +0.000 A 
ATOM     32  C   UNL     1      46.393   1.406   8.027  0.00  0.00    +0.000 A 
ATOM     33  C   UNL     1      47.170   2.039   7.066  0.00  0.00    +0.000 A 
ATOM     34  C   UNL     1      46.997   3.400   6.878  0.00  0.00    +0.000 A 
ATOM     35  N   UNL     1      46.100   4.145   7.560  0.00  0.00    +0.000 NA
ENDBRANCH  29  30
ENDBRANCH  24  29
ENDBRANCH  23  24
ENDBRANCH   4  23
TORSDOF 10
ENDMDL
MODEL 8
REMARK VINA RESULT:    -6.355      3.290      5.672
REMARK INTER + INTRA:         -11.680
REMARK INTER:                 -10.331
REMARK INTRA:                  -1.349
REMARK UNBOUND:                -1.795
REMARK  Name = 
REMARK  10 active torsions:
REMARK  status: ('A' for Active; 'I' for Inactive)
REMARK    1  A    between atoms: C_2  and  C_23
REMARK    2  A    between atoms: N_3  and  C_4
REMARK    3  A    between atoms: C_4  and  C_5
REMARK    4  A    between atoms: C_8  and  C_9
REMARK    5  A    between atoms: C_9  and  N_10
REMARK    6  A    between atoms: N_10  and  C_11
REMARK    7  A    between atoms: N_10  and  C_14
REMARK    8  A    between atoms: C_11  and  C_12
REMARK    9  A    between atoms: C_12  and  O_13
REMARK   10  A    between atoms: C_14  and  C_15
REMARK                            x       y       z     vdW  Elec       q    Type
REMARK                         _______ _______ _______ _____ _____    ______ ____
ROOT
ATOM      1  C   UNL     1      47.927   4.130  16.654  0.00  0.00    +0.000 A 
ATOM      2  C   UNL     1      48.483   5.408  16.743  0.00  0.00    +0.000 A 
ATOM      3  C   UNL     1      48.426   6.262  15.646  0.00  0.00    +0.000 A 
ATOM      4  C   UNL     1      47.838   5.804  14.469  0.00  0.00    +0.000 A 
ATOM      5  N   UNL     1      47.259   4.580  14.370  0.00  0.00    +0.000 NA
ATOM      6  C   UNL     1      47.315   3.778  15.458  0.00  0.00    +0.000 A 
ENDROOT
BRANCH   1   7
ATOM      7  C   UNL     1      48.072   3.134  17.765  0.00  0.00    +0.000 C 
BRANCH   7  10
ATOM      8  O   UNL     1      49.812   1.592  16.184  0.00  0.00    +0.000 OA
ATOM      9  C   UNL     1      50.260   2.157  17.175  0.00  0.00    +0.000 C 
ATOM     10  N   UNL     1      49.469   2.873  18.034  0.00  0.00    +0.000 N 
ATOM     11  H   UNL     1      49.911   3.485  18.711  0.00  0.00    +0.000 HD
BRANCH   9  12
ATOM     12  C   UNL     1      51.684   2.059  17.536  0.00  0.00    +0.000 A 
ATOM     13  C   UNL     1      52.272   0.810  17.686  0.00  0.00    +0.000 A 
ATOM     14  S   UNL     1      53.920   0.879  18.118  0.00  0.00    +0.000 S 
ATOM     15  C   UNL     1      53.917   2.581  18.071  0.00  0.00    +0.000 A 
ATOM     16  N   UNL     1      55.054   3.289  18.313  0.00  0.00    +0.000 NA
ATOM     17  C   UNL     1      54.921   4.568  18.187  0.00  0.00    +0.000 A 
ATOM     18  N   UNL     1      53.752   5.203  17.861  0.00  0.00    +0.000 N 
ATOM     19  C   UNL     1      52.558   4.536  17.705  0.00  0.00    +0.000 A 
ATOM     20  O   UNL     1      51.502   5.142  17.582  0.00  0.00    +0.000 OA
ATOM     21  C   UNL     1      52.669   3.090  17.765  0.00  0.00    +0.000 A 
ATOM     22  H   UNL     1      53.709   6.210  17.807  0.00  0.00    +0.000 HD
ENDBRANCH   9  12
ENDBRANCH   7  10
ENDBRANCH   1   7
BRANCH   4  23
ATOM     23  C   UNL     1      47.950   6.628  13.196  0.00  0.00    +0.000 C 
BRANCH  23  24
ATOM     24  N   UNL     1      46.625   7.064  12.639  0.00  0.00    +0.000 NA
BRANCH  24  25
ATOM     25  C   UNL     1      46.678   8.527  12.351  0.00  0.00    +0.000 C 
BRANCH  25  26
ATOM     26  C   UNL     1      45.383   9.310  12.646  0.00  0.00    +0.000 C 
BRANCH  26  27
ATOM     27  O   UNL     1      44.258   8.734  11.988  0.00  0.00    +0.000 OA
ATOM     28  H   UNL     1      44.624   8.142  11.306  0.00  0.00    +0.000 HD
ENDBRANCH  26  27
ENDBRANCH  25  26
ENDBRANCH  24  25
BRANCH  24  29
ATOM     29  C   UNL     1      46.366   6.305  11.393  0.00  0.00    +0.000 C 
BRANCH  29  30
ATOM     30  C   UNL     1      45.193   5.341  11.449  0.00  0.00    +0.000 A 
ATOM     31  C   UNL     1      45.047   4.341  10.488  0.00  0.00    +0.000 A 
ATOM     32  C   UNL     1      44.019   3.415  10.634  0.00  0.00    +0.000 A 
ATOM     33  C   UNL     1      43.163   3.513  11.725  0.00  0.00    +0.000 A 
ATOM     34  C   UNL     1      43.361   4.552  12.619  0.00  0.00    +0.000 A 
ATOM     35  N   UNL     1      44.353   5.461  12.507  0.00  0.00    +0.000 NA
ENDBRANCH  29  30
ENDBRANCH  24  29
ENDBRANCH  23  24
ENDBRANCH   4  23
TORSDOF 10
ENDMDL
MODEL 9
REMARK VINA RESULT:    -6.269      2.811      8.144
REMARK INTER + INTRA:         -11.546
REMARK INTER:                  -9.964
REMARK INTRA:                  -1.582
REMARK UNBOUND:                -1.795
REMARK  Name = 
REMARK  10 active torsions:
REMARK  status: ('A' for Active; 'I' for Inactive)
REMARK    1  A    between atoms: C_2  and  C_23
REMARK    2  A    between atoms: N_3  and  C_4
REMARK    3  A    between atoms: C_4  and  C_5
REMARK    4  A    between atoms: C_8  and  C_9
REMARK    5  A    between atoms: C_9  and  N_10
REMARK    6  A    between atoms: N_10  and  C_11
REMARK    7  A    between atoms: N_10  and  C_14
REMARK    8  A    between atoms: C_11  and  C_12
REMARK    9  A    between atoms: C_12  and  O_13
REMARK   10  A    between atoms: C_14  and  C_15
REMARK                            x       y       z     vdW  Elec       q    Type
REMARK                         _______ _______ _______ _____ _____    ______ ____
ROOT
ATOM      1  C   UNL     1      48.153   8.194  13.010  0.00  0.00    +0.000 A 
ATOM      2  C   UNL     1      47.834   8.849  14.202  0.00  0.00    +0.000 A 
ATOM      3  C   UNL     1      48.709   8.782  15.280  0.00  0.00    +0.000 A 
ATOM      4  C   UNL     1      49.876   8.030  15.152  0.00  0.00    +0.000 A 
ATOM      5  N   UNL     1      50.225   7.416  13.993  0.00  0.00    +0.000 NA
ATOM      6  C   UNL     1      49.362   7.513  12.955  0.00  0.00    +0.000 A 
ENDROOT
BRANCH   1   7
ATOM      7  C   UNL     1      47.187   8.137  11.865  0.00  0.00    +0.000 C 
BRANCH   7  10
ATOM      8  O   UNL     1      44.441   7.670  11.480  0.00  0.00    +0.000 OA
ATOM      9  C   UNL     1      45.198   6.709  11.559  0.00  0.00    +0.000 C 
ATOM     10  N   UNL     1      46.538   6.846  11.812  0.00  0.00    +0.000 N 
ATOM     11  H   UNL     1      47.147   6.050  11.664  0.00  0.00    +0.000 HD
BRANCH   9  12
ATOM     12  C   UNL     1      44.700   5.329  11.438  0.00  0.00    +0.000 A 
ATOM     13  C   UNL     1      43.964   4.769  12.473  0.00  0.00    +0.000 A 
ATOM     14  S   UNL     1      43.478   3.162  12.174  0.00  0.00    +0.000 S 
ATOM     15  C   UNL     1      44.194   3.176  10.629  0.00  0.00    +0.000 A 
ATOM     16  N   UNL     1      44.109   2.093   9.809  0.00  0.00    +0.000 NA
ATOM     17  C   UNL     1      44.646   2.263   8.647  0.00  0.00    +0.000 A 
ATOM     18  N   UNL     1      45.277   3.407   8.238  0.00  0.00    +0.000 N 
ATOM     19  C   UNL     1      45.473   4.489   9.066  0.00  0.00    +0.000 A 
ATOM     20  O   UNL     1      46.184   5.427   8.732  0.00  0.00    +0.000 OA
ATOM     21  C   UNL     1      44.825   4.376  10.360  0.00  0.00    +0.000 A 
ATOM     22  H   UNL     1      45.703   3.464   7.324  0.00  0.00    +0.000 HD
ENDBRANCH   9  12
ENDBRANCH   7  10
ENDBRANCH   1   7
BRANCH   4  23
ATOM     23  C   UNL     1      50.742   7.761  16.373  0.00  0.00    +0.000 C 
BRANCH  23  24
ATOM     24  N   UNL     1      51.340   6.384  16.399  0.00  0.00    +0.000 NA
BRANCH  24  25
ATOM     25  C   UNL     1      52.826   6.502  16.431  0.00  0.00    +0.000 C 
BRANCH  25  26
ATOM     26  C   UNL     1      53.426   7.599  15.529  0.00  0.00    +0.000 C 
BRANCH  26  27
ATOM     27  O   UNL     1      53.368   7.239  14.151  0.00  0.00    +0.000 OA
ATOM     28  H   UNL     1      52.444   6.976  13.985  0.00  0.00    +0.000 HD
ENDBRANCH  26  27
ENDBRANCH  25  26
ENDBRANCH  24  25
BRANCH  24  29
ATOM     29  C   UNL     1      50.855   5.684  17.612  0.00  0.00    +0.000 C 
BRANCH  29  30
ATOM     30  C   UNL     1      49.734   4.684  17.383  0.00  0.00    +0.000 A 
ATOM     31  C   UNL     1      48.414   5.114  17.244  0.00  0.00    +0.000 A 
ATOM     32  C   UNL     1      47.433   4.177  16.931  0.00  0.00    +0.000 A 
ATOM     33  C   UNL     1      47.790   2.844  16.773  0.00  0.00    +0.000 A 
ATOM     34  C   UNL     1      49.118   2.496  16.952  0.00  0.00    +0.000 A 
ATOM     35  N   UNL     1      50.092   3.382  17.250  0.00  0.00    +0.000 NA
ENDBRANCH  29  30
ENDBRANCH  24  29
ENDBRANCH  23  24
ENDBRANCH   4  23
TORSDOF 10
ENDMDL
