MODEL 1
REMARK VINA RESULT:    -7.040      0.000      0.000
REMARK INTER + INTRA:         -10.594
REMARK INTER:                  -9.921
REMARK INTRA:                  -0.673
REMARK UNBOUND:                -0.673
REMARK  Name = 
REMARK  9 active torsions:
REMARK  status: ('A' for Active; 'I' for Inactive)
REMARK    1  A    between atoms: C_1  and  C_2
REMARK    2  A    between atoms: C_2  and  N_3
REMARK    3  A    between atoms: N_3  and  C_4
REMARK    4  A    between atoms: N_3  and  C_15
REMARK    5  A    between atoms: C_4  and  C_5
REMARK    6  A    between atoms: C_5  and  C_6
REMARK    7  A    between atoms: C_10  and  C_11
REMARK    8  A    between atoms: C_19  and  O_20
REMARK    9  A    between atoms: O_20  and  C_21
REMARK                            x       y       z     vdW  Elec       q    Type
REMARK                         _______ _______ _______ _____ _____    ______ ____
ROOT
ATOM      1  C   UNL     1      45.569   4.894  12.211  0.00  0.00    +0.000 C 
ENDROOT
BRANCH   1   2
ATOM      2  N   UNL     1      44.586   4.354  11.233  0.00  0.00    +0.000 N 
BRANCH   2   3
ATOM      3  C   UNL     1      45.080   3.878  10.004  0.00  0.00    +0.000 A 
ATOM      4  C   UNL     1      45.547   4.750   9.001  0.00  0.00    +0.000 A 
ATOM      5  C   UNL     1      46.060   4.289   7.783  0.00  0.00    +0.000 A 
ATOM      6  C   UNL     1      46.143   2.927   7.532  0.00  0.00    +0.000 A 
ATOM      7  C   UNL     1      45.719   2.029   8.504  0.00  0.00    +0.000 A 
ATOM      8  C   UNL     1      45.174   2.506   9.709  0.00  0.00    +0.000 A 
BRANCH   7   9
ATOM      9  O   UNL     1      45.768   0.665   8.380  0.00  0.00    +0.000 OA
ATOM     10  C   UNL     1      46.846   0.168   7.593  0.00  0.00    +0.000 C 
ENDBRANCH   7   9
ENDBRANCH   2   3
BRANCH   2  12
ATOM     11  C   UNL     1      42.780   5.166  12.755  0.00  0.00    +0.000 C 
ATOM     12  C   UNL     1      43.141   4.579  11.397  0.00  0.00    +0.000 C 
ENDBRANCH   2  12
ENDBRANCH   1   2
BRANCH   1  13
ATOM     13  C   UNL     1      46.288   3.869  13.085  0.00  0.00    +0.000 C 
BRANCH  13  14
ATOM     14  C   UNL     1      46.987   4.505  14.265  0.00  0.00    +0.000 A 
ATOM     15  N   UNL     1      47.643   5.669  14.078  0.00  0.00    +0.000 NA
ATOM     16  C   UNL     1      48.356   6.156  15.115  0.00  0.00    +0.000 A 
ATOM     17  C   UNL     1      48.456   5.520  16.329  0.00  0.00    +0.000 A 
ATOM     18  C   UNL     1      47.747   4.345  16.422  0.00  0.00    +0.000 A 
ATOM     19  N   UNL     1      47.002   3.812  15.418  0.00  0.00    +0.000 NA
BRANCH  18  20
ATOM     20  C   UNL     1      47.801   3.558  17.694  0.00  0.00    +0.000 C 
ATOM     21  N   UNL     1      46.839   2.595  17.829  0.00  0.00    +0.000 N 
ATOM     22  O   UNL     1      48.648   3.753  18.557  0.00  0.00    +0.000 OA
ATOM     23  H   UNL     1      46.162   2.450  17.088  0.00  0.00    +0.000 HD
ATOM     24  H   UNL     1      46.830   2.010  18.652  0.00  0.00    +0.000 HD
ENDBRANCH  18  20
ENDBRANCH  13  14
ENDBRANCH   1  13
TORSDOF 7
ENDMDL
MODEL 2
REMARK VINA RESULT:    -6.864      1.673      2.221
REMARK INTER + INTRA:         -10.346
REMARK INTER:                  -9.673
REMARK INTRA:                  -0.673
REMARK UNBOUND:                -0.673
REMARK  Name = 
REMARK  9 active torsions:
REMARK  status: ('A' for Active; 'I' for Inactive)
REMARK    1  A    between atoms: C_1  and  C_2
REMARK    2  A    between atoms: C_2  and  N_3
REMARK    3  A    between atoms: N_3  and  C_4
REMARK    4  A    between atoms: N_3  and  C_15
REMARK    5  A    between atoms: C_4  and  C_5
REMARK    6  A    between atoms: C_5  and  C_6
REMARK    7  A    between atoms: C_10  and  C_11
REMARK    8  A    between atoms: C_19  and  O_20
REMARK    9  A    between atoms: O_20  and  C_21
REMARK                            x       y       z     vdW  Elec       q    Type
REMARK                         _______ _______ _______ _____ _____    ______ ____
ROOT
ATOM      1  C   UNL     1      45.295   5.583  13.216  0.00  0.00    +0.000 C 
ENDROOT
BRANCH   1   2
ATOM      2  N   UNL     1      44.848   5.946  11.843  0.00  0.00    +0.000 N 
BRANCH   2   3
ATOM      3  C   UNL     1      44.853   4.934  10.866  0.00  0.00    +0.000 A 
ATOM      4  C   UNL     1      44.174   3.714  11.053  0.00  0.00    +0.000 A 
ATOM      5  C   UNL     1      44.153   2.708  10.080  0.00  0.00    +0.000 A 
ATOM      6  C   UNL     1      44.801   2.896   8.867  0.00  0.00    +0.000 A 
ATOM      7  C   UNL     1      45.460   4.096   8.628  0.00  0.00    +0.000 A 
ATOM      8  C   UNL     1      45.502   5.084   9.627  0.00  0.00    +0.000 A 
BRANCH   7   9
ATOM      9  O   UNL     1      46.118   4.405   7.466  0.00  0.00    +0.000 OA
ATOM     10  C   UNL     1      46.897   3.348   6.913  0.00  0.00    +0.000 C 
ENDBRANCH   7   9
ENDBRANCH   2   3
BRANCH   2  12
ATOM     11  C   UNL     1      45.583   8.301  12.231  0.00  0.00    +0.000 C 
ATOM     12  C   UNL     1      44.699   7.351  11.434  0.00  0.00    +0.000 C 
ENDBRANCH   2  12
ENDBRANCH   1   2
BRANCH   1  13
ATOM     13  C   UNL     1      46.616   4.824  13.319  0.00  0.00    +0.000 C 
BRANCH  13  14
ATOM     14  C   UNL     1      47.291   5.019  14.658  0.00  0.00    +0.000 A 
ATOM     15  N   UNL     1      48.186   6.019  14.792  0.00  0.00    +0.000 NA
ATOM     16  C   UNL     1      48.861   6.101  15.958  0.00  0.00    +0.000 A 
ATOM     17  C   UNL     1      48.691   5.212  16.993  0.00  0.00    +0.000 A 
ATOM     18  C   UNL     1      47.753   4.233  16.762  0.00  0.00    +0.000 A 
ATOM     19  N   UNL     1      47.035   4.109  15.615  0.00  0.00    +0.000 NA
BRANCH  18  20
ATOM     20  C   UNL     1      47.502   3.199  17.814  0.00  0.00    +0.000 C 
ATOM     21  N   UNL     1      48.375   3.210  18.866  0.00  0.00    +0.000 N 
ATOM     22  O   UNL     1      46.578   2.398  17.746  0.00  0.00    +0.000 OA
ATOM     23  H   UNL     1      49.120   3.896  18.898  0.00  0.00    +0.000 HD
ATOM     24  H   UNL     1      48.252   2.553  19.624  0.00  0.00    +0.000 HD
ENDBRANCH  18  20
ENDBRANCH  13  14
ENDBRANCH   1  13
TORSDOF 7
ENDMDL
MODEL 3
REMARK VINA RESULT:    -6.779      1.906      2.528
REMARK INTER + INTRA:         -10.226
REMARK INTER:                  -9.578
REMARK INTRA:                  -0.648
REMARK UNBOUND:                -0.673
REMARK  Name = 
REMARK  9 active torsions:
REMARK  status: ('A' for Active; 'I' for Inactive)
REMARK    1  A    between atoms: C_1  and  C_2
REMARK    2  A    between atoms: C_2  and  N_3
REMARK    3  A    between atoms: N_3  and  C_4
REMARK    4  A    between atoms: N_3  and  C_15
REMARK    5  A    between atoms: C_4  and  C_5
REMARK    6  A    between atoms: C_5  and  C_6
REMARK    7  A    between atoms: C_10  and  C_11
REMARK    8  A    between atoms: C_19  and  O_20
REMARK    9  A    between atoms: O_20  and  C_21
REMARK                            x       y       z     vdW  Elec       q    Type
REMARK                         _______ _______ _______ _____ _____    ______ ____
ROOT
ATOM      1  C   UNL     1      45.209   6.721  10.903  0.00  0.00    +0.000 C 
ENDROOT
BRANCH   1   2
ATOM      2  N   UNL     1      44.319   5.530  10.828  0.00  0.00    +0.000 N 
BRANCH   2   3
ATOM      3  C   UNL     1      44.705   4.479   9.975  0.00  0.00    +0.000 A 
ATOM      4  C   UNL     1      44.326   3.144  10.220  0.00  0.00    +0.000 A 
ATOM      5  C   UNL     1      44.686   2.093   9.369  0.00  0.00    +0.000 A 
ATOM      6  C   UNL     1      45.427   2.344   8.223  0.00  0.00    +0.000 A 
ATOM      7  C   UNL     1      45.799   3.651   7.927  0.00  0.00    +0.000 A 
ATOM      8  C   UNL     1      45.461   4.692   8.808  0.00  0.00    +0.000 A 
BRANCH   7   9
ATOM      9  O   UNL     1      46.514   4.025   6.819  0.00  0.00    +0.000 OA
ATOM     10  C   UNL     1      46.772   2.981   5.886  0.00  0.00    +0.000 C 
ENDBRANCH   7   9
ENDBRANCH   2   3
BRANCH   2  12
ATOM     11  C   UNL     1      42.856   4.974  12.774  0.00  0.00    +0.000 C 
ATOM     12  C   UNL     1      42.952   5.560  11.371  0.00  0.00    +0.000 C 
ENDBRANCH   2  12
ENDBRANCH   1   2
BRANCH   1  13
ATOM     13  C   UNL     1      45.178   7.507  12.212  0.00  0.00    +0.000 C 
BRANCH  13  14
ATOM     14  C   UNL     1      46.261   7.070  13.173  0.00  0.00    +0.000 A 
ATOM     15  N   UNL     1      47.278   7.918  13.430  0.00  0.00    +0.000 NA
ATOM     16  C   UNL     1      48.291   7.463  14.196  0.00  0.00    +0.000 A 
ATOM     17  C   UNL     1      48.339   6.187  14.705  0.00  0.00    +0.000 A 
ATOM     18  C   UNL     1      47.253   5.402  14.393  0.00  0.00    +0.000 A 
ATOM     19  N   UNL     1      46.200   5.809  13.637  0.00  0.00    +0.000 NA
BRANCH  18  20
ATOM     20  C   UNL     1      47.211   3.987  14.878  0.00  0.00    +0.000 C 
ATOM     21  N   UNL     1      46.959   3.832  16.213  0.00  0.00    +0.000 N 
ATOM     22  O   UNL     1      47.384   3.029  14.136  0.00  0.00    +0.000 OA
ATOM     23  H   UNL     1      46.806   4.647  16.796  0.00  0.00    +0.000 HD
ATOM     24  H   UNL     1      46.894   2.903  16.605  0.00  0.00    +0.000 HD
ENDBRANCH  18  20
ENDBRANCH  13  14
ENDBRANCH   1  13
TORSDOF 7
ENDMDL
MODEL 4
REMARK VINA RESULT:    -6.642      1.470      2.425
REMARK INTER + INTRA:         -10.033
REMARK INTER:                  -9.310
REMARK INTRA:                  -0.723
REMARK UNBOUND:                -0.673
REMARK  Name = 
REMARK  9 active torsions:
REMARK  status: ('A' for Active; 'I' for Inactive)
REMARK    1  A    between atoms: C_1  and  C_2
REMARK    2  A    between atoms: C_2  and  N_3
REMARK    3  A    between atoms: N_3  and  C_4
REMARK    4  A    between atoms: N_3  and  C_15
REMARK    5  A    between atoms: C_4  and  C_5
REMARK    6  A    between atoms: C_5  and  C_6
REMARK    7  A    between atoms: C_10  and  C_11
REMARK    8  A    between atoms: C_19  and  O_20
REMARK    9  A    between atoms: O_20  and  C_21
REMARK                            x       y       z     vdW  Elec       q    Type
REMARK                         _______ _______ _______ _____ _____    ______ ____
ROOT
ATOM      1  C   UNL     1      45.395   4.682  12.268  0.00  0.00    +0.000 C 
ENDROOT
BRANCH   1   2
ATOM      2  N   UNL     1      44.469   4.148  11.232  0.00  0.00    +0.000 N 
BRANCH   2   3
ATOM      3  C   UNL     1      45.025   3.744  10.004  0.00  0.00    +0.000 A 
ATOM      4  C   UNL     1      45.467   4.675   9.044  0.00  0.00    +0.000 A 
ATOM      5  C   UNL     1      46.041   4.286   7.828  0.00  0.00    +0.000 A 
ATOM      6  C   UNL     1      46.211   2.939   7.535  0.00  0.00    +0.000 A 
ATOM      7  C   UNL     1      45.814   1.986   8.465  0.00  0.00    +0.000 A 
ATOM      8  C   UNL     1      45.208   2.390   9.668  0.00  0.00    +0.000 A 
BRANCH   7   9
ATOM      9  O   UNL     1      45.946   0.632   8.299  0.00  0.00    +0.000 OA
ATOM     10  C   UNL     1      46.974   0.232   7.398  0.00  0.00    +0.000 C 
ENDBRANCH   7   9
ENDBRANCH   2   3
BRANCH   2  12
ATOM     11  C   UNL     1      42.604   5.718  11.773  0.00  0.00    +0.000 C 
ATOM     12  C   UNL     1      43.011   4.313  11.350  0.00  0.00    +0.000 C 
ENDBRANCH   2  12
ENDBRANCH   1   2
BRANCH   1  13
ATOM     13  C   UNL     1      46.053   3.651  13.183  0.00  0.00    +0.000 C 
BRANCH  13  14
ATOM     14  C   UNL     1      46.939   4.290  14.228  0.00  0.00    +0.000 A 
ATOM     15  N   UNL     1      47.056   3.690  15.431  0.00  0.00    +0.000 NA
ATOM     16  C   UNL     1      47.756   4.338  16.386  0.00  0.00    +0.000 A 
ATOM     17  C   UNL     1      48.332   5.571  16.194  0.00  0.00    +0.000 A 
ATOM     18  C   UNL     1      48.163   6.095  14.934  0.00  0.00    +0.000 A 
ATOM     19  N   UNL     1      47.480   5.485  13.931  0.00  0.00    +0.000 NA
BRANCH  18  20
ATOM     20  C   UNL     1      48.732   7.443  14.621  0.00  0.00    +0.000 C 
ATOM     21  N   UNL     1      47.872   8.494  14.784  0.00  0.00    +0.000 N 
ATOM     22  O   UNL     1      49.887   7.603  14.248  0.00  0.00    +0.000 OA
ATOM     23  H   UNL     1      46.926   8.328  15.108  0.00  0.00    +0.000 HD
ATOM     24  H   UNL     1      48.195   9.436  14.612  0.00  0.00    +0.000 HD
ENDBRANCH  18  20
ENDBRANCH  13  14
ENDBRANCH   1  13
TORSDOF 7
ENDMDL
MODEL 5
REMARK VINA RESULT:    -6.537      3.588      7.694
REMARK INTER + INTRA:          -9.885
REMARK INTER:                  -9.021
REMARK INTRA:                  -0.864
REMARK UNBOUND:                -0.673
REMARK  Name = 
REMARK  9 active torsions:
REMARK  status: ('A' for Active; 'I' for Inactive)
REMARK    1  A    between atoms: C_1  and  C_2
REMARK    2  A    between atoms: C_2  and  N_3
REMARK    3  A    between atoms: N_3  and  C_4
REMARK    4  A    between atoms: N_3  and  C_15
REMARK    5  A    between atoms: C_4  and  C_5
REMARK    6  A    between atoms: C_5  and  C_6
REMARK    7  A    between atoms: C_10  and  C_11
REMARK    8  A    between atoms: C_19  and  O_20
REMARK    9  A    between atoms: O_20  and  C_21
REMARK                            x       y       z     vdW  Elec       q    Type
REMARK                         _______ _______ _______ _____ _____    ______ ____
ROOT
ATOM      1  C   UNL     1      44.390   5.371  10.914  0.00  0.00    +0.000 C 
ENDROOT
BRANCH   1   2
ATOM      2  N   UNL     1      45.123   5.687  12.169  0.00  0.00    +0.000 N 
BRANCH   2   3
ATOM      3  C   UNL     1      45.953   6.823  12.173  0.00  0.00    +0.000 A 
ATOM      4  C   UNL     1      47.358   6.719  12.136  0.00  0.00    +0.000 A 
ATOM      5  C   UNL     1      48.195   7.841  12.119  0.00  0.00    +0.000 A 
ATOM      6  C   UNL     1      47.650   9.118  12.118  0.00  0.00    +0.000 A 
ATOM      7  C   UNL     1      46.268   9.268  12.126  0.00  0.00    +0.000 A 
ATOM      8  C   UNL     1      45.441   8.133  12.179  0.00  0.00    +0.000 A 
BRANCH   7   9
ATOM      9  O   UNL     1      45.615  10.473  12.110  0.00  0.00    +0.000 OA
ATOM     10  C   UNL     1      44.302  10.440  11.559  0.00  0.00    +0.000 C 
ENDBRANCH   7   9
ENDBRANCH   2   3
BRANCH   2  12
ATOM     11  C   UNL     1      45.993   3.451  12.864  0.00  0.00    +0.000 C 
ATOM     12  C   UNL     1      45.228   4.707  13.262  0.00  0.00    +0.000 C 
ENDBRANCH   2  12
ENDBRANCH   1   2
BRANCH   1  13
ATOM     13  C   UNL     1      45.213   5.385   9.627  0.00  0.00    +0.000 C 
BRANCH  13  14
ATOM     14  C   UNL     1      45.374   4.005   9.031  0.00  0.00    +0.000 A 
ATOM     15  N   UNL     1      44.708   2.975   9.592  0.00  0.00    +0.000 NA
ATOM     16  C   UNL     1      44.958   1.737   9.118  0.00  0.00    +0.000 A 
ATOM     17  C   UNL     1      45.863   1.481   8.115  0.00  0.00    +0.000 A 
ATOM     18  C   UNL     1      46.485   2.596   7.604  0.00  0.00    +0.000 A 
ATOM     19  N   UNL     1      46.265   3.866   8.032  0.00  0.00    +0.000 NA
BRANCH  18  20
ATOM     20  C   UNL     1      47.505   2.431   6.521  0.00  0.00    +0.000 C 
ATOM     21  N   UNL     1      47.315   3.210   5.414  0.00  0.00    +0.000 N 
ATOM     22  O   UNL     1      48.450   1.658   6.615  0.00  0.00    +0.000 OA
ATOM     23  H   UNL     1      46.531   3.851   5.375  0.00  0.00    +0.000 HD
ATOM     24  H   UNL     1      47.978   3.168   4.653  0.00  0.00    +0.000 HD
ENDBRANCH  18  20
ENDBRANCH  13  14
ENDBRANCH   1  13
TORSDOF 7
ENDMDL
MODEL 6
REMARK VINA RESULT:    -6.510      2.995      7.593
REMARK INTER + INTRA:          -9.846
REMARK INTER:                  -9.166
REMARK INTRA:                  -0.681
REMARK UNBOUND:                -0.673
REMARK  Name = 
REMARK  9 active torsions:
REMARK  status: ('A' for Active; 'I' for Inactive)
REMARK    1  A    between atoms: C_1  and  C_2
REMARK    2  A    between atoms: C_2  and  N_3
REMARK    3  A    between atoms: N_3  and  C_4
REMARK    4  A    between atoms: N_3  and  C_15
REMARK    5  A    between atoms: C_4  and  C_5
REMARK    6  A    between atoms: C_5  and  C_6
REMARK    7  A    between atoms: C_10  and  C_11
REMARK    8  A    between atoms: C_19  and  O_20
REMARK    9  A    between atoms: O_20  and  C_21
REMARK                            x       y       z     vdW  Elec       q    Type
REMARK                         _______ _______ _______ _____ _____    ______ ____
ROOT
ATOM      1  C   UNL     1      44.311   5.586  10.869  0.00  0.00    +0.000 C 
ENDROOT
BRANCH   1   2
ATOM      2  N   UNL     1      44.745   5.567  12.292  0.00  0.00    +0.000 N 
BRANCH   2   3
ATOM      3  C   UNL     1      45.722   6.498  12.690  0.00  0.00    +0.000 A 
ATOM      4  C   UNL     1      45.497   7.887  12.626  0.00  0.00    +0.000 A 
ATOM      5  C   UNL     1      46.453   8.823  13.038  0.00  0.00    +0.000 A 
ATOM      6  C   UNL     1      47.671   8.398  13.550  0.00  0.00    +0.000 A 
ATOM      7  C   UNL     1      47.926   7.036  13.656  0.00  0.00    +0.000 A 
ATOM      8  C   UNL     1      46.971   6.108  13.207  0.00  0.00    +0.000 A 
BRANCH   7   9
ATOM      9  O   UNL     1      49.081   6.497  14.160  0.00  0.00    +0.000 OA
ATOM     10  C   UNL     1      49.969   7.430  14.767  0.00  0.00    +0.000 C 
ENDBRANCH   7   9
ENDBRANCH   2   3
BRANCH   2  12
ATOM     11  C   UNL     1      43.429   3.460  12.552  0.00  0.00    +0.000 C 
ATOM     12  C   UNL     1      44.409   4.442  13.180  0.00  0.00    +0.000 C 
ENDBRANCH   2  12
ENDBRANCH   1   2
BRANCH   1  13
ATOM     13  C   UNL     1      45.422   5.551   9.822  0.00  0.00    +0.000 C 
BRANCH  13  14
ATOM     14  C   UNL     1      45.511   4.216   9.118  0.00  0.00    +0.000 A 
ATOM     15  N   UNL     1      44.961   3.135   9.709  0.00  0.00    +0.000 NA
ATOM     16  C   UNL     1      45.154   1.936   9.122  0.00  0.00    +0.000 A 
ATOM     17  C   UNL     1      45.892   1.767   7.975  0.00  0.00    +0.000 A 
ATOM     18  C   UNL     1      46.406   2.928   7.446  0.00  0.00    +0.000 A 
ATOM     19  N   UNL     1      46.234   4.163   7.985  0.00  0.00    +0.000 NA
BRANCH  18  20
ATOM     20  C   UNL     1      47.244   2.859   6.208  0.00  0.00    +0.000 C 
ATOM     21  N   UNL     1      48.582   2.665   6.415  0.00  0.00    +0.000 N 
ATOM     22  O   UNL     1      46.771   2.963   5.083  0.00  0.00    +0.000 OA
ATOM     23  H   UNL     1      48.938   2.568   7.359  0.00  0.00    +0.000 HD
ATOM     24  H   UNL     1      49.204   2.586   5.623  0.00  0.00    +0.000 HD
ENDBRANCH  18  20
ENDBRANCH  13  14
ENDBRANCH   1  13
TORSDOF 7
ENDMDL
MODEL 7
REMARK VINA RESULT:    -6.202      3.860      4.556
REMARK INTER + INTRA:          -9.413
REMARK INTER:                  -8.684
REMARK INTRA:                  -0.729
REMARK UNBOUND:                -0.673
REMARK  Name = 
REMARK  9 active torsions:
REMARK  status: ('A' for Active; 'I' for Inactive)
REMARK    1  A    between atoms: C_1  and  C_2
REMARK    2  A    between atoms: C_2  and  N_3
REMARK    3  A    between atoms: N_3  and  C_4
REMARK    4  A    between atoms: N_3  and  C_15
REMARK    5  A    between atoms: C_4  and  C_5
REMARK    6  A    between atoms: C_5  and  C_6
REMARK    7  A    between atoms: C_10  and  C_11
REMARK    8  A    between atoms: C_19  and  O_20
REMARK    9  A    between atoms: O_20  and  C_21
REMARK                            x       y       z     vdW  Elec       q    Type
REMARK                         _______ _______ _______ _____ _____    ______ ____
ROOT
ATOM      1  C   UNL     1      45.194   6.611  11.059  0.00  0.00    +0.000 C 
ENDROOT
BRANCH   1   2
ATOM      2  N   UNL     1      44.316   5.416  10.929  0.00  0.00    +0.000 N 
BRANCH   2   3
ATOM      3  C   UNL     1      44.717   4.404  10.036  0.00  0.00    +0.000 A 
ATOM      4  C   UNL     1      44.363   3.055  10.233  0.00  0.00    +0.000 A 
ATOM      5  C   UNL     1      44.738   2.042   9.342  0.00  0.00    +0.000 A 
ATOM      6  C   UNL     1      45.469   2.350   8.202  0.00  0.00    +0.000 A 
ATOM      7  C   UNL     1      45.817   3.673   7.954  0.00  0.00    +0.000 A 
ATOM      8  C   UNL     1      45.464   4.674   8.875  0.00  0.00    +0.000 A 
BRANCH   7   9
ATOM      9  O   UNL     1      46.520   4.101   6.859  0.00  0.00    +0.000 OA
ATOM     10  C   UNL     1      46.847   3.085   5.916  0.00  0.00    +0.000 C 
ENDBRANCH   7   9
ENDBRANCH   2   3
BRANCH   2  12
ATOM     11  C   UNL     1      42.889   5.091  12.952  0.00  0.00    +0.000 C 
ATOM     12  C   UNL     1      42.945   5.411  11.464  0.00  0.00    +0.000 C 
ENDBRANCH   2  12
ENDBRANCH   1   2
BRANCH   1  13
ATOM     13  C   UNL     1      46.132   6.634  12.264  0.00  0.00    +0.000 C 
BRANCH  13  14
ATOM     14  C   UNL     1      47.175   7.724  12.163  0.00  0.00    +0.000 A 
ATOM     15  N   UNL     1      46.765   9.009  12.132  0.00  0.00    +0.000 NA
ATOM     16  C   UNL     1      47.702   9.958  11.924  0.00  0.00    +0.000 A 
ATOM     17  C   UNL     1      49.033   9.674  11.727  0.00  0.00    +0.000 A 
ATOM     18  C   UNL     1      49.351   8.338  11.783  0.00  0.00    +0.000 A 
ATOM     19  N   UNL     1      48.454   7.341  12.002  0.00  0.00    +0.000 NA
BRANCH  18  20
ATOM     20  C   UNL     1      50.769   7.914  11.562  0.00  0.00    +0.000 C 
ATOM     21  N   UNL     1      51.605   8.087  12.629  0.00  0.00    +0.000 N 
ATOM     22  O   UNL     1      51.159   7.441  10.502  0.00  0.00    +0.000 OA
ATOM     23  H   UNL     1      51.246   8.468  13.497  0.00  0.00    +0.000 HD
ATOM     24  H   UNL     1      52.572   7.801  12.558  0.00  0.00    +0.000 HD
ENDBRANCH  18  20
ENDBRANCH  13  14
ENDBRANCH   1  13
TORSDOF 7
ENDMDL
MODEL 8
REMARK VINA RESULT:    -6.192      1.982      3.390
REMARK INTER + INTRA:          -9.399
REMARK INTER:                  -8.640
REMARK INTRA:                  -0.759
REMARK UNBOUND:                -0.673
REMARK  Name = 
REMARK  9 active torsions:
REMARK  status: ('A' for Active; 'I' for Inactive)
REMARK    1  A    between atoms: C_1  and  C_2
REMARK    2  A    between atoms: C_2  and  N_3
REMARK    3  A    between atoms: N_3  and  C_4
REMARK    4  A    between atoms: N_3  and  C_15
REMARK    5  A    between atoms: C_4  and  C_5
REMARK    6  A    between atoms: C_5  and  C_6
REMARK    7  A    between atoms: C_10  and  C_11
REMARK    8  A    between atoms: C_19  and  O_20
REMARK    9  A    between atoms: O_20  and  C_21
REMARK                            x       y       z     vdW  Elec       q    Type
REMARK                         _______ _______ _______ _____ _____    ______ ____
ROOT
ATOM      1  C   UNL     1      47.543   5.834  13.339  0.00  0.00    +0.000 C 
ENDROOT
BRANCH   1   2
ATOM      2  N   UNL     1      46.377   6.429  12.631  0.00  0.00    +0.000 N 
BRANCH   2   3
ATOM      3  C   UNL     1      45.328   5.568  12.259  0.00  0.00    +0.000 A 
ATOM      4  C   UNL     1      44.256   5.283  13.127  0.00  0.00    +0.000 A 
ATOM      5  C   UNL     1      43.196   4.444  12.761  0.00  0.00    +0.000 A 
ATOM      6  C   UNL     1      43.162   3.872  11.497  0.00  0.00    +0.000 A 
ATOM      7  C   UNL     1      44.186   4.148  10.598  0.00  0.00    +0.000 A 
ATOM      8  C   UNL     1      45.262   4.964  10.990  0.00  0.00    +0.000 A 
BRANCH   7   9
ATOM      9  O   UNL     1      44.255   3.658   9.320  0.00  0.00    +0.000 OA
ATOM     10  C   UNL     1      45.274   4.232   8.507  0.00  0.00    +0.000 C 
ENDBRANCH   7   9
ENDBRANCH   2   3
BRANCH   2  12
ATOM     11  C   UNL     1      45.540   8.776  12.806  0.00  0.00    +0.000 C 
ATOM     12  C   UNL     1      46.435   7.788  12.069  0.00  0.00    +0.000 C 
ENDBRANCH   2  12
ENDBRANCH   1   2
BRANCH   1  13
ATOM     13  C   UNL     1      48.387   6.791  14.177  0.00  0.00    +0.000 C 
BRANCH  13  14
ATOM     14  C   UNL     1      48.882   6.155  15.457  0.00  0.00    +0.000 A 
ATOM     15  N   UNL     1      50.126   6.450  15.888  0.00  0.00    +0.000 NA
ATOM     16  C   UNL     1      50.588   5.782  16.965  0.00  0.00    +0.000 A 
ATOM     17  C   UNL     1      49.864   4.816  17.622  0.00  0.00    +0.000 A 
ATOM     18  C   UNL     1      48.607   4.592  17.112  0.00  0.00    +0.000 A 
ATOM     19  N   UNL     1      48.084   5.241  16.039  0.00  0.00    +0.000 NA
BRANCH  18  20
ATOM     20  C   UNL     1      47.740   3.545  17.738  0.00  0.00    +0.000 C 
ATOM     21  N   UNL     1      48.208   3.022  18.911  0.00  0.00    +0.000 N 
ATOM     22  O   UNL     1      46.682   3.180  17.241  0.00  0.00    +0.000 OA
ATOM     23  H   UNL     1      49.081   3.357  19.302  0.00  0.00    +0.000 HD
ATOM     24  H   UNL     1      47.662   2.326  19.401  0.00  0.00    +0.000 HD
ENDBRANCH  18  20
ENDBRANCH  13  14
ENDBRANCH   1  13
TORSDOF 7
ENDMDL
MODEL 9
REMARK VINA RESULT:    -6.177      2.465      7.134
REMARK INTER + INTRA:          -9.378
REMARK INTER:                  -8.385
REMARK INTRA:                  -0.993
REMARK UNBOUND:                -0.673
REMARK  Name = 
REMARK  9 active torsions:
REMARK  status: ('A' for Active; 'I' for Inactive)
REMARK    1  A    between atoms: C_1  and  C_2
REMARK    2  A    between atoms: C_2  and  N_3
REMARK    3  A    between atoms: N_3  and  C_4
REMARK    4  A    between atoms: N_3  and  C_15
REMARK    5  A    between atoms: C_4  and  C_5
REMARK    6  A    between atoms: C_5  and  C_6
REMARK    7  A    between atoms: C_10  and  C_11
REMARK    8  A    between atoms: C_19  and  O_20
REMARK    9  A    between atoms: O_20  and  C_21
REMARK                            x       y       z     vdW  Elec       q    Type
REMARK                         _______ _______ _______ _____ _____    ______ ____
ROOT
ATOM      1  C   UNL     1      45.915   7.802  12.977  0.00  0.00    +0.000 C 
ENDROOT
BRANCH   1   2
ATOM      2  N   UNL     1      47.207   7.066  12.914  0.00  0.00    +0.000 N 
BRANCH   2   3
ATOM      3  C   UNL     1      47.681   6.475  14.100  0.00  0.00    +0.000 A 
ATOM      4  C   UNL     1      48.635   7.109  14.920  0.00  0.00    +0.000 A 
ATOM      5  C   UNL     1      49.098   6.541  16.112  0.00  0.00    +0.000 A 
ATOM      6  C   UNL     1      48.606   5.315  16.539  0.00  0.00    +0.000 A 
ATOM      7  C   UNL     1      47.643   4.666  15.775  0.00  0.00    +0.000 A 
ATOM      8  C   UNL     1      47.212   5.232  14.563  0.00  0.00    +0.000 A 
BRANCH   7   9
ATOM      9  O   UNL     1      47.071   3.464  16.101  0.00  0.00    +0.000 OA
ATOM     10  C   UNL     1      47.289   3.035  17.442  0.00  0.00    +0.000 C 
ENDBRANCH   7   9
ENDBRANCH   2   3
BRANCH   2  12
ATOM     11  C   UNL     1      48.758   8.574  11.665  0.00  0.00    +0.000 C 
ATOM     12  C   UNL     1      48.109   7.200  11.758  0.00  0.00    +0.000 C 
ENDBRANCH   2  12
ENDBRANCH   1   2
BRANCH   1  13
ATOM     13  C   UNL     1      44.944   7.564  11.822  0.00  0.00    +0.000 C 
BRANCH  13  14
ATOM     14  C   UNL     1      44.412   6.149  11.798  0.00  0.00    +0.000 A 
ATOM     15  N   UNL     1      43.912   5.626  12.936  0.00  0.00    +0.000 NA
ATOM     16  C   UNL     1      43.553   4.326  12.920  0.00  0.00    +0.000 A 
ATOM     17  C   UNL     1      43.687   3.519  11.816  0.00  0.00    +0.000 A 
ATOM     18  C   UNL     1      44.199   4.145  10.704  0.00  0.00    +0.000 A 
ATOM     19  N   UNL     1      44.567   5.453  10.657  0.00  0.00    +0.000 NA
BRANCH  18  20
ATOM     20  C   UNL     1      44.408   3.355   9.451  0.00  0.00    +0.000 C 
ATOM     21  N   UNL     1      44.237   4.049   8.285  0.00  0.00    +0.000 N 
ATOM     22  O   UNL     1      44.715   2.170   9.460  0.00  0.00    +0.000 OA
ATOM     23  H   UNL     1      43.997   5.034   8.313  0.00  0.00    +0.000 HD
ATOM     24  H   UNL     1      44.384   3.584   7.400  0.00  0.00    +0.000 HD
ENDBRANCH  18  20
ENDBRANCH  13  14
ENDBRANCH   1  13
TORSDOF 7
ENDMDL
