MODEL 1
REMARK VINA RESULT:    -8.366      0.000      0.000
REMARK INTER + INTRA:         -12.878
REMARK INTER:                 -11.789
REMARK INTRA:                  -1.089
REMARK UNBOUND:                -1.089
REMARK  Name = 
REMARK  7 active torsions:
REMARK  status: ('A' for Active; 'I' for Inactive)
REMARK    1  A    between atoms: C_2  and  C_20
REMARK    2  A    between atoms: N_3  and  C_4
REMARK    3  A    between atoms: C_4  and  C_5
REMARK    4  A    between atoms: C_8  and  N_9
REMARK    5  A    between atoms: N_9  and  C_10
REMARK    6  A    between atoms: C_10  and  C_11
REMARK    7  A    between atoms: C_11  and  C_12
REMARK                            x       y       z     vdW  Elec       q    Type
REMARK                         _______ _______ _______ _____ _____    ______ ____
ROOT
ATOM      1  C   UNL     1      46.976   6.344  12.844  0.00  0.00    +0.000 A 
ATOM      2  C   UNL     1      46.984   5.177  13.613  0.00  0.00    +0.000 A 
ATOM      3  C   UNL     1      46.222   4.068  13.233  0.00  0.00    +0.000 A 
ATOM      4  C   UNL     1      45.414   4.108  12.092  0.00  0.00    +0.000 A 
ATOM      5  C   UNL     1      45.486   5.240  11.276  0.00  0.00    +0.000 A 
ATOM      6  C   UNL     1      46.244   6.354  11.652  0.00  0.00    +0.000 A 
ENDROOT
BRANCH   4   7
ATOM      7  N   UNL     1      44.660   3.017  11.631  0.00  0.00    +0.000 N 
ATOM      8  H   UNL     1      43.980   2.765  12.348  0.00  0.00    +0.000 HD
BRANCH   7   9
ATOM      9  C   UNL     1      44.024   3.108  10.315  0.00  0.00    +0.000 C 
BRANCH   9  10
ATOM     10  C   UNL     1      44.489   1.964   9.408  0.00  0.00    +0.000 C 
BRANCH  10  11
ATOM     11  C   UNL     1      45.749   2.326   8.598  0.00  0.00    +0.000 C 
ATOM     12  C   UNL     1      45.477   3.423   7.556  0.00  0.00    +0.000 C 
ATOM     13  C   UNL     1      46.720   3.748   6.731  0.00  0.00    +0.000 C 
ATOM     14  C   UNL     1      47.298   2.505   6.062  0.00  0.00    +0.000 C 
ATOM     15  C   UNL     1      47.573   1.407   7.088  0.00  0.00    +0.000 C 
ATOM     16  C   UNL     1      46.329   1.078   7.918  0.00  0.00    +0.000 C 
ENDBRANCH  10  11
ENDBRANCH   9  10
ENDBRANCH   7   9
ENDBRANCH   4   7
BRANCH   1  17
ATOM     17  C   UNL     1      47.792   7.533  13.269  0.00  0.00    +0.000 C 
BRANCH  17  20
ATOM     18  O   UNL     1      50.096   6.976  14.794  0.00  0.00    +0.000 OA
ATOM     19  C   UNL     1      49.027   7.183  15.358  0.00  0.00    +0.000 C 
ATOM     20  N   UNL     1      47.882   7.582  14.702  0.00  0.00    +0.000 N 
ATOM     21  H   UNL     1      47.008   7.501  15.206  0.00  0.00    +0.000 HD
BRANCH  19  22
ATOM     22  C   UNL     1      48.789   6.866  16.764  0.00  0.00    +0.000 A 
ATOM     23  C   UNL     1      49.022   7.792  17.762  0.00  0.00    +0.000 A 
ATOM     24  S   UNL     1      49.060   7.078  19.309  0.00  0.00    +0.000 S 
ATOM     25  C   UNL     1      48.743   5.511  18.668  0.00  0.00    +0.000 A 
ATOM     26  C   UNL     1      48.787   4.281  19.350  0.00  0.00    +0.000 A 
ATOM     27  C   UNL     1      48.434   3.116  18.665  0.00  0.00    +0.000 A 
ATOM     28  C   UNL     1      47.965   3.177  17.362  0.00  0.00    +0.000 A 
ATOM     29  C   UNL     1      47.944   4.396  16.684  0.00  0.00    +0.000 A 
ATOM     30  C   UNL     1      48.421   5.577  17.311  0.00  0.00    +0.000 A 
ENDBRANCH  19  22
ENDBRANCH  17  20
ENDBRANCH   1  17
TORSDOF 7
ENDMDL
MODEL 2
REMARK VINA RESULT:    -7.849      1.219      1.831
REMARK INTER + INTRA:         -12.150
REMARK INTER:                 -11.064
REMARK INTRA:                  -1.086
REMARK UNBOUND:                -1.089
REMARK  Name = 
REMARK  7 active torsions:
REMARK  status: ('A' for Active; 'I' for Inactive)
REMARK    1  A    between atoms: C_2  and  C_20
REMARK    2  A    between atoms: N_3  and  C_4
REMARK    3  A    between atoms: C_4  and  C_5
REMARK    4  A    between atoms: C_8  and  N_9
REMARK    5  A    between atoms: N_9  and  C_10
REMARK    6  A    between atoms: C_10  and  C_11
REMARK    7  A    between atoms: C_11  and  C_12
REMARK                            x       y       z     vdW  Elec       q    Type
REMARK                         _______ _______ _______ _____ _____    ______ ____
ROOT
ATOM      1  C   UNL     1      47.010   8.132  13.245  0.00  0.00    +0.000 A 
ATOM      2  C   UNL     1      47.507   6.880  12.873  0.00  0.00    +0.000 A 
ATOM      3  C   UNL     1      46.769   6.044  12.029  0.00  0.00    +0.000 A 
ATOM      4  C   UNL     1      45.508   6.426  11.560  0.00  0.00    +0.000 A 
ATOM      5  C   UNL     1      45.062   7.716  11.857  0.00  0.00    +0.000 A 
ATOM      6  C   UNL     1      45.793   8.558  12.702  0.00  0.00    +0.000 A 
ENDROOT
BRANCH   4   7
ATOM      7  N   UNL     1      44.737   5.654  10.677  0.00  0.00    +0.000 N 
ATOM      8  H   UNL     1      43.923   6.200  10.394  0.00  0.00    +0.000 HD
BRANCH   7   9
ATOM      9  C   UNL     1      45.393   5.049   9.516  0.00  0.00    +0.000 C 
BRANCH   9  10
ATOM     10  C   UNL     1      44.473   4.023   8.847  0.00  0.00    +0.000 C 
BRANCH  10  11
ATOM     11  C   UNL     1      45.239   3.059   7.919  0.00  0.00    +0.000 C 
ATOM     12  C   UNL     1      45.755   1.818   8.665  0.00  0.00    +0.000 C 
ATOM     13  C   UNL     1      46.546   0.888   7.748  0.00  0.00    +0.000 C 
ATOM     14  C   UNL     1      47.696   1.616   7.058  0.00  0.00    +0.000 C 
ATOM     15  C   UNL     1      47.195   2.852   6.313  0.00  0.00    +0.000 C 
ATOM     16  C   UNL     1      46.401   3.787   7.229  0.00  0.00    +0.000 C 
ENDBRANCH  10  11
ENDBRANCH   9  10
ENDBRANCH   7   9
ENDBRANCH   4   7
BRANCH   1  17
ATOM     17  C   UNL     1      47.809   9.019  14.161  0.00  0.00    +0.000 C 
BRANCH  17  20
ATOM     18  O   UNL     1      50.081   7.808  15.308  0.00  0.00    +0.000 OA
ATOM     19  C   UNL     1      49.007   7.770  15.897  0.00  0.00    +0.000 C 
ATOM     20  N   UNL     1      47.877   8.436  15.473  0.00  0.00    +0.000 N 
ATOM     21  H   UNL     1      46.995   8.161  15.884  0.00  0.00    +0.000 HD
BRANCH  19  22
ATOM     22  C   UNL     1      48.743   6.877  17.023  0.00  0.00    +0.000 A 
ATOM     23  C   UNL     1      49.051   7.239  18.319  0.00  0.00    +0.000 A 
ATOM     24  S   UNL     1      49.030   5.908  19.384  0.00  0.00    +0.000 S 
ATOM     25  C   UNL     1      48.585   4.821  18.124  0.00  0.00    +0.000 A 
ATOM     26  C   UNL     1      48.527   3.417  18.186  0.00  0.00    +0.000 A 
ATOM     27  C   UNL     1      48.080   2.710  17.067  0.00  0.00    +0.000 A 
ATOM     28  C   UNL     1      47.618   3.381  15.945  0.00  0.00    +0.000 A 
ATOM     29  C   UNL     1      47.697   4.773  15.883  0.00  0.00    +0.000 A 
ATOM     30  C   UNL     1      48.270   5.510  16.952  0.00  0.00    +0.000 A 
ENDBRANCH  19  22
ENDBRANCH  17  20
ENDBRANCH   1  17
TORSDOF 7
ENDMDL
MODEL 3
REMARK VINA RESULT:    -7.598      1.156      2.384
REMARK INTER + INTRA:         -11.797
REMARK INTER:                 -10.750
REMARK INTRA:                  -1.046
REMARK UNBOUND:                -1.089
REMARK  Name = 
REMARK  7 active torsions:
REMARK  status: ('A' for Active; 'I' for Inactive)
REMARK    1  A    between atoms: C_2  and  C_20
REMARK    2  A    between atoms: N_3  and  C_4
REMARK    3  A    between atoms: C_4  and  C_5
REMARK    4  A    between atoms: C_8  and  N_9
REMARK    5  A    between atoms: N_9  and  C_10
REMARK    6  A    between atoms: C_10  and  C_11
REMARK    7  A    between atoms: C_11  and  C_12
REMARK                            x       y       z     vdW  Elec       q    Type
REMARK                         _______ _______ _______ _____ _____    ______ ____
ROOT
ATOM      1  C   UNL     1      47.115   6.443  12.889  0.00  0.00    +0.000 A 
ATOM      2  C   UNL     1      46.460   6.790  11.705  0.00  0.00    +0.000 A 
ATOM      3  C   UNL     1      45.433   5.987  11.197  0.00  0.00    +0.000 A 
ATOM      4  C   UNL     1      45.057   4.805  11.846  0.00  0.00    +0.000 A 
ATOM      5  C   UNL     1      45.649   4.516  13.078  0.00  0.00    +0.000 A 
ATOM      6  C   UNL     1      46.678   5.314  13.590  0.00  0.00    +0.000 A 
ENDROOT
BRANCH   4   7
ATOM      7  N   UNL     1      44.008   3.979  11.414  0.00  0.00    +0.000 N 
ATOM      8  H   UNL     1      43.128   4.362  11.761  0.00  0.00    +0.000 HD
BRANCH   7   9
ATOM      9  C   UNL     1      43.912   3.650   9.990  0.00  0.00    +0.000 C 
BRANCH   9  10
ATOM     10  C   UNL     1      44.607   2.318   9.693  0.00  0.00    +0.000 C 
BRANCH  10  11
ATOM     11  C   UNL     1      45.815   2.479   8.749  0.00  0.00    +0.000 C 
ATOM     12  C   UNL     1      45.584   3.566   7.687  0.00  0.00    +0.000 C 
ATOM     13  C   UNL     1      46.768   3.692   6.732  0.00  0.00    +0.000 C 
ATOM     14  C   UNL     1      47.107   2.359   6.071  0.00  0.00    +0.000 C 
ATOM     15  C   UNL     1      47.340   1.271   7.117  0.00  0.00    +0.000 C 
ATOM     16  C   UNL     1      46.154   1.141   8.078  0.00  0.00    +0.000 C 
ENDBRANCH  10  11
ENDBRANCH   9  10
ENDBRANCH   7   9
ENDBRANCH   4   7
BRANCH   1  17
ATOM     17  C   UNL     1      48.224   7.310  13.420  0.00  0.00    +0.000 C 
BRANCH  17  20
ATOM     18  O   UNL     1      50.462   6.842  15.069  0.00  0.00    +0.000 OA
ATOM     19  C   UNL     1      49.347   6.943  15.569  0.00  0.00    +0.000 C 
ATOM     20  N   UNL     1      48.218   7.291  14.857  0.00  0.00    +0.000 N 
ATOM     21  H   UNL     1      47.323   7.122  15.296  0.00  0.00    +0.000 HD
BRANCH  19  22
ATOM     22  C   UNL     1      49.043   6.539  16.940  0.00  0.00    +0.000 A 
ATOM     23  C   UNL     1      48.940   5.208  17.294  0.00  0.00    +0.000 A 
ATOM     24  S   UNL     1      48.196   5.000  18.813  0.00  0.00    +0.000 S 
ATOM     25  C   UNL     1      48.017   6.699  19.033  0.00  0.00    +0.000 A 
ATOM     26  C   UNL     1      47.297   7.360  20.045  0.00  0.00    +0.000 A 
ATOM     27  C   UNL     1      47.323   8.756  20.090  0.00  0.00    +0.000 A 
ATOM     28  C   UNL     1      48.113   9.477  19.208  0.00  0.00    +0.000 A 
ATOM     29  C   UNL     1      48.808   8.817  18.194  0.00  0.00    +0.000 A 
ATOM     30  C   UNL     1      48.696   7.410  18.042  0.00  0.00    +0.000 A 
ENDBRANCH  19  22
ENDBRANCH  17  20
ENDBRANCH   1  17
TORSDOF 7
ENDMDL
MODEL 4
REMARK VINA RESULT:    -7.171      3.224      5.453
REMARK INTER + INTRA:         -11.194
REMARK INTER:                  -9.939
REMARK INTRA:                  -1.256
REMARK UNBOUND:                -1.089
REMARK  Name = 
REMARK  7 active torsions:
REMARK  status: ('A' for Active; 'I' for Inactive)
REMARK    1  A    between atoms: C_2  and  C_20
REMARK    2  A    between atoms: N_3  and  C_4
REMARK    3  A    between atoms: C_4  and  C_5
REMARK    4  A    between atoms: C_8  and  N_9
REMARK    5  A    between atoms: N_9  and  C_10
REMARK    6  A    between atoms: C_10  and  C_11
REMARK    7  A    between atoms: C_11  and  C_12
REMARK                            x       y       z     vdW  Elec       q    Type
REMARK                         _______ _______ _______ _____ _____    ______ ____
ROOT
ATOM      1  C   UNL     1      47.583   6.130  12.900  0.00  0.00    +0.000 A 
ATOM      2  C   UNL     1      46.887   6.478  11.739  0.00  0.00    +0.000 A 
ATOM      3  C   UNL     1      45.716   5.802  11.381  0.00  0.00    +0.000 A 
ATOM      4  C   UNL     1      45.229   4.746  12.159  0.00  0.00    +0.000 A 
ATOM      5  C   UNL     1      45.874   4.469  13.366  0.00  0.00    +0.000 A 
ATOM      6  C   UNL     1      47.047   5.139  13.730  0.00  0.00    +0.000 A 
ENDROOT
BRANCH   4   7
ATOM      7  N   UNL     1      44.038   4.057  11.880  0.00  0.00    +0.000 N 
ATOM      8  H   UNL     1      43.337   4.730  11.570  0.00  0.00    +0.000 HD
BRANCH   7   9
ATOM      9  C   UNL     1      44.089   2.901  10.982  0.00  0.00    +0.000 C 
BRANCH   9  10
ATOM     10  C   UNL     1      44.208   3.353   9.523  0.00  0.00    +0.000 C 
BRANCH  10  11
ATOM     11  C   UNL     1      45.526   2.895   8.868  0.00  0.00    +0.000 C 
ATOM     12  C   UNL     1      45.873   3.720   7.618  0.00  0.00    +0.000 C 
ATOM     13  C   UNL     1      47.158   3.235   6.952  0.00  0.00    +0.000 C 
ATOM     14  C   UNL     1      47.096   1.749   6.614  0.00  0.00    +0.000 C 
ATOM     15  C   UNL     1      46.752   0.918   7.849  0.00  0.00    +0.000 C 
ATOM     16  C   UNL     1      45.464   1.402   8.521  0.00  0.00    +0.000 C 
ENDBRANCH  10  11
ENDBRANCH   9  10
ENDBRANCH   7   9
ENDBRANCH   4   7
BRANCH   1  17
ATOM     17  C   UNL     1      48.846   6.858  13.269  0.00  0.00    +0.000 C 
BRANCH  17  20
ATOM     18  O   UNL     1      47.739   9.091  14.584  0.00  0.00    +0.000 OA
ATOM     19  C   UNL     1      48.144   9.201  13.432  0.00  0.00    +0.000 C 
ATOM     20  N   UNL     1      48.809   8.200  12.756  0.00  0.00    +0.000 N 
ATOM     21  H   UNL     1      48.893   8.296  11.753  0.00  0.00    +0.000 HD
BRANCH  19  22
ATOM     22  C   UNL     1      47.821  10.339  12.574  0.00  0.00    +0.000 A 
ATOM     23  C   UNL     1      48.731  11.353  12.348  0.00  0.00    +0.000 A 
ATOM     24  S   UNL     1      48.003  12.734  11.664  0.00  0.00    +0.000 S 
ATOM     25  C   UNL     1      46.451  11.987  11.642  0.00  0.00    +0.000 A 
ATOM     26  C   UNL     1      45.215  12.590  11.346  0.00  0.00    +0.000 A 
ATOM     27  C   UNL     1      44.065  11.796  11.319  0.00  0.00    +0.000 A 
ATOM     28  C   UNL     1      44.151  10.423  11.494  0.00  0.00    +0.000 A 
ATOM     29  C   UNL     1      45.376   9.835  11.808  0.00  0.00    +0.000 A 
ATOM     30  C   UNL     1      46.538  10.633  11.972  0.00  0.00    +0.000 A 
ENDBRANCH  19  22
ENDBRANCH  17  20
ENDBRANCH   1  17
TORSDOF 7
ENDMDL
MODEL 5
REMARK VINA RESULT:    -7.066      3.057      9.514
REMARK INTER + INTRA:         -11.046
REMARK INTER:                  -9.810
REMARK INTRA:                  -1.236
REMARK UNBOUND:                -1.089
REMARK  Name = 
REMARK  7 active torsions:
REMARK  status: ('A' for Active; 'I' for Inactive)
REMARK    1  A    between atoms: C_2  and  C_20
REMARK    2  A    between atoms: N_3  and  C_4
REMARK    3  A    between atoms: C_4  and  C_5
REMARK    4  A    between atoms: C_8  and  N_9
REMARK    5  A    between atoms: N_9  and  C_10
REMARK    6  A    between atoms: C_10  and  C_11
REMARK    7  A    between atoms: C_11  and  C_12
REMARK                            x       y       z     vdW  Elec       q    Type
REMARK                         _______ _______ _______ _____ _____    ______ ____
ROOT
ATOM      1  C   UNL     1      47.960   6.343  14.303  0.00  0.00    +0.000 A 
ATOM      2  C   UNL     1      48.962   6.864  15.127  0.00  0.00    +0.000 A 
ATOM      3  C   UNL     1      49.270   6.254  16.347  0.00  0.00    +0.000 A 
ATOM      4  C   UNL     1      48.565   5.127  16.786  0.00  0.00    +0.000 A 
ATOM      5  C   UNL     1      47.633   4.556  15.915  0.00  0.00    +0.000 A 
ATOM      6  C   UNL     1      47.319   5.162  14.694  0.00  0.00    +0.000 A 
ENDROOT
BRANCH   4   7
ATOM      7  N   UNL     1      48.852   4.443  17.977  0.00  0.00    +0.000 N 
ATOM      8  H   UNL     1      49.638   3.814  17.810  0.00  0.00    +0.000 HD
BRANCH   7   9
ATOM      9  C   UNL     1      49.054   5.219  19.203  0.00  0.00    +0.000 C 
BRANCH   9  10
ATOM     10  C   UNL     1      47.737   5.850  19.667  0.00  0.00    +0.000 C 
BRANCH  10  11
ATOM     11  C   UNL     1      47.882   7.351  19.989  0.00  0.00    +0.000 C 
ATOM     12  C   UNL     1      47.274   7.716  21.352  0.00  0.00    +0.000 C 
ATOM     13  C   UNL     1      47.385   9.210  21.646  0.00  0.00    +0.000 C 
ATOM     14  C   UNL     1      46.764  10.054  20.538  0.00  0.00    +0.000 C 
ATOM     15  C   UNL     1      47.361   9.700  19.177  0.00  0.00    +0.000 C 
ATOM     16  C   UNL     1      47.252   8.202  18.879  0.00  0.00    +0.000 C 
ENDBRANCH  10  11
ENDBRANCH   9  10
ENDBRANCH   7   9
ENDBRANCH   4   7
BRANCH   1  17
ATOM     17  C   UNL     1      47.633   7.013  12.997  0.00  0.00    +0.000 C 
BRANCH  17  20
ATOM     18  O   UNL     1      45.101   7.548  11.879  0.00  0.00    +0.000 OA
ATOM     19  C   UNL     1      45.599   6.435  11.756  0.00  0.00    +0.000 C 
ATOM     20  N   UNL     1      46.878   6.120  12.162  0.00  0.00    +0.000 N 
ATOM     21  H   UNL     1      47.113   5.138  12.234  0.00  0.00    +0.000 HD
BRANCH  19  22
ATOM     22  C   UNL     1      44.841   5.262  11.325  0.00  0.00    +0.000 A 
ATOM     23  C   UNL     1      43.937   4.639  12.162  0.00  0.00    +0.000 A 
ATOM     24  S   UNL     1      43.492   3.093  11.597  0.00  0.00    +0.000 S 
ATOM     25  C   UNL     1      44.493   3.242  10.203  0.00  0.00    +0.000 A 
ATOM     26  C   UNL     1      44.808   2.242   9.264  0.00  0.00    +0.000 A 
ATOM     27  C   UNL     1      45.593   2.577   8.158  0.00  0.00    +0.000 A 
ATOM     28  C   UNL     1      45.982   3.889   7.940  0.00  0.00    +0.000 A 
ATOM     29  C   UNL     1      45.684   4.872   8.884  0.00  0.00    +0.000 A 
ATOM     30  C   UNL     1      45.002   4.536  10.083  0.00  0.00    +0.000 A 
ENDBRANCH  19  22
ENDBRANCH  17  20
ENDBRANCH   1  17
TORSDOF 7
ENDMDL
MODEL 6
REMARK VINA RESULT:    -6.760      2.744      8.222
REMARK INTER + INTRA:         -10.616
REMARK INTER:                  -9.127
REMARK INTRA:                  -1.489
REMARK UNBOUND:                -1.089
REMARK  Name = 
REMARK  7 active torsions:
REMARK  status: ('A' for Active; 'I' for Inactive)
REMARK    1  A    between atoms: C_2  and  C_20
REMARK    2  A    between atoms: N_3  and  C_4
REMARK    3  A    between atoms: C_4  and  C_5
REMARK    4  A    between atoms: C_8  and  N_9
REMARK    5  A    between atoms: N_9  and  C_10
REMARK    6  A    between atoms: C_10  and  C_11
REMARK    7  A    between atoms: C_11  and  C_12
REMARK                            x       y       z     vdW  Elec       q    Type
REMARK                         _______ _______ _______ _____ _____    ______ ____
ROOT
ATOM      1  C   UNL     1      48.518   7.839  13.793  0.00  0.00    +0.000 A 
ATOM      2  C   UNL     1      48.623   9.017  14.538  0.00  0.00    +0.000 A 
ATOM      3  C   UNL     1      48.794   8.969  15.926  0.00  0.00    +0.000 A 
ATOM      4  C   UNL     1      48.835   7.745  16.603  0.00  0.00    +0.000 A 
ATOM      5  C   UNL     1      48.827   6.574  15.842  0.00  0.00    +0.000 A 
ATOM      6  C   UNL     1      48.655   6.614  14.455  0.00  0.00    +0.000 A 
ENDROOT
BRANCH   4   7
ATOM      7  N   UNL     1      49.048   7.626  17.986  0.00  0.00    +0.000 N 
ATOM      8  H   UNL     1      48.143   7.527  18.446  0.00  0.00    +0.000 HD
BRANCH   7   9
ATOM      9  C   UNL     1      49.995   6.618  18.467  0.00  0.00    +0.000 C 
BRANCH   9  10
ATOM     10  C   UNL     1      49.315   5.662  19.452  0.00  0.00    +0.000 C 
BRANCH  10  11
ATOM     11  C   UNL     1      49.052   4.272  18.842  0.00  0.00    +0.000 C 
ATOM     12  C   UNL     1      50.162   3.843  17.868  0.00  0.00    +0.000 C 
ATOM     13  C   UNL     1      49.875   2.483  17.238  0.00  0.00    +0.000 C 
ATOM     14  C   UNL     1      48.514   2.453  16.548  0.00  0.00    +0.000 C 
ATOM     15  C   UNL     1      47.403   2.877  17.506  0.00  0.00    +0.000 C 
ATOM     16  C   UNL     1      47.687   4.241  18.141  0.00  0.00    +0.000 C 
ENDBRANCH  10  11
ENDBRANCH   9  10
ENDBRANCH   7   9
ENDBRANCH   4   7
BRANCH   1  17
ATOM     17  C   UNL     1      48.326   7.904  12.303  0.00  0.00    +0.000 C 
BRANCH  17  20
ATOM     18  O   UNL     1      45.596   8.420  11.827  0.00  0.00    +0.000 OA
ATOM     19  C   UNL     1      46.013   7.268  11.792  0.00  0.00    +0.000 C 
ATOM     20  N   UNL     1      47.348   6.935  11.891  0.00  0.00    +0.000 N 
ATOM     21  H   UNL     1      47.570   5.967  12.085  0.00  0.00    +0.000 HD
BRANCH  19  22
ATOM     22  C   UNL     1      45.139   6.097  11.817  0.00  0.00    +0.000 A 
ATOM     23  C   UNL     1      44.428   5.752  12.949  0.00  0.00    +0.000 A 
ATOM     24  S   UNL     1      43.814   4.163  12.866  0.00  0.00    +0.000 S 
ATOM     25  C   UNL     1      44.478   3.917  11.295  0.00  0.00    +0.000 A 
ATOM     26  C   UNL     1      44.538   2.713  10.570  0.00  0.00    +0.000 A 
ATOM     27  C   UNL     1      45.063   2.730   9.276  0.00  0.00    +0.000 A 
ATOM     28  C   UNL     1      45.437   3.925   8.681  0.00  0.00    +0.000 A 
ATOM     29  C   UNL     1      45.394   5.112   9.412  0.00  0.00    +0.000 A 
ATOM     30  C   UNL     1      44.990   5.106  10.772  0.00  0.00    +0.000 A 
ENDBRANCH  19  22
ENDBRANCH  17  20
ENDBRANCH   1  17
TORSDOF 7
ENDMDL
MODEL 7
REMARK VINA RESULT:    -6.639      4.815      7.964
REMARK INTER + INTRA:         -10.445
REMARK INTER:                  -9.400
REMARK INTRA:                  -1.045
REMARK UNBOUND:                -1.089
REMARK  Name = 
REMARK  7 active torsions:
REMARK  status: ('A' for Active; 'I' for Inactive)
REMARK    1  A    between atoms: C_2  and  C_20
REMARK    2  A    between atoms: N_3  and  C_4
REMARK    3  A    between atoms: C_4  and  C_5
REMARK    4  A    between atoms: C_8  and  N_9
REMARK    5  A    between atoms: N_9  and  C_10
REMARK    6  A    between atoms: C_10  and  C_11
REMARK    7  A    between atoms: C_11  and  C_12
REMARK                            x       y       z     vdW  Elec       q    Type
REMARK                         _______ _______ _______ _____ _____    ______ ____
ROOT
ATOM      1  C   UNL     1      48.011   7.955  12.545  0.00  0.00    +0.000 A 
ATOM      2  C   UNL     1      49.191   7.262  12.261  0.00  0.00    +0.000 A 
ATOM      3  C   UNL     1      50.268   7.913  11.651  0.00  0.00    +0.000 A 
ATOM      4  C   UNL     1      50.181   9.260  11.285  0.00  0.00    +0.000 A 
ATOM      5  C   UNL     1      49.037   9.969  11.659  0.00  0.00    +0.000 A 
ATOM      6  C   UNL     1      47.955   9.325  12.268  0.00  0.00    +0.000 A 
ENDROOT
BRANCH   4   7
ATOM      7  N   UNL     1      51.239   9.982  10.710  0.00  0.00    +0.000 N 
ATOM      8  H   UNL     1      51.409  10.815  11.274  0.00  0.00    +0.000 HD
BRANCH   7   9
ATOM      9  C   UNL     1      52.492   9.282  10.418  0.00  0.00    +0.000 C 
BRANCH   9  10
ATOM     10  C   UNL     1      52.744   9.228   8.909  0.00  0.00    +0.000 C 
BRANCH  10  11
ATOM     11  C   UNL     1      53.486   7.948   8.478  0.00  0.00    +0.000 C 
ATOM     12  C   UNL     1      53.200   7.573   7.015  0.00  0.00    +0.000 C 
ATOM     13  C   UNL     1      53.905   6.282   6.607  0.00  0.00    +0.000 C 
ATOM     14  C   UNL     1      53.553   5.124   7.537  0.00  0.00    +0.000 C 
ATOM     15  C   UNL     1      53.833   5.485   8.994  0.00  0.00    +0.000 C 
ATOM     16  C   UNL     1      53.128   6.780   9.407  0.00  0.00    +0.000 C 
ENDBRANCH  10  11
ENDBRANCH   9  10
ENDBRANCH   7   9
ENDBRANCH   4   7
BRANCH   1  17
ATOM     17  C   UNL     1      46.855   7.242  13.193  0.00  0.00    +0.000 C 
BRANCH  17  20
ATOM     18  O   UNL     1      44.780   7.496  11.303  0.00  0.00    +0.000 OA
ATOM     19  C   UNL     1      45.278   6.397  11.517  0.00  0.00    +0.000 C 
ATOM     20  N   UNL     1      46.374   6.199  12.330  0.00  0.00    +0.000 N 
ATOM     21  H   UNL     1      46.565   5.251  12.628  0.00  0.00    +0.000 HD
BRANCH  19  22
ATOM     22  C   UNL     1      44.670   5.142  11.079  0.00  0.00    +0.000 A 
ATOM     23  C   UNL     1      43.779   4.454  11.879  0.00  0.00    +0.000 A 
ATOM     24  S   UNL     1      43.527   2.857  11.338  0.00  0.00    +0.000 S 
ATOM     25  C   UNL     1      44.597   3.068  10.005  0.00  0.00    +0.000 A 
ATOM     26  C   UNL     1      45.070   2.080   9.122  0.00  0.00    +0.000 A 
ATOM     27  C   UNL     1      45.888   2.462   8.056  0.00  0.00    +0.000 A 
ATOM     28  C   UNL     1      46.160   3.801   7.819  0.00  0.00    +0.000 A 
ATOM     29  C   UNL     1      45.705   4.774   8.710  0.00  0.00    +0.000 A 
ATOM     30  C   UNL     1      44.983   4.403   9.874  0.00  0.00    +0.000 A 
ENDBRANCH  19  22
ENDBRANCH  17  20
ENDBRANCH   1  17
TORSDOF 7
ENDMDL
MODEL 8
REMARK VINA RESULT:    -6.571      2.959      8.590
REMARK INTER + INTRA:         -10.349
REMARK INTER:                  -9.103
REMARK INTRA:                  -1.246
REMARK UNBOUND:                -1.089
REMARK  Name = 
REMARK  7 active torsions:
REMARK  status: ('A' for Active; 'I' for Inactive)
REMARK    1  A    between atoms: C_2  and  C_20
REMARK    2  A    between atoms: N_3  and  C_4
REMARK    3  A    between atoms: C_4  and  C_5
REMARK    4  A    between atoms: C_8  and  N_9
REMARK    5  A    between atoms: N_9  and  C_10
REMARK    6  A    between atoms: C_10  and  C_11
REMARK    7  A    between atoms: C_11  and  C_12
REMARK                            x       y       z     vdW  Elec       q    Type
REMARK                         _______ _______ _______ _____ _____    ______ ____
ROOT
ATOM      1  C   UNL     1      48.678   6.902  14.656  0.00  0.00    +0.000 A 
ATOM      2  C   UNL     1      48.113   5.762  15.233  0.00  0.00    +0.000 A 
ATOM      3  C   UNL     1      48.238   5.521  16.605  0.00  0.00    +0.000 A 
ATOM      4  C   UNL     1      48.953   6.399  17.427  0.00  0.00    +0.000 A 
ATOM      5  C   UNL     1      49.432   7.584  16.862  0.00  0.00    +0.000 A 
ATOM      6  C   UNL     1      49.312   7.830  15.490  0.00  0.00    +0.000 A 
ENDROOT
BRANCH   4   7
ATOM      7  N   UNL     1      49.079   6.240  18.816  0.00  0.00    +0.000 N 
ATOM      8  H   UNL     1      48.147   6.253  19.231  0.00  0.00    +0.000 HD
BRANCH   7   9
ATOM      9  C   UNL     1      49.865   5.114  19.326  0.00  0.00    +0.000 C 
BRANCH   9  10
ATOM     10  C   UNL     1      51.280   5.132  18.741  0.00  0.00    +0.000 C 
BRANCH  10  11
ATOM     11  C   UNL     1      51.604   3.857  17.937  0.00  0.00    +0.000 C 
ATOM     12  C   UNL     1      50.384   2.934  17.792  0.00  0.00    +0.000 C 
ATOM     13  C   UNL     1      50.722   1.656  17.029  0.00  0.00    +0.000 C 
ATOM     14  C   UNL     1      51.889   0.907  17.664  0.00  0.00    +0.000 C 
ATOM     15  C   UNL     1      53.109   1.815  17.813  0.00  0.00    +0.000 C 
ATOM     16  C   UNL     1      52.774   3.099  18.578  0.00  0.00    +0.000 C 
ENDBRANCH  10  11
ENDBRANCH   9  10
ENDBRANCH   7   9
ENDBRANCH   4   7
BRANCH   1  17
ATOM     17  C   UNL     1      48.546   7.145  13.178  0.00  0.00    +0.000 C 
BRANCH  17  20
ATOM     18  O   UNL     1      46.329   7.776  11.556  0.00  0.00    +0.000 OA
ATOM     19  C   UNL     1      46.510   6.619  11.916  0.00  0.00    +0.000 C 
ATOM     20  N   UNL     1      47.629   6.199  12.605  0.00  0.00    +0.000 N 
ATOM     21  H   UNL     1      47.582   5.295  13.056  0.00  0.00    +0.000 HD
BRANCH  19  22
ATOM     22  C   UNL     1      45.489   5.578  11.814  0.00  0.00    +0.000 A 
ATOM     23  C   UNL     1      44.812   5.121  12.927  0.00  0.00    +0.000 A 
ATOM     24  S   UNL     1      43.986   3.660  12.624  0.00  0.00    +0.000 S 
ATOM     25  C   UNL     1      44.509   3.626  10.983  0.00  0.00    +0.000 A 
ATOM     26  C   UNL     1      44.360   2.576  10.059  0.00  0.00    +0.000 A 
ATOM     27  C   UNL     1      44.798   2.765   8.746  0.00  0.00    +0.000 A 
ATOM     28  C   UNL     1      45.291   3.994   8.336  0.00  0.00    +0.000 A 
ATOM     29  C   UNL     1      45.455   5.025   9.262  0.00  0.00    +0.000 A 
ATOM     30  C   UNL     1      45.142   4.820  10.631  0.00  0.00    +0.000 A 
ENDBRANCH  19  22
ENDBRANCH  17  20
ENDBRANCH   1  17
TORSDOF 7
ENDMDL
MODEL 9
REMARK VINA RESULT:    -6.455      4.073      9.111
REMARK INTER + INTRA:         -10.185
REMARK INTER:                  -7.901
REMARK INTRA:                  -2.285
REMARK UNBOUND:                -1.089
REMARK  Name = 
REMARK  7 active torsions:
REMARK  status: ('A' for Active; 'I' for Inactive)
REMARK    1  A    between atoms: C_2  and  C_20
REMARK    2  A    between atoms: N_3  and  C_4
REMARK    3  A    between atoms: C_4  and  C_5
REMARK    4  A    between atoms: C_8  and  N_9
REMARK    5  A    between atoms: N_9  and  C_10
REMARK    6  A    between atoms: C_10  and  C_11
REMARK    7  A    between atoms: C_11  and  C_12
REMARK                            x       y       z     vdW  Elec       q    Type
REMARK                         _______ _______ _______ _____ _____    ______ ____
ROOT
ATOM      1  C   UNL     1      47.804   4.355  18.077  0.00  0.00    +0.000 A 
ATOM      2  C   UNL     1      47.003   5.413  18.515  0.00  0.00    +0.000 A 
ATOM      3  C   UNL     1      47.356   6.151  19.649  0.00  0.00    +0.000 A 
ATOM      4  C   UNL     1      48.500   5.831  20.388  0.00  0.00    +0.000 A 
ATOM      5  C   UNL     1      49.345   4.836  19.890  0.00  0.00    +0.000 A 
ATOM      6  C   UNL     1      48.998   4.093  18.757  0.00  0.00    +0.000 A 
ENDROOT
BRANCH   4   7
ATOM      7  N   UNL     1      48.934   6.557  21.509  0.00  0.00    +0.000 N 
ATOM      8  H   UNL     1      49.893   6.283  21.723  0.00  0.00    +0.000 HD
BRANCH   7   9
ATOM      9  C   UNL     1      48.795   8.015  21.498  0.00  0.00    +0.000 C 
BRANCH   9  10
ATOM     10  C   UNL     1      50.006   8.670  20.829  0.00  0.00    +0.000 C 
BRANCH  10  11
ATOM     11  C   UNL     1      49.676   9.239  19.435  0.00  0.00    +0.000 C 
ATOM     12  C   UNL     1      48.185   9.584  19.285  0.00  0.00    +0.000 C 
ATOM     13  C   UNL     1      47.858  10.110  17.889  0.00  0.00    +0.000 C 
ATOM     14  C   UNL     1      48.296   9.137  16.799  0.00  0.00    +0.000 C 
ATOM     15  C   UNL     1      49.777   8.787  16.938  0.00  0.00    +0.000 C 
ATOM     16  C   UNL     1      50.109   8.259  18.336  0.00  0.00    +0.000 C 
ENDBRANCH  10  11
ENDBRANCH   9  10
ENDBRANCH   7   9
ENDBRANCH   4   7
BRANCH   1  17
ATOM     17  C   UNL     1      47.409   3.563  16.860  0.00  0.00    +0.000 C 
BRANCH  17  20
ATOM     18  O   UNL     1      47.336   3.102  14.081  0.00  0.00    +0.000 OA
ATOM     19  C   UNL     1      46.929   4.166  14.533  0.00  0.00    +0.000 C 
ATOM     20  N   UNL     1      46.814   4.430  15.881  0.00  0.00    +0.000 N 
ATOM     21  H   UNL     1      46.696   5.396  16.155  0.00  0.00    +0.000 HD
BRANCH  19  22
ATOM     22  C   UNL     1      46.682   5.345  13.706  0.00  0.00    +0.000 A 
ATOM     23  C   UNL     1      45.509   5.493  12.992  0.00  0.00    +0.000 A 
ATOM     24  S   UNL     1      45.620   6.720  11.814  0.00  0.00    +0.000 S 
ATOM     25  C   UNL     1      47.243   7.090  12.256  0.00  0.00    +0.000 A 
ATOM     26  C   UNL     1      48.139   7.944  11.588  0.00  0.00    +0.000 A 
ATOM     27  C   UNL     1      49.402   8.165  12.142  0.00  0.00    +0.000 A 
ATOM     28  C   UNL     1      49.739   7.623  13.372  0.00  0.00    +0.000 A 
ATOM     29  C   UNL     1      48.854   6.760  14.020  0.00  0.00    +0.000 A 
ATOM     30  C   UNL     1      47.617   6.412  13.418  0.00  0.00    +0.000 A 
ENDBRANCH  19  22
ENDBRANCH  17  20
ENDBRANCH   1  17
TORSDOF 7
ENDMDL
