MODEL 1
REMARK VINA RESULT:    -8.161      0.000      0.000
REMARK INTER + INTRA:         -11.183
REMARK INTER:                 -10.546
REMARK INTRA:                  -0.636
REMARK UNBOUND:                -0.636
REMARK  Name = 
REMARK  5 active torsions:
REMARK  status: ('A' for Active; 'I' for Inactive)
REMARK    1  A    between atoms: C_2  and  C_4
REMARK    2  A    between atoms: C_8  and  O_9
REMARK    3  A    between atoms: O_9  and  C_10
REMARK    4  A    between atoms: C_10  and  C_11
REMARK    5  A    between atoms: C_16  and  N_17
REMARK                            x       y       z     vdW  Elec       q    Type
REMARK                         _______ _______ _______ _____ _____    ______ ____
ROOT
ATOM      1  C   UNL     1      44.460   4.446  12.204  0.00  0.00    +0.000 A 
ATOM      2  C   UNL     1      45.310   3.522  12.811  0.00  0.00    +0.000 A 
ATOM      3  C   UNL     1      46.447   3.974  13.461  0.00  0.00    +0.000 A 
ATOM      4  F   UNL     1      47.285   3.085  14.013  0.00  0.00    +0.000 F 
ATOM      5  C   UNL     1      46.753   5.332  13.527  0.00  0.00    +0.000 A 
ATOM      6  C   UNL     1      45.911   6.297  12.957  0.00  0.00    +0.000 A 
ATOM      7  C   UNL     1      44.753   5.819  12.317  0.00  0.00    +0.000 A 
ENDROOT
BRANCH   6   8
ATOM      8  N   UNL     1      46.224   7.641  12.974  0.00  0.00    +0.000 N 
ATOM      9  C   UNL     1      45.220   8.700  12.794  0.00  0.00    +0.000 C 
ATOM     10  C   UNL     1      45.696   9.718  11.734  0.00  0.00    +0.000 C 
ATOM     11  N   UNL     1      47.034  10.282  12.017  0.00  0.00    +0.000 NA
ATOM     12  C   UNL     1      47.994   9.169  12.164  0.00  0.00    +0.000 C 
ATOM     13  C   UNL     1      47.590   8.123  13.234  0.00  0.00    +0.000 C 
ATOM     14  H   UNL     1      46.982  10.773  12.912  0.00  0.00    +0.000 HD
ENDBRANCH   6   8
BRANCH   1  15
ATOM     15  C   UNL     1      43.291   3.984  11.371  0.00  0.00    +0.000 C 
BRANCH  15  16
ATOM     16  O   UNL     1      43.656   2.877  10.553  0.00  0.00    +0.000 OA
BRANCH  16  21
ATOM     17  C   UNL     1      46.218   2.192   8.063  0.00  0.00    +0.000 A 
ATOM     18  C   UNL     1      46.470   3.460   7.526  0.00  0.00    +0.000 A 
ATOM     19  C   UNL     1      45.766   4.565   7.996  0.00  0.00    +0.000 A 
ATOM     20  C   UNL     1      44.814   4.410   9.005  0.00  0.00    +0.000 A 
ATOM     21  C   UNL     1      44.561   3.150   9.559  0.00  0.00    +0.000 A 
ATOM     22  C   UNL     1      45.278   2.046   9.092  0.00  0.00    +0.000 A 
BRANCH  17  24
ATOM     23  N   UNL     1      47.972   1.312   6.628  0.00  0.00    +0.000 N 
ATOM     24  C   UNL     1      46.974   1.035   7.522  0.00  0.00    +0.000 C 
ATOM     25  O   UNL     1      46.752  -0.111   7.889  0.00  0.00    +0.000 OA
ATOM     26  H   UNL     1      48.551   0.533   6.342  0.00  0.00    +0.000 HD
ATOM     27  H   UNL     1      48.335   2.244   6.493  0.00  0.00    +0.000 HD
ENDBRANCH  17  24
ENDBRANCH  16  21
ENDBRANCH  15  16
ENDBRANCH   1  15
TORSDOF 5
ENDMDL
MODEL 2
REMARK VINA RESULT:    -7.654      1.571      2.170
REMARK INTER + INTRA:         -10.527
REMARK INTER:                  -9.638
REMARK INTRA:                  -0.890
REMARK UNBOUND:                -0.636
REMARK  Name = 
REMARK  5 active torsions:
REMARK  status: ('A' for Active; 'I' for Inactive)
REMARK    1  A    between atoms: C_2  and  C_4
REMARK    2  A    between atoms: C_8  and  O_9
REMARK    3  A    between atoms: O_9  and  C_10
REMARK    4  A    between atoms: C_10  and  C_11
REMARK    5  A    between atoms: C_16  and  N_17
REMARK                            x       y       z     vdW  Elec       q    Type
REMARK                         _______ _______ _______ _____ _____    ______ ____
ROOT
ATOM      1  C   UNL     1      45.004   4.939  11.591  0.00  0.00    +0.000 A 
ATOM      2  C   UNL     1      45.428   3.971  12.500  0.00  0.00    +0.000 A 
ATOM      3  C   UNL     1      46.540   4.222  13.288  0.00  0.00    +0.000 A 
ATOM      4  F   UNL     1      46.972   3.278  14.136  0.00  0.00    +0.000 F 
ATOM      5  C   UNL     1      47.237   5.426  13.194  0.00  0.00    +0.000 A 
ATOM      6  C   UNL     1      46.827   6.438  12.316  0.00  0.00    +0.000 A 
ATOM      7  C   UNL     1      45.686   6.170  11.539  0.00  0.00    +0.000 A 
ENDROOT
BRANCH   6   8
ATOM      8  N   UNL     1      47.534   7.616  12.179  0.00  0.00    +0.000 N 
ATOM      9  C   UNL     1      48.829   7.696  11.486  0.00  0.00    +0.000 C 
ATOM     10  C   UNL     1      49.857   8.455  12.355  0.00  0.00    +0.000 C 
ATOM     11  N   UNL     1      49.391   9.789  12.791  0.00  0.00    +0.000 NA
ATOM     12  C   UNL     1      48.102   9.633  13.494  0.00  0.00    +0.000 C 
ATOM     13  C   UNL     1      47.014   8.903  12.667  0.00  0.00    +0.000 C 
ATOM     14  H   UNL     1      49.225  10.350  11.952  0.00  0.00    +0.000 HD
ENDBRANCH   6   8
BRANCH   1  15
ATOM     15  C   UNL     1      43.885   4.648  10.623  0.00  0.00    +0.000 C 
BRANCH  15  16
ATOM     16  O   UNL     1      44.353   4.694   9.279  0.00  0.00    +0.000 OA
BRANCH  16  21
ATOM     17  C   UNL     1      46.503   2.615   7.208  0.00  0.00    +0.000 A 
ATOM     18  C   UNL     1      46.251   1.329   7.699  0.00  0.00    +0.000 A 
ATOM     19  C   UNL     1      45.354   1.150   8.749  0.00  0.00    +0.000 A 
ATOM     20  C   UNL     1      44.701   2.252   9.306  0.00  0.00    +0.000 A 
ATOM     21  C   UNL     1      44.935   3.542   8.815  0.00  0.00    +0.000 A 
ATOM     22  C   UNL     1      45.828   3.715   7.755  0.00  0.00    +0.000 A 
BRANCH  17  24
ATOM     23  N   UNL     1      48.801   2.587   6.414  0.00  0.00    +0.000 N 
ATOM     24  C   UNL     1      47.481   2.768   6.102  0.00  0.00    +0.000 C 
ATOM     25  O   UNL     1      47.128   2.999   4.954  0.00  0.00    +0.000 OA
ATOM     26  H   UNL     1      49.452   2.589   5.640  0.00  0.00    +0.000 HD
ATOM     27  H   UNL     1      49.099   2.163   7.280  0.00  0.00    +0.000 HD
ENDBRANCH  17  24
ENDBRANCH  16  21
ENDBRANCH  15  16
ENDBRANCH   1  15
TORSDOF 5
ENDMDL
MODEL 3
REMARK VINA RESULT:    -7.646      2.265      3.236
REMARK INTER + INTRA:         -10.517
REMARK INTER:                 -10.396
REMARK INTRA:                  -0.122
REMARK UNBOUND:                -0.636
REMARK  Name = 
REMARK  5 active torsions:
REMARK  status: ('A' for Active; 'I' for Inactive)
REMARK    1  A    between atoms: C_2  and  C_4
REMARK    2  A    between atoms: C_8  and  O_9
REMARK    3  A    between atoms: O_9  and  C_10
REMARK    4  A    between atoms: C_10  and  C_11
REMARK    5  A    between atoms: C_16  and  N_17
REMARK                            x       y       z     vdW  Elec       q    Type
REMARK                         _______ _______ _______ _____ _____    ______ ____
ROOT
ATOM      1  C   UNL     1      44.166   4.849  11.737  0.00  0.00    +0.000 A 
ATOM      2  C   UNL     1      43.903   6.175  11.397  0.00  0.00    +0.000 A 
ATOM      3  C   UNL     1      44.710   7.178  11.911  0.00  0.00    +0.000 A 
ATOM      4  F   UNL     1      44.437   8.457  11.616  0.00  0.00    +0.000 F 
ATOM      5  C   UNL     1      45.783   6.886  12.751  0.00  0.00    +0.000 A 
ATOM      6  C   UNL     1      46.101   5.565  13.094  0.00  0.00    +0.000 A 
ATOM      7  C   UNL     1      45.281   4.561  12.549  0.00  0.00    +0.000 A 
ENDROOT
BRANCH   6   8
ATOM      8  N   UNL     1      47.131   5.264  13.962  0.00  0.00    +0.000 N 
ATOM      9  C   UNL     1      47.190   4.011  14.731  0.00  0.00    +0.000 C 
ATOM     10  C   UNL     1      47.478   4.307  16.220  0.00  0.00    +0.000 C 
ATOM     11  N   UNL     1      48.686   5.132  16.435  0.00  0.00    +0.000 NA
ATOM     12  C   UNL     1      48.552   6.379  15.653  0.00  0.00    +0.000 C 
ATOM     13  C   UNL     1      48.288   6.154  14.143  0.00  0.00    +0.000 C 
ATOM     14  H   UNL     1      49.486   4.615  16.064  0.00  0.00    +0.000 HD
ENDBRANCH   6   8
BRANCH   1  15
ATOM     15  C   UNL     1      43.230   3.746  11.312  0.00  0.00    +0.000 C 
BRANCH  15  16
ATOM     16  O   UNL     1      43.954   2.654  10.753  0.00  0.00    +0.000 OA
BRANCH  16  21
ATOM     17  C   UNL     1      46.216   2.051   7.969  0.00  0.00    +0.000 A 
ATOM     18  C   UNL     1      46.182   3.268   7.277  0.00  0.00    +0.000 A 
ATOM     19  C   UNL     1      45.382   4.308   7.743  0.00  0.00    +0.000 A 
ATOM     20  C   UNL     1      44.619   4.140   8.900  0.00  0.00    +0.000 A 
ATOM     21  C   UNL     1      44.654   2.933   9.607  0.00  0.00    +0.000 A 
ATOM     22  C   UNL     1      45.466   1.895   9.142  0.00  0.00    +0.000 A 
BRANCH  17  24
ATOM     23  N   UNL     1      46.648  -0.322   7.669  0.00  0.00    +0.000 N 
ATOM     24  C   UNL     1      47.065   0.959   7.431  0.00  0.00    +0.000 C 
ATOM     25  O   UNL     1      48.066   1.186   6.766  0.00  0.00    +0.000 OA
ATOM     26  H   UNL     1      47.172  -1.059   7.213  0.00  0.00    +0.000 HD
ATOM     27  H   UNL     1      45.718  -0.537   7.996  0.00  0.00    +0.000 HD
ENDBRANCH  17  24
ENDBRANCH  16  21
ENDBRANCH  15  16
ENDBRANCH   1  15
TORSDOF 5
ENDMDL
MODEL 4
REMARK VINA RESULT:    -7.489      2.778      4.132
REMARK INTER + INTRA:         -10.315
REMARK INTER:                  -9.471
REMARK INTRA:                  -0.844
REMARK UNBOUND:                -0.636
REMARK  Name = 
REMARK  5 active torsions:
REMARK  status: ('A' for Active; 'I' for Inactive)
REMARK    1  A    between atoms: C_2  and  C_4
REMARK    2  A    between atoms: C_8  and  O_9
REMARK    3  A    between atoms: O_9  and  C_10
REMARK    4  A    between atoms: C_10  and  C_11
REMARK    5  A    between atoms: C_16  and  N_17
REMARK                            x       y       z     vdW  Elec       q    Type
REMARK                         _______ _______ _______ _____ _____    ______ ____
ROOT
ATOM      1  C   UNL     1      46.119   5.812  12.187  0.00  0.00    +0.000 A 
ATOM      2  C   UNL     1      47.038   6.690  11.613  0.00  0.00    +0.000 A 
ATOM      3  C   UNL     1      48.163   7.057  12.334  0.00  0.00    +0.000 A 
ATOM      4  F   UNL     1      49.030   7.930  11.800  0.00  0.00    +0.000 F 
ATOM      5  C   UNL     1      48.398   6.560  13.614  0.00  0.00    +0.000 A 
ATOM      6  C   UNL     1      47.517   5.652  14.216  0.00  0.00    +0.000 A 
ATOM      7  C   UNL     1      46.390   5.279  13.462  0.00  0.00    +0.000 A 
ENDROOT
BRANCH   6   8
ATOM      8  N   UNL     1      47.711   5.188  15.502  0.00  0.00    +0.000 N 
ATOM      9  C   UNL     1      48.492   5.923  16.509  0.00  0.00    +0.000 C 
ATOM     10  C   UNL     1      49.518   4.985  17.182  0.00  0.00    +0.000 C 
ATOM     11  N   UNL     1      48.915   3.761  17.752  0.00  0.00    +0.000 NA
ATOM     12  C   UNL     1      48.166   3.064  16.686  0.00  0.00    +0.000 C 
ATOM     13  C   UNL     1      47.099   3.941  15.985  0.00  0.00    +0.000 C 
ATOM     14  H   UNL     1      48.245   4.048  18.469  0.00  0.00    +0.000 HD
ENDBRANCH   6   8
BRANCH   1  15
ATOM     15  C   UNL     1      44.819   5.498  11.492  0.00  0.00    +0.000 C 
BRANCH  15  16
ATOM     16  O   UNL     1      44.993   5.466  10.079  0.00  0.00    +0.000 OA
BRANCH  16  21
ATOM     17  C   UNL     1      46.333   2.921   7.853  0.00  0.00    +0.000 A 
ATOM     18  C   UNL     1      45.644   1.770   8.253  0.00  0.00    +0.000 A 
ATOM     19  C   UNL     1      44.720   1.840   9.292  0.00  0.00    +0.000 A 
ATOM     20  C   UNL     1      44.477   3.058   9.930  0.00  0.00    +0.000 A 
ATOM     21  C   UNL     1      45.150   4.219   9.531  0.00  0.00    +0.000 A 
ATOM     22  C   UNL     1      46.069   4.145   8.481  0.00  0.00    +0.000 A 
BRANCH  17  24
ATOM     23  N   UNL     1      47.119   3.580   5.648  0.00  0.00    +0.000 N 
ATOM     24  C   UNL     1      47.325   2.802   6.755  0.00  0.00    +0.000 C 
ATOM     25  O   UNL     1      48.307   2.078   6.847  0.00  0.00    +0.000 OA
ATOM     26  H   UNL     1      47.851   3.573   4.949  0.00  0.00    +0.000 HD
ATOM     27  H   UNL     1      46.469   4.351   5.642  0.00  0.00    +0.000 HD
ENDBRANCH  17  24
ENDBRANCH  16  21
ENDBRANCH  15  16
ENDBRANCH   1  15
TORSDOF 5
ENDMDL
MODEL 5
REMARK VINA RESULT:    -7.405      3.005      6.642
REMARK INTER + INTRA:         -10.206
REMARK INTER:                  -9.405
REMARK INTRA:                  -0.801
REMARK UNBOUND:                -0.636
REMARK  Name = 
REMARK  5 active torsions:
REMARK  status: ('A' for Active; 'I' for Inactive)
REMARK    1  A    between atoms: C_2  and  C_4
REMARK    2  A    between atoms: C_8  and  O_9
REMARK    3  A    between atoms: O_9  and  C_10
REMARK    4  A    between atoms: C_10  and  C_11
REMARK    5  A    between atoms: C_16  and  N_17
REMARK                            x       y       z     vdW  Elec       q    Type
REMARK                         _______ _______ _______ _____ _____    ______ ____
ROOT
ATOM      1  C   UNL     1      44.523   5.143  10.542  0.00  0.00    +0.000 A 
ATOM      2  C   UNL     1      43.728   4.337  11.356  0.00  0.00    +0.000 A 
ATOM      3  C   UNL     1      43.631   2.983  11.080  0.00  0.00    +0.000 A 
ATOM      4  F   UNL     1      42.838   2.213  11.838  0.00  0.00    +0.000 F 
ATOM      5  C   UNL     1      44.318   2.410  10.011  0.00  0.00    +0.000 A 
ATOM      6  C   UNL     1      45.152   3.177   9.186  0.00  0.00    +0.000 A 
ATOM      7  C   UNL     1      45.250   4.546   9.493  0.00  0.00    +0.000 A 
ENDROOT
BRANCH   6   8
ATOM      8  N   UNL     1      45.801   2.634   8.096  0.00  0.00    +0.000 N 
ATOM      9  C   UNL     1      45.943   1.185   7.889  0.00  0.00    +0.000 C 
ATOM     10  C   UNL     1      47.411   0.829   7.564  0.00  0.00    +0.000 C 
ATOM     11  N   UNL     1      47.966   1.596   6.428  0.00  0.00    +0.000 NA
ATOM     12  C   UNL     1      47.810   3.038   6.710  0.00  0.00    +0.000 C 
ATOM     13  C   UNL     1      46.354   3.468   7.018  0.00  0.00    +0.000 C 
ATOM     14  H   UNL     1      47.407   1.376   5.601  0.00  0.00    +0.000 HD
ENDBRANCH   6   8
BRANCH   1  15
ATOM     15  C   UNL     1      44.543   6.639  10.726  0.00  0.00    +0.000 C 
BRANCH  15  16
ATOM     16  O   UNL     1      44.724   6.980  12.097  0.00  0.00    +0.000 OA
BRANCH  16  21
ATOM     17  C   UNL     1      47.244   5.350  14.153  0.00  0.00    +0.000 A 
ATOM     18  C   UNL     1      48.415   6.031  13.800  0.00  0.00    +0.000 A 
ATOM     19  C   UNL     1      48.366   7.048  12.851  0.00  0.00    +0.000 A 
ATOM     20  C   UNL     1      47.151   7.393  12.256  0.00  0.00    +0.000 A 
ATOM     21  C   UNL     1      45.971   6.728  12.609  0.00  0.00    +0.000 A 
ATOM     22  C   UNL     1      46.023   5.714  13.570  0.00  0.00    +0.000 A 
BRANCH  17  24
ATOM     23  N   UNL     1      47.067   4.584  16.454  0.00  0.00    +0.000 N 
ATOM     24  C   UNL     1      47.339   4.257  15.153  0.00  0.00    +0.000 C 
ATOM     25  O   UNL     1      47.602   3.107  14.831  0.00  0.00    +0.000 OA
ATOM     26  H   UNL     1      47.032   3.818  17.114  0.00  0.00    +0.000 HD
ATOM     27  H   UNL     1      46.618   5.450  16.712  0.00  0.00    +0.000 HD
ENDBRANCH  17  24
ENDBRANCH  16  21
ENDBRANCH  15  16
ENDBRANCH   1  15
TORSDOF 5
ENDMDL
MODEL 6
REMARK VINA RESULT:    -7.149      2.007      2.403
REMARK INTER + INTRA:          -9.875
REMARK INTER:                  -9.806
REMARK INTRA:                  -0.069
REMARK UNBOUND:                -0.636
REMARK  Name = 
REMARK  5 active torsions:
REMARK  status: ('A' for Active; 'I' for Inactive)
REMARK    1  A    between atoms: C_2  and  C_4
REMARK    2  A    between atoms: C_8  and  O_9
REMARK    3  A    between atoms: O_9  and  C_10
REMARK    4  A    between atoms: C_10  and  C_11
REMARK    5  A    between atoms: C_16  and  N_17
REMARK                            x       y       z     vdW  Elec       q    Type
REMARK                         _______ _______ _______ _____ _____    ______ ____
ROOT
ATOM      1  C   UNL     1      44.423   4.629  11.743  0.00  0.00    +0.000 A 
ATOM      2  C   UNL     1      43.383   5.461  11.328  0.00  0.00    +0.000 A 
ATOM      3  C   UNL     1      43.532   6.834  11.437  0.00  0.00    +0.000 A 
ATOM      4  F   UNL     1      42.520   7.636  11.074  0.00  0.00    +0.000 F 
ATOM      5  C   UNL     1      44.701   7.399  11.943  0.00  0.00    +0.000 A 
ATOM      6  C   UNL     1      45.782   6.601  12.342  0.00  0.00    +0.000 A 
ATOM      7  C   UNL     1      45.618   5.211  12.209  0.00  0.00    +0.000 A 
ENDROOT
BRANCH   6   8
ATOM      8  N   UNL     1      46.927   7.144  12.889  0.00  0.00    +0.000 N 
ATOM      9  C   UNL     1      46.959   8.467  13.531  0.00  0.00    +0.000 C 
ATOM     10  C   UNL     1      48.137   9.303  12.980  0.00  0.00    +0.000 C 
ATOM     11  N   UNL     1      49.444   8.619  13.082  0.00  0.00    +0.000 NA
ATOM     12  C   UNL     1      49.347   7.311  12.402  0.00  0.00    +0.000 C 
ATOM     13  C   UNL     1      48.202   6.409  12.926  0.00  0.00    +0.000 C 
ATOM     14  H   UNL     1      49.628   8.445  14.073  0.00  0.00    +0.000 HD
ENDBRANCH   6   8
BRANCH   1  15
ATOM     15  C   UNL     1      44.245   3.132  11.770  0.00  0.00    +0.000 C 
BRANCH  15  16
ATOM     16  O   UNL     1      43.786   2.653  10.509  0.00  0.00    +0.000 OA
BRANCH  16  21
ATOM     17  C   UNL     1      46.262   2.027   7.919  0.00  0.00    +0.000 A 
ATOM     18  C   UNL     1      46.342   3.263   7.266  0.00  0.00    +0.000 A 
ATOM     19  C   UNL     1      45.548   4.325   7.692  0.00  0.00    +0.000 A 
ATOM     20  C   UNL     1      44.677   4.159   8.771  0.00  0.00    +0.000 A 
ATOM     21  C   UNL     1      44.597   2.932   9.440  0.00  0.00    +0.000 A 
ATOM     22  C   UNL     1      45.404   1.873   9.016  0.00  0.00    +0.000 A 
BRANCH  17  24
ATOM     23  N   UNL     1      46.651  -0.357   7.643  0.00  0.00    +0.000 N 
ATOM     24  C   UNL     1      47.109   0.914   7.424  0.00  0.00    +0.000 C 
ATOM     25  O   UNL     1      48.147   1.115   6.809  0.00  0.00    +0.000 OA
ATOM     26  H   UNL     1      47.177  -1.107   7.214  0.00  0.00    +0.000 HD
ATOM     27  H   UNL     1      45.701  -0.548   7.924  0.00  0.00    +0.000 HD
ENDBRANCH  17  24
ENDBRANCH  16  21
ENDBRANCH  15  16
ENDBRANCH   1  15
TORSDOF 5
ENDMDL
MODEL 7
REMARK VINA RESULT:    -6.958      4.050      7.542
REMARK INTER + INTRA:          -9.628
REMARK INTER:                  -8.759
REMARK INTRA:                  -0.869
REMARK UNBOUND:                -0.636
REMARK  Name = 
REMARK  5 active torsions:
REMARK  status: ('A' for Active; 'I' for Inactive)
REMARK    1  A    between atoms: C_2  and  C_4
REMARK    2  A    between atoms: C_8  and  O_9
REMARK    3  A    between atoms: O_9  and  C_10
REMARK    4  A    between atoms: C_10  and  C_11
REMARK    5  A    between atoms: C_16  and  N_17
REMARK                            x       y       z     vdW  Elec       q    Type
REMARK                         _______ _______ _______ _____ _____    ______ ____
ROOT
ATOM      1  C   UNL     1      46.865   7.300  12.653  0.00  0.00    +0.000 A 
ATOM      2  C   UNL     1      46.329   8.560  12.388  0.00  0.00    +0.000 A 
ATOM      3  C   UNL     1      45.094   8.652  11.766  0.00  0.00    +0.000 A 
ATOM      4  F   UNL     1      44.593   9.861  11.477  0.00  0.00    +0.000 F 
ATOM      5  C   UNL     1      44.375   7.513  11.409  0.00  0.00    +0.000 A 
ATOM      6  C   UNL     1      44.862   6.228  11.685  0.00  0.00    +0.000 A 
ATOM      7  C   UNL     1      46.109   6.156  12.331  0.00  0.00    +0.000 A 
ENDROOT
BRANCH   6   8
ATOM      8  N   UNL     1      44.184   5.091  11.295  0.00  0.00    +0.000 N 
ATOM      9  C   UNL     1      43.209   4.405  12.157  0.00  0.00    +0.000 C 
ATOM     10  C   UNL     1      43.508   2.890  12.206  0.00  0.00    +0.000 C 
ATOM     11  N   UNL     1      43.589   2.260  10.871  0.00  0.00    +0.000 NA
ATOM     12  C   UNL     1      44.597   2.982  10.068  0.00  0.00    +0.000 C 
ATOM     13  C   UNL     1      44.341   4.506   9.954  0.00  0.00    +0.000 C 
ATOM     14  H   UNL     1      42.681   2.379  10.415  0.00  0.00    +0.000 HD
ENDBRANCH   6   8
BRANCH   1  15
ATOM     15  C   UNL     1      48.263   7.159  13.199  0.00  0.00    +0.000 C 
BRANCH  15  16
ATOM     16  O   UNL     1      48.427   5.906  13.855  0.00  0.00    +0.000 OA
BRANCH  16  21
ATOM     17  C   UNL     1      48.003   4.713  17.265  0.00  0.00    +0.000 A 
ATOM     18  C   UNL     1      48.407   5.815  18.028  0.00  0.00    +0.000 A 
ATOM     19  C   UNL     1      48.838   6.977  17.394  0.00  0.00    +0.000 A 
ATOM     20  C   UNL     1      48.863   7.045  16.000  0.00  0.00    +0.000 A 
ATOM     21  C   UNL     1      48.450   5.954  15.226  0.00  0.00    +0.000 A 
ATOM     22  C   UNL     1      48.008   4.794  15.867  0.00  0.00    +0.000 A 
BRANCH  17  24
ATOM     23  N   UNL     1      48.219   3.182  19.142  0.00  0.00    +0.000 N 
ATOM     24  C   UNL     1      47.568   3.485  17.977  0.00  0.00    +0.000 C 
ATOM     25  O   UNL     1      46.642   2.796  17.572  0.00  0.00    +0.000 OA
ATOM     26  H   UNL     1      47.852   2.405  19.676  0.00  0.00    +0.000 HD
ATOM     27  H   UNL     1      48.809   3.847  19.621  0.00  0.00    +0.000 HD
ENDBRANCH  17  24
ENDBRANCH  16  21
ENDBRANCH  15  16
ENDBRANCH   1  15
TORSDOF 5
ENDMDL
MODEL 8
REMARK VINA RESULT:    -6.813      3.621      5.503
REMARK INTER + INTRA:          -9.441
REMARK INTER:                  -8.656
REMARK INTRA:                  -0.785
REMARK UNBOUND:                -0.636
REMARK  Name = 
REMARK  5 active torsions:
REMARK  status: ('A' for Active; 'I' for Inactive)
REMARK    1  A    between atoms: C_2  and  C_4
REMARK    2  A    between atoms: C_8  and  O_9
REMARK    3  A    between atoms: O_9  and  C_10
REMARK    4  A    between atoms: C_10  and  C_11
REMARK    5  A    between atoms: C_16  and  N_17
REMARK                            x       y       z     vdW  Elec       q    Type
REMARK                         _______ _______ _______ _____ _____    ______ ____
ROOT
ATOM      1  C   UNL     1      48.154   6.946  13.344  0.00  0.00    +0.000 A 
ATOM      2  C   UNL     1      49.321   7.700  13.458  0.00  0.00    +0.000 A 
ATOM      3  C   UNL     1      50.056   7.636  14.631  0.00  0.00    +0.000 A 
ATOM      4  F   UNL     1      51.158   8.389  14.758  0.00  0.00    +0.000 F 
ATOM      5  C   UNL     1      49.657   6.826  15.693  0.00  0.00    +0.000 A 
ATOM      6  C   UNL     1      48.508   6.028  15.609  0.00  0.00    +0.000 A 
ATOM      7  C   UNL     1      47.785   6.095  14.405  0.00  0.00    +0.000 A 
ENDROOT
BRANCH   6   8
ATOM      8  N   UNL     1      48.075   5.258  16.669  0.00  0.00    +0.000 N 
ATOM      9  C   UNL     1      48.299   5.631  18.074  0.00  0.00    +0.000 C 
ATOM     10  C   UNL     1      48.884   4.436  18.861  0.00  0.00    +0.000 C 
ATOM     11  N   UNL     1      48.075   3.203  18.749  0.00  0.00    +0.000 NA
ATOM     12  C   UNL     1      47.907   2.876  17.318  0.00  0.00    +0.000 C 
ATOM     13  C   UNL     1      47.298   4.024  16.475  0.00  0.00    +0.000 C 
ATOM     14  H   UNL     1      47.149   3.402  19.136  0.00  0.00    +0.000 HD
ENDBRANCH   6   8
BRANCH   1  15
ATOM     15  C   UNL     1      47.256   7.095  12.142  0.00  0.00    +0.000 C 
BRANCH  15  16
ATOM     16  O   UNL     1      45.886   7.102  12.530  0.00  0.00    +0.000 OA
BRANCH  16  21
ATOM     17  C   UNL     1      44.767   4.703  10.036  0.00  0.00    +0.000 A 
ATOM     18  C   UNL     1      43.678   4.090  10.667  0.00  0.00    +0.000 A 
ATOM     19  C   UNL     1      43.314   4.477  11.953  0.00  0.00    +0.000 A 
ATOM     20  C   UNL     1      44.030   5.479  12.611  0.00  0.00    +0.000 A 
ATOM     21  C   UNL     1      45.113   6.108  11.987  0.00  0.00    +0.000 A 
ATOM     22  C   UNL     1      45.468   5.723  10.691  0.00  0.00    +0.000 A 
BRANCH  17  24
ATOM     23  N   UNL     1      44.287   3.369   8.061  0.00  0.00    +0.000 N 
ATOM     24  C   UNL     1      45.137   4.249   8.672  0.00  0.00    +0.000 C 
ATOM     25  O   UNL     1      46.130   4.673   8.096  0.00  0.00    +0.000 OA
ATOM     26  H   UNL     1      44.487   3.143   7.095  0.00  0.00    +0.000 HD
ATOM     27  H   UNL     1      43.353   3.192   8.402  0.00  0.00    +0.000 HD
ENDBRANCH  17  24
ENDBRANCH  16  21
ENDBRANCH  15  16
ENDBRANCH   1  15
TORSDOF 5
ENDMDL
MODEL 9
REMARK VINA RESULT:    -6.755      2.778      7.293
REMARK INTER + INTRA:          -9.366
REMARK INTER:                  -8.588
REMARK INTRA:                  -0.778
REMARK UNBOUND:                -0.636
REMARK  Name = 
REMARK  5 active torsions:
REMARK  status: ('A' for Active; 'I' for Inactive)
REMARK    1  A    between atoms: C_2  and  C_4
REMARK    2  A    between atoms: C_8  and  O_9
REMARK    3  A    between atoms: O_9  and  C_10
REMARK    4  A    between atoms: C_10  and  C_11
REMARK    5  A    between atoms: C_16  and  N_17
REMARK                            x       y       z     vdW  Elec       q    Type
REMARK                         _______ _______ _______ _____ _____    ______ ____
ROOT
ATOM      1  C   UNL     1      44.548   5.243  11.024  0.00  0.00    +0.000 A 
ATOM      2  C   UNL     1      43.937   4.428  11.976  0.00  0.00    +0.000 A 
ATOM      3  C   UNL     1      43.865   3.063  11.751  0.00  0.00    +0.000 A 
ATOM      4  F   UNL     1      43.244   2.281  12.646  0.00  0.00    +0.000 F 
ATOM      5  C   UNL     1      44.398   2.489  10.599  0.00  0.00    +0.000 A 
ATOM      6  C   UNL     1      45.048   3.267   9.631  0.00  0.00    +0.000 A 
ATOM      7  C   UNL     1      45.126   4.648   9.886  0.00  0.00    +0.000 A 
ENDROOT
BRANCH   6   8
ATOM      8  N   UNL     1      45.540   2.719   8.463  0.00  0.00    +0.000 N 
ATOM      9  C   UNL     1      45.591   1.270   8.217  0.00  0.00    +0.000 C 
ATOM     10  C   UNL     1      46.993   0.860   7.715  0.00  0.00    +0.000 C 
ATOM     11  N   UNL     1      47.444   1.626   6.533  0.00  0.00    +0.000 NA
ATOM     12  C   UNL     1      47.387   3.067   6.855  0.00  0.00    +0.000 C 
ATOM     13  C   UNL     1      45.999   3.552   7.341  0.00  0.00    +0.000 C 
ATOM     14  H   UNL     1      46.782   1.448   5.775  0.00  0.00    +0.000 HD
ENDBRANCH   6   8
BRANCH   1  15
ATOM     15  C   UNL     1      44.523   6.744  11.167  0.00  0.00    +0.000 C 
BRANCH  15  16
ATOM     16  O   UNL     1      45.192   7.152  12.357  0.00  0.00    +0.000 OA
BRANCH  16  21
ATOM     17  C   UNL     1      47.706   9.753  11.978  0.00  0.00    +0.000 A 
ATOM     18  C   UNL     1      48.887   9.018  11.821  0.00  0.00    +0.000 A 
ATOM     19  C   UNL     1      48.847   7.627  11.850  0.00  0.00    +0.000 A 
ATOM     20  C   UNL     1      47.630   6.966  12.031  0.00  0.00    +0.000 A 
ATOM     21  C   UNL     1      46.441   7.689  12.177  0.00  0.00    +0.000 A 
ATOM     22  C   UNL     1      46.485   9.085  12.137  0.00  0.00    +0.000 A 
BRANCH  17  24
ATOM     23  N   UNL     1      47.751  11.871  13.173  0.00  0.00    +0.000 N 
ATOM     24  C   UNL     1      47.791  11.235  11.962  0.00  0.00    +0.000 C 
ATOM     25  O   UNL     1      47.937  11.863  10.922  0.00  0.00    +0.000 OA
ATOM     26  H   UNL     1      47.914  12.869  13.164  0.00  0.00    +0.000 HD
ATOM     27  H   UNL     1      47.876  11.380  14.046  0.00  0.00    +0.000 HD
ENDBRANCH  17  24
ENDBRANCH  16  21
ENDBRANCH  15  16
ENDBRANCH   1  15
TORSDOF 5
ENDMDL
