MODEL 1
REMARK VINA RESULT:    -8.774      0.000      0.000
REMARK INTER + INTRA:         -12.346
REMARK INTER:                 -11.852
REMARK INTRA:                  -0.494
REMARK UNBOUND:                -0.494
REMARK  Name = 
REMARK  7 active torsions:
REMARK  status: ('A' for Active; 'I' for Inactive)
REMARK    1  A    between atoms: C_1  and  O_2
REMARK    2  A    between atoms: O_2  and  C_3
REMARK    3  A    between atoms: C_6  and  C_7
REMARK    4  A    between atoms: C_7  and  C_8
REMARK    5  A    between atoms: C_8  and  N_9
REMARK    6  A    between atoms: C_13  and  C_14
REMARK    7  A    between atoms: C_20  and  C_21
REMARK                            x       y       z     vdW  Elec       q    Type
REMARK                         _______ _______ _______ _____ _____    ______ ____
ROOT
ATOM      1  C   UNL     1      43.210   5.107  12.354  0.00  0.00    +0.000 C 
ENDROOT
BRANCH   1   5
ATOM      2  C   UNL     1      47.279   5.868  13.644  0.00  0.00    +0.000 A 
ATOM      3  C   UNL     1      46.634   4.666  13.971  0.00  0.00    +0.000 A 
ATOM      4  C   UNL     1      45.324   4.418  13.554  0.00  0.00    +0.000 A 
ATOM      5  C   UNL     1      44.617   5.382  12.836  0.00  0.00    +0.000 A 
ATOM      6  C   UNL     1      45.261   6.587  12.514  0.00  0.00    +0.000 A 
ATOM      7  C   UNL     1      46.606   6.850  12.873  0.00  0.00    +0.000 A 
BRANCH   7   8
ATOM      8  C   UNL     1      47.274   8.084  12.361  0.00  0.00    +0.000 A 
ATOM      9  C   UNL     1      46.718   9.367  12.508  0.00  0.00    +0.000 A 
ATOM     10  C   UNL     1      47.422  10.521  12.145  0.00  0.00    +0.000 A 
ATOM     11  C   UNL     1      48.687  10.417  11.579  0.00  0.00    +0.000 A 
ATOM     12  C   UNL     1      49.242   9.162  11.362  0.00  0.00    +0.000 A 
ATOM     13  C   UNL     1      48.545   8.013  11.754  0.00  0.00    +0.000 A 
ENDBRANCH   7   8
BRANCH   2  15
ATOM     14  C   UNL     1      48.843   6.619  15.306  0.00  0.00    +0.000 C 
ATOM     15  O   UNL     1      48.580   6.134  13.997  0.00  0.00    +0.000 OA
ENDBRANCH   2  15
ENDBRANCH   1   5
BRANCH   1  16
ATOM     16  C   UNL     1      43.207   4.315  11.040  0.00  0.00    +0.000 C 
BRANCH  16  17
ATOM     17  N   UNL     1      44.015   4.993  10.017  0.00  0.00    +0.000 N 
ATOM     18  C   UNL     1      44.830   4.109   9.286  0.00  0.00    +0.000 A 
ATOM     19  C   UNL     1      45.654   4.621   8.285  0.00  0.00    +0.000 A 
ATOM     20  C   UNL     1      46.453   3.750   7.538  0.00  0.00    +0.000 A 
ATOM     21  C   UNL     1      46.417   2.380   7.799  0.00  0.00    +0.000 A 
ATOM     22  C   UNL     1      45.564   1.957   8.801  0.00  0.00    +0.000 A 
ATOM     23  N   UNL     1      44.780   2.786   9.535  0.00  0.00    +0.000 NA
ATOM     24  H   UNL     1      44.603   5.724  10.411  0.00  0.00    +0.000 HD
BRANCH  21  25
ATOM     25  C   UNL     1      47.269   1.457   7.007  0.00  0.00    +0.000 C 
ATOM     26  N   UNL     1      48.329   1.967   6.309  0.00  0.00    +0.000 N 
ATOM     27  O   UNL     1      47.035   0.255   6.972  0.00  0.00    +0.000 OA
ATOM     28  H   UNL     1      48.609   2.932   6.264  0.00  0.00    +0.000 HD
ATOM     29  H   UNL     1      48.883   1.300   5.783  0.00  0.00    +0.000 HD
ENDBRANCH  21  25
ENDBRANCH  16  17
ENDBRANCH   1  16
TORSDOF 6
ENDMDL
MODEL 2
REMARK VINA RESULT:    -8.727      1.671      3.755
REMARK INTER + INTRA:         -12.283
REMARK INTER:                 -11.322
REMARK INTRA:                  -0.961
REMARK UNBOUND:                -0.494
REMARK  Name = 
REMARK  7 active torsions:
REMARK  status: ('A' for Active; 'I' for Inactive)
REMARK    1  A    between atoms: C_1  and  O_2
REMARK    2  A    between atoms: O_2  and  C_3
REMARK    3  A    between atoms: C_6  and  C_7
REMARK    4  A    between atoms: C_7  and  C_8
REMARK    5  A    between atoms: C_8  and  N_9
REMARK    6  A    between atoms: C_13  and  C_14
REMARK    7  A    between atoms: C_20  and  C_21
REMARK                            x       y       z     vdW  Elec       q    Type
REMARK                         _______ _______ _______ _____ _____    ______ ____
ROOT
ATOM      1  C   UNL     1      43.601   5.392  12.298  0.00  0.00    +0.000 C 
ENDROOT
BRANCH   1   5
ATOM      2  C   UNL     1      47.793   6.124  13.128  0.00  0.00    +0.000 A 
ATOM      3  C   UNL     1      47.164   6.719  12.026  0.00  0.00    +0.000 A 
ATOM      4  C   UNL     1      45.813   6.487  11.757  0.00  0.00    +0.000 A 
ATOM      5  C   UNL     1      45.072   5.623  12.563  0.00  0.00    +0.000 A 
ATOM      6  C   UNL     1      45.703   5.023  13.664  0.00  0.00    +0.000 A 
ATOM      7  C   UNL     1      47.056   5.278  13.997  0.00  0.00    +0.000 A 
BRANCH   7   8
ATOM      8  C   UNL     1      47.615   4.731  15.270  0.00  0.00    +0.000 A 
ATOM      9  C   UNL     1      48.027   5.553  16.334  0.00  0.00    +0.000 A 
ATOM     10  C   UNL     1      48.418   5.019  17.568  0.00  0.00    +0.000 A 
ATOM     11  C   UNL     1      48.454   3.641  17.752  0.00  0.00    +0.000 A 
ATOM     12  C   UNL     1      48.113   2.799  16.701  0.00  0.00    +0.000 A 
ATOM     13  C   UNL     1      47.694   3.339  15.480  0.00  0.00    +0.000 A 
ENDBRANCH   7   8
BRANCH   2  15
ATOM     14  C   UNL     1      49.529   7.703  13.644  0.00  0.00    +0.000 C 
ATOM     15  O   UNL     1      49.107   6.360  13.453  0.00  0.00    +0.000 OA
ENDBRANCH   2  15
ENDBRANCH   1   5
BRANCH   1  16
ATOM     16  C   UNL     1      43.347   4.978  10.843  0.00  0.00    +0.000 C 
BRANCH  16  17
ATOM     17  N   UNL     1      43.611   3.545  10.652  0.00  0.00    +0.000 N 
ATOM     18  C   UNL     1      44.538   3.289   9.624  0.00  0.00    +0.000 A 
ATOM     19  C   UNL     1      44.876   1.969   9.333  0.00  0.00    +0.000 A 
ATOM     20  C   UNL     1      45.811   1.704   8.327  0.00  0.00    +0.000 A 
ATOM     21  C   UNL     1      46.396   2.760   7.628  0.00  0.00    +0.000 A 
ATOM     22  C   UNL     1      46.011   4.038   7.988  0.00  0.00    +0.000 A 
ATOM     23  N   UNL     1      45.108   4.315   8.962  0.00  0.00    +0.000 NA
ATOM     24  H   UNL     1      42.763   3.017  10.462  0.00  0.00    +0.000 HD
BRANCH  21  25
ATOM     25  C   UNL     1      47.385   2.476   6.558  0.00  0.00    +0.000 C 
ATOM     26  N   UNL     1      47.287   3.146   5.369  0.00  0.00    +0.000 N 
ATOM     27  O   UNL     1      48.279   1.655   6.725  0.00  0.00    +0.000 OA
ATOM     28  H   UNL     1      46.596   3.834   5.123  0.00  0.00    +0.000 HD
ATOM     29  H   UNL     1      47.985   2.921   4.668  0.00  0.00    +0.000 HD
ENDBRANCH  21  25
ENDBRANCH  16  17
ENDBRANCH   1  16
TORSDOF 6
ENDMDL
MODEL 3
REMARK VINA RESULT:    -8.237      0.827      1.377
REMARK INTER + INTRA:         -11.621
REMARK INTER:                 -11.414
REMARK INTRA:                  -0.207
REMARK UNBOUND:                -0.494
REMARK  Name = 
REMARK  7 active torsions:
REMARK  status: ('A' for Active; 'I' for Inactive)
REMARK    1  A    between atoms: C_1  and  O_2
REMARK    2  A    between atoms: O_2  and  C_3
REMARK    3  A    between atoms: C_6  and  C_7
REMARK    4  A    between atoms: C_7  and  C_8
REMARK    5  A    between atoms: C_8  and  N_9
REMARK    6  A    between atoms: C_13  and  C_14
REMARK    7  A    between atoms: C_20  and  C_21
REMARK                            x       y       z     vdW  Elec       q    Type
REMARK                         _______ _______ _______ _____ _____    ______ ____
ROOT
ATOM      1  C   UNL     1      43.289   4.434  12.729  0.00  0.00    +0.000 C 
ENDROOT
BRANCH   1   5
ATOM      2  C   UNL     1      47.148   6.339  13.254  0.00  0.00    +0.000 A 
ATOM      3  C   UNL     1      46.997   4.959  13.443  0.00  0.00    +0.000 A 
ATOM      4  C   UNL     1      45.755   4.342  13.272  0.00  0.00    +0.000 A 
ATOM      5  C   UNL     1      44.630   5.099  12.948  0.00  0.00    +0.000 A 
ATOM      6  C   UNL     1      44.781   6.483  12.763  0.00  0.00    +0.000 A 
ATOM      7  C   UNL     1      46.035   7.132  12.874  0.00  0.00    +0.000 A 
BRANCH   7   8
ATOM      8  C   UNL     1      46.148   8.576  12.510  0.00  0.00    +0.000 A 
ATOM      9  C   UNL     1      47.386   9.219  12.329  0.00  0.00    +0.000 A 
ATOM     10  C   UNL     1      47.470  10.533  11.854  0.00  0.00    +0.000 A 
ATOM     11  C   UNL     1      46.313  11.258  11.594  0.00  0.00    +0.000 A 
ATOM     12  C   UNL     1      45.072  10.674  11.822  0.00  0.00    +0.000 A 
ATOM     13  C   UNL     1      44.994   9.350  12.268  0.00  0.00    +0.000 A 
ENDBRANCH   7   8
BRANCH   2  15
ATOM     14  C   UNL     1      49.090   6.836  14.580  0.00  0.00    +0.000 C 
ATOM     15  O   UNL     1      48.360   6.978  13.369  0.00  0.00    +0.000 OA
ENDBRANCH   2  15
ENDBRANCH   1   5
BRANCH   1  16
ATOM     16  C   UNL     1      43.242   3.682  11.393  0.00  0.00    +0.000 C 
BRANCH  16  17
ATOM     17  N   UNL     1      43.815   4.496  10.313  0.00  0.00    +0.000 N 
ATOM     18  C   UNL     1      44.696   3.773   9.487  0.00  0.00    +0.000 A 
ATOM     19  C   UNL     1      45.315   4.426   8.424  0.00  0.00    +0.000 A 
ATOM     20  C   UNL     1      46.177   3.713   7.585  0.00  0.00    +0.000 A 
ATOM     21  C   UNL     1      46.406   2.357   7.818  0.00  0.00    +0.000 A 
ATOM     22  C   UNL     1      45.743   1.786   8.888  0.00  0.00    +0.000 A 
ATOM     23  N   UNL     1      44.903   2.460   9.711  0.00  0.00    +0.000 NA
ATOM     24  H   UNL     1      44.301   5.318  10.663  0.00  0.00    +0.000 HD
BRANCH  21  25
ATOM     25  C   UNL     1      47.325   1.602   6.928  0.00  0.00    +0.000 C 
ATOM     26  N   UNL     1      48.491   2.192   6.524  0.00  0.00    +0.000 N 
ATOM     27  O   UNL     1      47.052   0.468   6.555  0.00  0.00    +0.000 OA
ATOM     28  H   UNL     1      48.812   3.114   6.766  0.00  0.00    +0.000 HD
ATOM     29  H   UNL     1      49.087   1.639   5.918  0.00  0.00    +0.000 HD
ENDBRANCH  21  25
ENDBRANCH  16  17
ENDBRANCH   1  16
TORSDOF 6
ENDMDL
MODEL 4
REMARK VINA RESULT:    -7.668      3.433      7.445
REMARK INTER + INTRA:         -10.852
REMARK INTER:                  -9.995
REMARK INTRA:                  -0.857
REMARK UNBOUND:                -0.494
REMARK  Name = 
REMARK  7 active torsions:
REMARK  status: ('A' for Active; 'I' for Inactive)
REMARK    1  A    between atoms: C_1  and  O_2
REMARK    2  A    between atoms: O_2  and  C_3
REMARK    3  A    between atoms: C_6  and  C_7
REMARK    4  A    between atoms: C_7  and  C_8
REMARK    5  A    between atoms: C_8  and  N_9
REMARK    6  A    between atoms: C_13  and  C_14
REMARK    7  A    between atoms: C_20  and  C_21
REMARK                            x       y       z     vdW  Elec       q    Type
REMARK                         _______ _______ _______ _____ _____    ______ ____
ROOT
ATOM      1  C   UNL     1      48.290   8.330  12.159  0.00  0.00    +0.000 C 
ENDROOT
BRANCH   1   5
ATOM      2  C   UNL     1      44.346   6.720  11.352  0.00  0.00    +0.000 A 
ATOM      3  C   UNL     1      44.502   7.914  12.070  0.00  0.00    +0.000 A 
ATOM      4  C   UNL     1      45.772   8.436  12.329  0.00  0.00    +0.000 A 
ATOM      5  C   UNL     1      46.914   7.754  11.910  0.00  0.00    +0.000 A 
ATOM      6  C   UNL     1      46.757   6.556  11.196  0.00  0.00    +0.000 A 
ATOM      7  C   UNL     1      45.485   6.026  10.869  0.00  0.00    +0.000 A 
BRANCH   7   8
ATOM      8  C   UNL     1      45.394   4.835   9.972  0.00  0.00    +0.000 A 
ATOM      9  C   UNL     1      45.814   4.860   8.630  0.00  0.00    +0.000 A 
ATOM     10  C   UNL     1      45.849   3.699   7.848  0.00  0.00    +0.000 A 
ATOM     11  C   UNL     1      45.416   2.488   8.377  0.00  0.00    +0.000 A 
ATOM     12  C   UNL     1      44.937   2.440   9.680  0.00  0.00    +0.000 A 
ATOM     13  C   UNL     1      44.932   3.597  10.466  0.00  0.00    +0.000 A 
ENDBRANCH   7   8
BRANCH   2  15
ATOM     14  C   UNL     1      42.397   5.499  12.048  0.00  0.00    +0.000 C 
ATOM     15  O   UNL     1      43.115   6.195  11.039  0.00  0.00    +0.000 OA
ENDBRANCH   2  15
ENDBRANCH   1   5
BRANCH   1  16
ATOM     16  C   UNL     1      49.308   7.234  12.499  0.00  0.00    +0.000 C 
BRANCH  16  17
ATOM     17  N   UNL     1      49.832   7.408  13.861  0.00  0.00    +0.000 N 
ATOM     18  C   UNL     1      49.199   6.576  14.803  0.00  0.00    +0.000 A 
ATOM     19  C   UNL     1      49.596   6.643  16.137  0.00  0.00    +0.000 A 
ATOM     20  C   UNL     1      48.989   5.807  17.080  0.00  0.00    +0.000 A 
ATOM     21  C   UNL     1      47.996   4.915  16.676  0.00  0.00    +0.000 A 
ATOM     22  C   UNL     1      47.670   4.906  15.333  0.00  0.00    +0.000 A 
ATOM     23  N   UNL     1      48.249   5.707  14.404  0.00  0.00    +0.000 NA
ATOM     24  H   UNL     1      49.763   8.370  14.181  0.00  0.00    +0.000 HD
BRANCH  21  25
ATOM     25  C   UNL     1      47.349   4.031  17.679  0.00  0.00    +0.000 C 
ATOM     26  N   UNL     1      47.679   4.172  18.999  0.00  0.00    +0.000 N 
ATOM     27  O   UNL     1      46.532   3.183  17.340  0.00  0.00    +0.000 OA
ATOM     28  H   UNL     1      48.335   4.829  19.386  0.00  0.00    +0.000 HD
ATOM     29  H   UNL     1      47.212   3.548  19.648  0.00  0.00    +0.000 HD
ENDBRANCH  21  25
ENDBRANCH  16  17
ENDBRANCH   1  16
TORSDOF 6
ENDMDL
MODEL 5
REMARK VINA RESULT:    -7.546      3.031      4.018
REMARK INTER + INTRA:         -10.687
REMARK INTER:                  -9.918
REMARK INTRA:                  -0.769
REMARK UNBOUND:                -0.494
REMARK  Name = 
REMARK  7 active torsions:
REMARK  status: ('A' for Active; 'I' for Inactive)
REMARK    1  A    between atoms: C_1  and  O_2
REMARK    2  A    between atoms: O_2  and  C_3
REMARK    3  A    between atoms: C_6  and  C_7
REMARK    4  A    between atoms: C_7  and  C_8
REMARK    5  A    between atoms: C_8  and  N_9
REMARK    6  A    between atoms: C_13  and  C_14
REMARK    7  A    between atoms: C_20  and  C_21
REMARK                            x       y       z     vdW  Elec       q    Type
REMARK                         _______ _______ _______ _____ _____    ______ ____
ROOT
ATOM      1  C   UNL     1      44.283   5.467  12.007  0.00  0.00    +0.000 C 
ENDROOT
BRANCH   1   5
ATOM      2  C   UNL     1      45.613   9.592  11.889  0.00  0.00    +0.000 A 
ATOM      3  C   UNL     1      46.408   8.597  12.476  0.00  0.00    +0.000 A 
ATOM      4  C   UNL     1      45.983   7.267  12.513  0.00  0.00    +0.000 A 
ATOM      5  C   UNL     1      44.736   6.910  12.000  0.00  0.00    +0.000 A 
ATOM      6  C   UNL     1      43.938   7.908  11.417  0.00  0.00    +0.000 A 
ATOM      7  C   UNL     1      44.361   9.255  11.313  0.00  0.00    +0.000 A 
BRANCH   7   8
ATOM      8  C   UNL     1      43.531  10.228  10.541  0.00  0.00    +0.000 A 
ATOM      9  C   UNL     1      43.841  10.616   9.226  0.00  0.00    +0.000 A 
ATOM     10  C   UNL     1      42.978  11.420   8.472  0.00  0.00    +0.000 A 
ATOM     11  C   UNL     1      41.801  11.899   9.035  0.00  0.00    +0.000 A 
ATOM     12  C   UNL     1      41.493  11.586  10.354  0.00  0.00    +0.000 A 
ATOM     13  C   UNL     1      42.345  10.757  11.092  0.00  0.00    +0.000 A 
ENDBRANCH   7   8
BRANCH   2  15
ATOM     14  C   UNL     1      47.397  11.181  11.635  0.00  0.00    +0.000 C 
ATOM     15  O   UNL     1      46.013  10.903  11.793  0.00  0.00    +0.000 OA
ENDBRANCH   2  15
ENDBRANCH   1   5
BRANCH   1  16
ATOM     16  C   UNL     1      43.779   5.026  10.628  0.00  0.00    +0.000 C 
BRANCH  16  17
ATOM     17  N   UNL     1      43.962   3.580  10.440  0.00  0.00    +0.000 N 
ATOM     18  C   UNL     1      44.859   3.269   9.401  0.00  0.00    +0.000 A 
ATOM     19  C   UNL     1      45.120   1.932   9.112  0.00  0.00    +0.000 A 
ATOM     20  C   UNL     1      46.025   1.611   8.095  0.00  0.00    +0.000 A 
ATOM     21  C   UNL     1      46.657   2.631   7.383  0.00  0.00    +0.000 A 
ATOM     22  C   UNL     1      46.348   3.929   7.742  0.00  0.00    +0.000 A 
ATOM     23  N   UNL     1      45.475   4.260   8.726  0.00  0.00    +0.000 NA
ATOM     24  H   UNL     1      43.083   3.099  10.264  0.00  0.00    +0.000 HD
BRANCH  21  25
ATOM     25  C   UNL     1      47.615   2.288   6.300  0.00  0.00    +0.000 C 
ATOM     26  N   UNL     1      47.723   3.123   5.222  0.00  0.00    +0.000 N 
ATOM     27  O   UNL     1      48.303   1.276   6.362  0.00  0.00    +0.000 OA
ATOM     28  H   UNL     1      47.208   3.973   5.067  0.00  0.00    +0.000 HD
ATOM     29  H   UNL     1      48.390   2.850   4.508  0.00  0.00    +0.000 HD
ENDBRANCH  21  25
ENDBRANCH  16  17
ENDBRANCH   1  16
TORSDOF 6
ENDMDL
MODEL 6
REMARK VINA RESULT:    -7.504      1.815      2.821
REMARK INTER + INTRA:         -10.630
REMARK INTER:                  -9.806
REMARK INTRA:                  -0.824
REMARK UNBOUND:                -0.494
REMARK  Name = 
REMARK  7 active torsions:
REMARK  status: ('A' for Active; 'I' for Inactive)
REMARK    1  A    between atoms: C_1  and  O_2
REMARK    2  A    between atoms: O_2  and  C_3
REMARK    3  A    between atoms: C_6  and  C_7
REMARK    4  A    between atoms: C_7  and  C_8
REMARK    5  A    between atoms: C_8  and  N_9
REMARK    6  A    between atoms: C_13  and  C_14
REMARK    7  A    between atoms: C_20  and  C_21
REMARK                            x       y       z     vdW  Elec       q    Type
REMARK                         _______ _______ _______ _____ _____    ______ ____
ROOT
ATOM      1  C   UNL     1      44.401   4.149  12.180  0.00  0.00    +0.000 C 
ENDROOT
BRANCH   1   5
ATOM      2  C   UNL     1      45.644   8.286  11.808  0.00  0.00    +0.000 A 
ATOM      3  C   UNL     1      44.310   7.914  11.591  0.00  0.00    +0.000 A 
ATOM      4  C   UNL     1      43.906   6.582  11.713  0.00  0.00    +0.000 A 
ATOM      5  C   UNL     1      44.837   5.588  12.015  0.00  0.00    +0.000 A 
ATOM      6  C   UNL     1      46.174   5.960  12.226  0.00  0.00    +0.000 A 
ATOM      7  C   UNL     1      46.607   7.307  12.165  0.00  0.00    +0.000 A 
BRANCH   7   8
ATOM      8  C   UNL     1      48.008   7.646  12.556  0.00  0.00    +0.000 A 
ATOM      9  C   UNL     1      48.444   7.651  13.893  0.00  0.00    +0.000 A 
ATOM     10  C   UNL     1      49.790   7.836  14.228  0.00  0.00    +0.000 A 
ATOM     11  C   UNL     1      50.732   8.071  13.233  0.00  0.00    +0.000 A 
ATOM     12  C   UNL     1      50.325   8.135  11.905  0.00  0.00    +0.000 A 
ATOM     13  C   UNL     1      48.983   7.919  11.574  0.00  0.00    +0.000 A 
ENDBRANCH   7   8
BRANCH   2  15
ATOM     14  C   UNL     1      45.151  10.588  11.329  0.00  0.00    +0.000 C 
ATOM     15  O   UNL     1      46.074   9.590  11.740  0.00  0.00    +0.000 OA
ENDBRANCH   2  15
ENDBRANCH   1   5
BRANCH   1  16
ATOM     16  C   UNL     1      43.571   3.668  10.983  0.00  0.00    +0.000 C 
BRANCH  16  17
ATOM     17  N   UNL     1      44.043   2.360  10.508  0.00  0.00    +0.000 N 
ATOM     18  C   UNL     1      44.884   2.455   9.384  0.00  0.00    +0.000 A 
ATOM     19  C   UNL     1      45.400   1.287   8.826  0.00  0.00    +0.000 A 
ATOM     20  C   UNL     1      46.252   1.369   7.720  0.00  0.00    +0.000 A 
ATOM     21  C   UNL     1      46.579   2.616   7.189  0.00  0.00    +0.000 A 
ATOM     22  C   UNL     1      46.032   3.723   7.810  0.00  0.00    +0.000 A 
ATOM     23  N   UNL     1      45.205   3.664   8.884  0.00  0.00    +0.000 NA
ATOM     24  H   UNL     1      43.277   1.729  10.288  0.00  0.00    +0.000 HD
BRANCH  21  25
ATOM     25  C   UNL     1      47.481   2.701   6.012  0.00  0.00    +0.000 C 
ATOM     26  N   UNL     1      48.813   2.437   6.177  0.00  0.00    +0.000 N 
ATOM     27  O   UNL     1      47.050   3.004   4.906  0.00  0.00    +0.000 OA
ATOM     28  H   UNL     1      49.272   2.184   7.035  0.00  0.00    +0.000 HD
ATOM     29  H   UNL     1      49.391   2.506   5.346  0.00  0.00    +0.000 HD
ENDBRANCH  21  25
ENDBRANCH  16  17
ENDBRANCH   1  16
TORSDOF 6
ENDMDL
MODEL 7
REMARK VINA RESULT:    -7.040      3.929      8.181
REMARK INTER + INTRA:         -10.004
REMARK INTER:                  -9.290
REMARK INTRA:                  -0.713
REMARK UNBOUND:                -0.494
REMARK  Name = 
REMARK  7 active torsions:
REMARK  status: ('A' for Active; 'I' for Inactive)
REMARK    1  A    between atoms: C_1  and  O_2
REMARK    2  A    between atoms: O_2  and  C_3
REMARK    3  A    between atoms: C_6  and  C_7
REMARK    4  A    between atoms: C_7  and  C_8
REMARK    5  A    between atoms: C_8  and  N_9
REMARK    6  A    between atoms: C_13  and  C_14
REMARK    7  A    between atoms: C_20  and  C_21
REMARK                            x       y       z     vdW  Elec       q    Type
REMARK                         _______ _______ _______ _____ _____    ______ ____
ROOT
ATOM      1  C   UNL     1      48.484   7.786  12.440  0.00  0.00    +0.000 C 
ENDROOT
BRANCH   1   5
ATOM      2  C   UNL     1      44.410   6.753  11.373  0.00  0.00    +0.000 A 
ATOM      3  C   UNL     1      44.691   7.927  12.087  0.00  0.00    +0.000 A 
ATOM      4  C   UNL     1      46.002   8.263  12.430  0.00  0.00    +0.000 A 
ATOM      5  C   UNL     1      47.058   7.413  12.101  0.00  0.00    +0.000 A 
ATOM      6  C   UNL     1      46.776   6.235  11.391  0.00  0.00    +0.000 A 
ATOM      7  C   UNL     1      45.465   5.890  10.980  0.00  0.00    +0.000 A 
BRANCH   7   8
ATOM      8  C   UNL     1      45.261   4.706  10.093  0.00  0.00    +0.000 A 
ATOM      9  C   UNL     1      45.577   4.719   8.723  0.00  0.00    +0.000 A 
ATOM     10  C   UNL     1      45.508   3.560   7.940  0.00  0.00    +0.000 A 
ATOM     11  C   UNL     1      45.074   2.364   8.499  0.00  0.00    +0.000 A 
ATOM     12  C   UNL     1      44.694   2.330   9.836  0.00  0.00    +0.000 A 
ATOM     13  C   UNL     1      44.794   3.484  10.621  0.00  0.00    +0.000 A 
ENDBRANCH   7   8
BRANCH   2  15
ATOM     14  C   UNL     1      42.315   5.697  11.892  0.00  0.00    +0.000 C 
ATOM     15  O   UNL     1      43.140   6.407  10.979  0.00  0.00    +0.000 OA
ENDBRANCH   2  15
ENDBRANCH   1   5
BRANCH   1  16
ATOM     16  C   UNL     1      49.022   6.954  13.610  0.00  0.00    +0.000 C 
BRANCH  16  17
ATOM     17  N   UNL     1      48.979   7.720  14.864  0.00  0.00    +0.000 N 
ATOM     18  C   UNL     1      48.851   6.903  16.003  0.00  0.00    +0.000 A 
ATOM     19  C   UNL     1      48.792   7.502  17.259  0.00  0.00    +0.000 A 
ATOM     20  C   UNL     1      48.686   6.700  18.400  0.00  0.00    +0.000 A 
ATOM     21  C   UNL     1      48.642   5.312  18.270  0.00  0.00    +0.000 A 
ATOM     22  C   UNL     1      48.717   4.801  16.988  0.00  0.00    +0.000 A 
ATOM     23  N   UNL     1      48.822   5.562  15.870  0.00  0.00    +0.000 NA
ATOM     24  H   UNL     1      48.228   8.405  14.871  0.00  0.00    +0.000 HD
BRANCH  21  25
ATOM     25  C   UNL     1      48.525   4.462  19.482  0.00  0.00    +0.000 C 
ATOM     26  N   UNL     1      48.415   3.107  19.334  0.00  0.00    +0.000 N 
ATOM     27  O   UNL     1      48.525   4.957  20.603  0.00  0.00    +0.000 OA
ATOM     28  H   UNL     1      48.402   2.597  18.467  0.00  0.00    +0.000 HD
ATOM     29  H   UNL     1      48.339   2.566  20.189  0.00  0.00    +0.000 HD
ENDBRANCH  21  25
ENDBRANCH  16  17
ENDBRANCH   1  16
TORSDOF 6
ENDMDL
MODEL 8
REMARK VINA RESULT:    -6.883      4.005      7.630
REMARK INTER + INTRA:          -9.792
REMARK INTER:                  -8.716
REMARK INTRA:                  -1.076
REMARK UNBOUND:                -0.494
REMARK  Name = 
REMARK  7 active torsions:
REMARK  status: ('A' for Active; 'I' for Inactive)
REMARK    1  A    between atoms: C_1  and  O_2
REMARK    2  A    between atoms: O_2  and  C_3
REMARK    3  A    between atoms: C_6  and  C_7
REMARK    4  A    between atoms: C_7  and  C_8
REMARK    5  A    between atoms: C_8  and  N_9
REMARK    6  A    between atoms: C_13  and  C_14
REMARK    7  A    between atoms: C_20  and  C_21
REMARK                            x       y       z     vdW  Elec       q    Type
REMARK                         _______ _______ _______ _____ _____    ______ ____
ROOT
ATOM      1  C   UNL     1      48.481   9.136  13.180  0.00  0.00    +0.000 C 
ENDROOT
BRANCH   1   5
ATOM      2  C   UNL     1      44.534   8.788  11.419  0.00  0.00    +0.000 A 
ATOM      3  C   UNL     1      45.192  10.025  11.471  0.00  0.00    +0.000 A 
ATOM      4  C   UNL     1      46.465  10.139  12.035  0.00  0.00    +0.000 A 
ATOM      5  C   UNL     1      47.090   9.026  12.597  0.00  0.00    +0.000 A 
ATOM      6  C   UNL     1      46.429   7.788  12.550  0.00  0.00    +0.000 A 
ATOM      7  C   UNL     1      45.162   7.626  11.937  0.00  0.00    +0.000 A 
BRANCH   7   8
ATOM      8  C   UNL     1      44.592   6.254  11.784  0.00  0.00    +0.000 A 
ATOM      9  C   UNL     1      44.931   5.405  10.715  0.00  0.00    +0.000 A 
ATOM     10  C   UNL     1      44.494   4.076  10.664  0.00  0.00    +0.000 A 
ATOM     11  C   UNL     1      43.661   3.576  11.659  0.00  0.00    +0.000 A 
ATOM     12  C   UNL     1      43.255   4.406  12.696  0.00  0.00    +0.000 A 
ATOM     13  C   UNL     1      43.721   5.725  12.758  0.00  0.00    +0.000 A 
ENDBRANCH   7   8
BRANCH   2  15
ATOM     14  C   UNL     1      42.491   9.772  10.625  0.00  0.00    +0.000 C 
ATOM     15  O   UNL     1      43.301   8.624  10.834  0.00  0.00    +0.000 OA
ENDBRANCH   2  15
ENDBRANCH   1   5
BRANCH   1  16
ATOM     16  C   UNL     1      49.128   7.757  13.362  0.00  0.00    +0.000 C 
BRANCH  16  17
ATOM     17  N   UNL     1      49.758   7.643  14.685  0.00  0.00    +0.000 N 
ATOM     18  C   UNL     1      49.212   6.609  15.467  0.00  0.00    +0.000 A 
ATOM     19  C   UNL     1      49.716   6.393  16.748  0.00  0.00    +0.000 A 
ATOM     20  C   UNL     1      49.195   5.356  17.528  0.00  0.00    +0.000 A 
ATOM     21  C   UNL     1      48.180   4.547  17.016  0.00  0.00    +0.000 A 
ATOM     22  C   UNL     1      47.747   4.823  15.733  0.00  0.00    +0.000 A 
ATOM     23  N   UNL     1      48.241   5.823  14.961  0.00  0.00    +0.000 NA
ATOM     24  H   UNL     1      49.707   8.510  15.213  0.00  0.00    +0.000 HD
BRANCH  21  25
ATOM     25  C   UNL     1      47.625   3.448  17.847  0.00  0.00    +0.000 C 
ATOM     26  N   UNL     1      48.248   3.124  19.020  0.00  0.00    +0.000 N 
ATOM     27  O   UNL     1      46.625   2.833  17.495  0.00  0.00    +0.000 OA
ATOM     28  H   UNL     1      49.072   3.557  19.402  0.00  0.00    +0.000 HD
ATOM     29  H   UNL     1      47.834   2.368  19.555  0.00  0.00    +0.000 HD
ENDBRANCH  21  25
ENDBRANCH  16  17
ENDBRANCH   1  16
TORSDOF 6
ENDMDL
MODEL 9
REMARK VINA RESULT:    -6.838      4.630      6.769
REMARK INTER + INTRA:          -9.731
REMARK INTER:                  -8.934
REMARK INTRA:                  -0.797
REMARK UNBOUND:                -0.494
REMARK  Name = 
REMARK  7 active torsions:
REMARK  status: ('A' for Active; 'I' for Inactive)
REMARK    1  A    between atoms: C_1  and  O_2
REMARK    2  A    between atoms: O_2  and  C_3
REMARK    3  A    between atoms: C_6  and  C_7
REMARK    4  A    between atoms: C_7  and  C_8
REMARK    5  A    between atoms: C_8  and  N_9
REMARK    6  A    between atoms: C_13  and  C_14
REMARK    7  A    between atoms: C_20  and  C_21
REMARK                            x       y       z     vdW  Elec       q    Type
REMARK                         _______ _______ _______ _____ _____    ______ ____
ROOT
ATOM      1  C   UNL     1      47.152   3.766  17.392  0.00  0.00    +0.000 C 
ENDROOT
BRANCH   1   5
ATOM      2  C   UNL     1      49.611   6.490  19.701  0.00  0.00    +0.000 A 
ATOM      3  C   UNL     1      50.189   5.432  18.984  0.00  0.00    +0.000 A 
ATOM      4  C   UNL     1      49.399   4.555  18.237  0.00  0.00    +0.000 A 
ATOM      5  C   UNL     1      48.011   4.692  18.224  0.00  0.00    +0.000 A 
ATOM      6  C   UNL     1      47.433   5.748  18.947  0.00  0.00    +0.000 A 
ATOM      7  C   UNL     1      48.207   6.688  19.670  0.00  0.00    +0.000 A 
BRANCH   7   8
ATOM      8  C   UNL     1      47.537   7.874  20.282  0.00  0.00    +0.000 A 
ATOM      9  C   UNL     1      47.260   7.964  21.658  0.00  0.00    +0.000 A 
ATOM     10  C   UNL     1      46.759   9.138  22.233  0.00  0.00    +0.000 A 
ATOM     11  C   UNL     1      46.474  10.240  21.435  0.00  0.00    +0.000 A 
ATOM     12  C   UNL     1      46.677  10.164  20.063  0.00  0.00    +0.000 A 
ATOM     13  C   UNL     1      47.207   8.998  19.498  0.00  0.00    +0.000 A 
ENDBRANCH   7   8
BRANCH   2  15
ATOM     14  C   UNL     1      50.956   6.983  21.631  0.00  0.00    +0.000 C 
ATOM     15  O   UNL     1      50.355   7.400  20.412  0.00  0.00    +0.000 OA
ENDBRANCH   2  15
ENDBRANCH   1   5
BRANCH   1  16
ATOM     16  C   UNL     1      47.586   3.761  15.921  0.00  0.00    +0.000 C 
BRANCH  16  17
ATOM     17  N   UNL     1      47.141   4.984  15.238  0.00  0.00    +0.000 N 
ATOM     18  C   UNL     1      46.465   4.725  14.032  0.00  0.00    +0.000 A 
ATOM     19  C   UNL     1      45.992   5.797  13.278  0.00  0.00    +0.000 A 
ATOM     20  C   UNL     1      45.302   5.552  12.087  0.00  0.00    +0.000 A 
ATOM     21  C   UNL     1      45.092   4.239  11.666  0.00  0.00    +0.000 A 
ATOM     22  C   UNL     1      45.585   3.235  12.479  0.00  0.00    +0.000 A 
ATOM     23  N   UNL     1      46.255   3.453  13.638  0.00  0.00    +0.000 NA
ATOM     24  H   UNL     1      47.909   5.623  15.049  0.00  0.00    +0.000 HD
BRANCH  21  25
ATOM     25  C   UNL     1      44.362   3.980  10.399  0.00  0.00    +0.000 C 
ATOM     26  N   UNL     1      44.507   4.856   9.359  0.00  0.00    +0.000 N 
ATOM     27  O   UNL     1      43.637   3.000  10.277  0.00  0.00    +0.000 OA
ATOM     28  H   UNL     1      45.071   5.689   9.350  0.00  0.00    +0.000 HD
ATOM     29  H   UNL     1      43.991   4.638   8.513  0.00  0.00    +0.000 HD
ENDBRANCH  21  25
ENDBRANCH  16  17
ENDBRANCH   1  16
TORSDOF 6
ENDMDL
