MODEL 1
REMARK VINA RESULT:    -8.888      0.000      0.000
REMARK INTER + INTRA:         -15.327
REMARK INTER:                 -14.604
REMARK INTRA:                  -0.724
REMARK UNBOUND:                -0.724
REMARK  Name = 
REMARK  12 active torsions:
REMARK  status: ('A' for Active; 'I' for Inactive)
REMARK    1  A    between atoms: N_1  and  C_2
REMARK    2  A    between atoms: C_2  and  N_3
REMARK    3  A    between atoms: C_2  and  C_23
REMARK    4  A    between atoms: N_3  and  C_4
REMARK    5  A    between atoms: C_4  and  C_5
REMARK    6  A    between atoms: C_8  and  C_9
REMARK    7  A    between atoms: C_9  and  N_10
REMARK    8  A    between atoms: N_10  and  C_11
REMARK    9  A    between atoms: N_10  and  C_14
REMARK   10  A    between atoms: C_11  and  C_12
REMARK   11  A    between atoms: C_12  and  O_13
REMARK   12  A    between atoms: C_14  and  C_15
REMARK                            x       y       z     vdW  Elec       q    Type
REMARK                         _______ _______ _______ _____ _____    ______ ____
ROOT
ATOM      1  C   UNL     1      47.736   5.983  14.245  0.00  0.00    +0.000 A 
ATOM      2  C   UNL     1      46.937   4.845  14.057  0.00  0.00    +0.000 A 
ATOM      3  C   UNL     1      46.100   4.740  12.945  0.00  0.00    +0.000 A 
ATOM      4  C   UNL     1      46.014   5.789  12.019  0.00  0.00    +0.000 A 
ATOM      5  C   UNL     1      46.859   6.895  12.168  0.00  0.00    +0.000 A 
ATOM      6  C   UNL     1      47.714   6.989  13.269  0.00  0.00    +0.000 A 
ENDROOT
BRANCH   1   7
ATOM      7  C   UNL     1      48.570   6.142  15.498  0.00  0.00    +0.000 C 
BRANCH   7   8
ATOM      8  N   UNL     1      47.829   5.720  16.680  0.00  0.00    +0.000 NA
ATOM      9  H   UNL     1      48.104   6.327  17.452  0.00  0.00    +0.000 HD
BRANCH   8  10
ATOM     10  C   UNL     1      48.073   4.360  17.114  0.00  0.00    +0.000 C 
BRANCH  10  11
ATOM     11  C   UNL     1      49.455   4.297  17.724  0.00  0.00    +0.000 A 
ATOM     12  C   UNL     1      50.001   5.270  18.553  0.00  0.00    +0.000 A 
ATOM     13  S   UNL     1      51.570   4.887  19.112  0.00  0.00    +0.000 S 
ATOM     14  C   UNL     1      51.562   3.399  18.289  0.00  0.00    +0.000 A 
ATOM     15  N   UNL     1      52.622   2.551  18.365  0.00  0.00    +0.000 NA
ATOM     16  C   UNL     1      52.458   1.448  17.715  0.00  0.00    +0.000 A 
ATOM     17  N   UNL     1      51.346   1.119  16.985  0.00  0.00    +0.000 N 
ATOM     18  C   UNL     1      50.263   1.967  16.840  0.00  0.00    +0.000 A 
ATOM     19  O   UNL     1      49.323   1.680  16.112  0.00  0.00    +0.000 OA
ATOM     20  C   UNL     1      50.389   3.205  17.583  0.00  0.00    +0.000 A 
ATOM     21  H   UNL     1      51.296   0.246  16.481  0.00  0.00    +0.000 HD
ENDBRANCH  10  11
BRANCH  10  22
ATOM     22  N   UNL     1      47.151   4.082  18.182  0.00  0.00    +0.000 NA
ATOM     23  H   UNL     1      46.888   3.104  18.141  0.00  0.00    +0.000 HD
ATOM     24  H   UNL     1      46.308   4.608  17.965  0.00  0.00    +0.000 HD
ENDBRANCH  10  22
ENDBRANCH   8  10
ENDBRANCH   7   8
ENDBRANCH   1   7
BRANCH   4  25
ATOM     25  C   UNL     1      44.993   5.743  10.902  0.00  0.00    +0.000 C 
BRANCH  25  26
ATOM     26  N   UNL     1      44.478   4.372  10.624  0.00  0.00    +0.000 NA
BRANCH  26  27
ATOM     27  C   UNL     1      43.185   4.144  11.318  0.00  0.00    +0.000 C 
BRANCH  27  28
ATOM     28  C   UNL     1      42.509   5.410  11.881  0.00  0.00    +0.000 C 
BRANCH  28  29
ATOM     29  O   UNL     1      42.540   5.406  13.307  0.00  0.00    +0.000 OA
ATOM     30  H   UNL     1      41.728   5.843  13.615  0.00  0.00    +0.000 HD
ENDBRANCH  28  29
ENDBRANCH  27  28
ENDBRANCH  26  27
BRANCH  26  31
ATOM     31  C   UNL     1      44.302   4.217   9.159  0.00  0.00    +0.000 C 
BRANCH  31  32
ATOM     32  C   UNL     1      45.352   3.367   8.466  0.00  0.00    +0.000 A 
ATOM     33  C   UNL     1      45.463   2.007   8.753  0.00  0.00    +0.000 A 
ATOM     34  C   UNL     1      46.403   1.250   8.060  0.00  0.00    +0.000 A 
ATOM     35  C   UNL     1      47.203   1.866   7.106  0.00  0.00    +0.000 A 
ATOM     36  C   UNL     1      47.039   3.223   6.890  0.00  0.00    +0.000 A 
ATOM     37  N   UNL     1      46.136   3.985   7.545  0.00  0.00    +0.000 NA
ENDBRANCH  31  32
ENDBRANCH  26  31
ENDBRANCH  25  26
ENDBRANCH   4  25
TORSDOF 12
ENDMDL
MODEL 2
REMARK VINA RESULT:    -7.731      1.976      2.708
REMARK INTER + INTRA:         -13.426
REMARK INTER:                 -11.900
REMARK INTRA:                  -1.526
REMARK UNBOUND:                -0.724
REMARK  Name = 
REMARK  12 active torsions:
REMARK  status: ('A' for Active; 'I' for Inactive)
REMARK    1  A    between atoms: N_1  and  C_2
REMARK    2  A    between atoms: C_2  and  N_3
REMARK    3  A    between atoms: C_2  and  C_23
REMARK    4  A    between atoms: N_3  and  C_4
REMARK    5  A    between atoms: C_4  and  C_5
REMARK    6  A    between atoms: C_8  and  C_9
REMARK    7  A    between atoms: C_9  and  N_10
REMARK    8  A    between atoms: N_10  and  C_11
REMARK    9  A    between atoms: N_10  and  C_14
REMARK   10  A    between atoms: C_11  and  C_12
REMARK   11  A    between atoms: C_12  and  O_13
REMARK   12  A    between atoms: C_14  and  C_15
REMARK                            x       y       z     vdW  Elec       q    Type
REMARK                         _______ _______ _______ _____ _____    ______ ____
ROOT
ATOM      1  C   UNL     1      47.212   7.888  12.839  0.00  0.00    +0.000 A 
ATOM      2  C   UNL     1      45.877   8.313  12.907  0.00  0.00    +0.000 A 
ATOM      3  C   UNL     1      44.865   7.581  12.286  0.00  0.00    +0.000 A 
ATOM      4  C   UNL     1      45.171   6.429  11.549  0.00  0.00    +0.000 A 
ATOM      5  C   UNL     1      46.493   5.965  11.536  0.00  0.00    +0.000 A 
ATOM      6  C   UNL     1      47.503   6.687  12.177  0.00  0.00    +0.000 A 
ENDROOT
BRANCH   1   7
ATOM      7  C   UNL     1      48.322   8.732  13.428  0.00  0.00    +0.000 C 
BRANCH   7   8
ATOM      8  N   UNL     1      49.007   8.023  14.502  0.00  0.00    +0.000 NA
ATOM      9  H   UNL     1      49.310   7.122  14.136  0.00  0.00    +0.000 HD
BRANCH   8  10
ATOM     10  C   UNL     1      48.203   7.746  15.675  0.00  0.00    +0.000 C 
BRANCH  10  11
ATOM     11  C   UNL     1      48.929   6.720  16.515  0.00  0.00    +0.000 A 
ATOM     12  C   UNL     1      49.962   7.007  17.400  0.00  0.00    +0.000 A 
ATOM     13  S   UNL     1      50.548   5.633  18.231  0.00  0.00    +0.000 S 
ATOM     14  C   UNL     1      49.425   4.616  17.459  0.00  0.00    +0.000 A 
ATOM     15  N   UNL     1      49.377   3.286  17.739  0.00  0.00    +0.000 NA
ATOM     16  C   UNL     1      48.454   2.650  17.101  0.00  0.00    +0.000 A 
ATOM     17  N   UNL     1      47.587   3.210  16.199  0.00  0.00    +0.000 N 
ATOM     18  C   UNL     1      47.628   4.547  15.846  0.00  0.00    +0.000 A 
ATOM     19  O   UNL     1      46.897   4.997  14.975  0.00  0.00    +0.000 OA
ATOM     20  C   UNL     1      48.628   5.308  16.567  0.00  0.00    +0.000 A 
ATOM     21  H   UNL     1      46.904   2.645  15.717  0.00  0.00    +0.000 HD
ENDBRANCH  10  11
BRANCH  10  22
ATOM     22  N   UNL     1      48.164   8.951  16.459  0.00  0.00    +0.000 NA
ATOM     23  H   UNL     1      48.965   9.524  16.221  0.00  0.00    +0.000 HD
ATOM     24  H   UNL     1      48.305   8.658  17.423  0.00  0.00    +0.000 HD
ENDBRANCH  10  22
ENDBRANCH   8  10
ENDBRANCH   7   8
ENDBRANCH   1   7
BRANCH   4  25
ATOM     25  C   UNL     1      44.098   5.724  10.747  0.00  0.00    +0.000 C 
BRANCH  25  26
ATOM     26  N   UNL     1      44.453   4.324  10.382  0.00  0.00    +0.000 NA
BRANCH  26  27
ATOM     27  C   UNL     1      43.562   3.357  11.072  0.00  0.00    +0.000 C 
BRANCH  27  28
ATOM     28  C   UNL     1      43.928   3.057  12.539  0.00  0.00    +0.000 C 
BRANCH  28  29
ATOM     29  O   UNL     1      45.300   2.684  12.650  0.00  0.00    +0.000 OA
ATOM     30  H   UNL     1      45.831   3.479  12.470  0.00  0.00    +0.000 HD
ENDBRANCH  28  29
ENDBRANCH  27  28
ENDBRANCH  26  27
BRANCH  26  31
ATOM     31  C   UNL     1      44.329   4.168   8.911  0.00  0.00    +0.000 C 
BRANCH  31  32
ATOM     32  C   UNL     1      45.442   3.378   8.246  0.00  0.00    +0.000 A 
ATOM     33  C   UNL     1      45.626   2.028   8.545  0.00  0.00    +0.000 A 
ATOM     34  C   UNL     1      46.624   1.324   7.878  0.00  0.00    +0.000 A 
ATOM     35  C   UNL     1      47.406   1.981   6.936  0.00  0.00    +0.000 A 
ATOM     36  C   UNL     1      47.166   3.325   6.707  0.00  0.00    +0.000 A 
ATOM     37  N   UNL     1      46.207   4.035   7.338  0.00  0.00    +0.000 NA
ENDBRANCH  31  32
ENDBRANCH  26  31
ENDBRANCH  25  26
ENDBRANCH   4  25
TORSDOF 12
ENDMDL
MODEL 3
REMARK VINA RESULT:    -7.435      2.445      3.418
REMARK INTER + INTRA:         -12.940
REMARK INTER:                 -11.587
REMARK INTRA:                  -1.354
REMARK UNBOUND:                -0.724
REMARK  Name = 
REMARK  12 active torsions:
REMARK  status: ('A' for Active; 'I' for Inactive)
REMARK    1  A    between atoms: N_1  and  C_2
REMARK    2  A    between atoms: C_2  and  N_3
REMARK    3  A    between atoms: C_2  and  C_23
REMARK    4  A    between atoms: N_3  and  C_4
REMARK    5  A    between atoms: C_4  and  C_5
REMARK    6  A    between atoms: C_8  and  C_9
REMARK    7  A    between atoms: C_9  and  N_10
REMARK    8  A    between atoms: N_10  and  C_11
REMARK    9  A    between atoms: N_10  and  C_14
REMARK   10  A    between atoms: C_11  and  C_12
REMARK   11  A    between atoms: C_12  and  O_13
REMARK   12  A    between atoms: C_14  and  C_15
REMARK                            x       y       z     vdW  Elec       q    Type
REMARK                         _______ _______ _______ _____ _____    ______ ____
ROOT
ATOM      1  C   UNL     1      48.788   7.261  13.405  0.00  0.00    +0.000 A 
ATOM      2  C   UNL     1      47.949   6.309  14.002  0.00  0.00    +0.000 A 
ATOM      3  C   UNL     1      46.880   5.758  13.294  0.00  0.00    +0.000 A 
ATOM      4  C   UNL     1      46.604   6.177  11.986  0.00  0.00    +0.000 A 
ATOM      5  C   UNL     1      47.479   7.076  11.363  0.00  0.00    +0.000 A 
ATOM      6  C   UNL     1      48.562   7.610  12.065  0.00  0.00    +0.000 A 
ENDROOT
BRANCH   1   7
ATOM      7  C   UNL     1      49.887   7.932  14.201  0.00  0.00    +0.000 C 
BRANCH   7   8
ATOM      8  N   UNL     1      50.649   6.955  14.969  0.00  0.00    +0.000 NA
ATOM      9  H   UNL     1      50.004   6.227  15.274  0.00  0.00    +0.000 HD
BRANCH   8  10
ATOM     10  C   UNL     1      51.290   7.467  16.163  0.00  0.00    +0.000 C 
BRANCH  10  11
ATOM     11  C   UNL     1      50.217   7.783  17.180  0.00  0.00    +0.000 A 
ATOM     12  C   UNL     1      50.006   9.034  17.747  0.00  0.00    +0.000 A 
ATOM     13  S   UNL     1      48.688   9.075  18.835  0.00  0.00    +0.000 S 
ATOM     14  C   UNL     1      48.340   7.432  18.564  0.00  0.00    +0.000 A 
ATOM     15  N   UNL     1      47.294   6.826  19.188  0.00  0.00    +0.000 NA
ATOM     16  C   UNL     1      47.135   5.589  18.859  0.00  0.00    +0.000 A 
ATOM     17  N   UNL     1      47.927   4.896  17.982  0.00  0.00    +0.000 N 
ATOM     18  C   UNL     1      49.029   5.455  17.360  0.00  0.00    +0.000 A 
ATOM     19  O   UNL     1      49.766   4.785  16.650  0.00  0.00    +0.000 OA
ATOM     20  C   UNL     1      49.225   6.856  17.673  0.00  0.00    +0.000 A 
ATOM     21  H   UNL     1      47.758   3.919  17.790  0.00  0.00    +0.000 HD
ENDBRANCH  10  11
BRANCH  10  22
ATOM     22  N   UNL     1      52.069   6.395  16.722  0.00  0.00    +0.000 NA
ATOM     23  H   UNL     1      51.684   5.512  16.408  0.00  0.00    +0.000 HD
ATOM     24  H   UNL     1      51.908   6.430  17.726  0.00  0.00    +0.000 HD
ENDBRANCH  10  22
ENDBRANCH   8  10
ENDBRANCH   7   8
ENDBRANCH   1   7
BRANCH   4  25
ATOM     25  C   UNL     1      45.356   5.698  11.275  0.00  0.00    +0.000 C 
BRANCH  25  26
ATOM     26  N   UNL     1      45.419   4.267  10.865  0.00  0.00    +0.000 NA
BRANCH  26  27
ATOM     27  C   UNL     1      44.694   3.408  11.836  0.00  0.00    +0.000 C 
BRANCH  27  28
ATOM     28  C   UNL     1      43.199   3.191  11.532  0.00  0.00    +0.000 C 
BRANCH  28  29
ATOM     29  O   UNL     1      42.861   1.808  11.623  0.00  0.00    +0.000 OA
ATOM     30  H   UNL     1      43.004   1.536  12.546  0.00  0.00    +0.000 HD
ENDBRANCH  28  29
ENDBRANCH  27  28
ENDBRANCH  26  27
BRANCH  26  31
ATOM     31  C   UNL     1      44.815   4.130   9.516  0.00  0.00    +0.000 C 
BRANCH  31  32
ATOM     32  C   UNL     1      45.586   3.253   8.546  0.00  0.00    +0.000 A 
ATOM     33  C   UNL     1      46.264   3.820   7.467  0.00  0.00    +0.000 A 
ATOM     34  C   UNL     1      47.001   2.989   6.628  0.00  0.00    +0.000 A 
ATOM     35  C   UNL     1      47.042   1.625   6.886  0.00  0.00    +0.000 A 
ATOM     36  C   UNL     1      46.330   1.141   7.970  0.00  0.00    +0.000 A 
ATOM     37  N   UNL     1      45.606   1.920   8.802  0.00  0.00    +0.000 NA
ENDBRANCH  31  32
ENDBRANCH  26  31
ENDBRANCH  25  26
ENDBRANCH   4  25
TORSDOF 12
ENDMDL
MODEL 4
REMARK VINA RESULT:    -6.979      3.241      8.997
REMARK INTER + INTRA:         -12.191
REMARK INTER:                 -10.473
REMARK INTRA:                  -1.718
REMARK UNBOUND:                -0.724
REMARK  Name = 
REMARK  12 active torsions:
REMARK  status: ('A' for Active; 'I' for Inactive)
REMARK    1  A    between atoms: N_1  and  C_2
REMARK    2  A    between atoms: C_2  and  N_3
REMARK    3  A    between atoms: C_2  and  C_23
REMARK    4  A    between atoms: N_3  and  C_4
REMARK    5  A    between atoms: C_4  and  C_5
REMARK    6  A    between atoms: C_8  and  C_9
REMARK    7  A    between atoms: C_9  and  N_10
REMARK    8  A    between atoms: N_10  and  C_11
REMARK    9  A    between atoms: N_10  and  C_14
REMARK   10  A    between atoms: C_11  and  C_12
REMARK   11  A    between atoms: C_12  and  O_13
REMARK   12  A    between atoms: C_14  and  C_15
REMARK                            x       y       z     vdW  Elec       q    Type
REMARK                         _______ _______ _______ _____ _____    ______ ____
ROOT
ATOM      1  C   UNL     1      48.559   7.719  13.106  0.00  0.00    +0.000 A 
ATOM      2  C   UNL     1      49.863   8.235  13.082  0.00  0.00    +0.000 A 
ATOM      3  C   UNL     1      50.744   7.992  14.136  0.00  0.00    +0.000 A 
ATOM      4  C   UNL     1      50.327   7.262  15.257  0.00  0.00    +0.000 A 
ATOM      5  C   UNL     1      49.049   6.689  15.254  0.00  0.00    +0.000 A 
ATOM      6  C   UNL     1      48.175   6.913  14.188  0.00  0.00    +0.000 A 
ENDROOT
BRANCH   1   7
ATOM      7  C   UNL     1      47.572   8.062  12.011  0.00  0.00    +0.000 C 
BRANCH   7   8
ATOM      8  N   UNL     1      46.863   6.874  11.552  0.00  0.00    +0.000 NA
ATOM      9  H   UNL     1      47.210   6.646  10.621  0.00  0.00    +0.000 HD
BRANCH   8  10
ATOM     10  C   UNL     1      45.426   7.014  11.437  0.00  0.00    +0.000 C 
BRANCH  10  11
ATOM     11  C   UNL     1      44.805   5.641  11.560  0.00  0.00    +0.000 A 
ATOM     12  C   UNL     1      44.081   5.194  12.659  0.00  0.00    +0.000 A 
ATOM     13  S   UNL     1      43.475   3.606  12.476  0.00  0.00    +0.000 S 
ATOM     14  C   UNL     1      44.136   3.473  10.914  0.00  0.00    +0.000 A 
ATOM     15  N   UNL     1      43.965   2.344  10.175  0.00  0.00    +0.000 NA
ATOM     16  C   UNL     1      44.494   2.403   9.000  0.00  0.00    +0.000 A 
ATOM     17  N   UNL     1      45.192   3.471   8.500  0.00  0.00    +0.000 N 
ATOM     18  C   UNL     1      45.432   4.621   9.230  0.00  0.00    +0.000 A 
ATOM     19  O   UNL     1      46.131   5.521   8.786  0.00  0.00    +0.000 OA
ATOM     20  C   UNL     1      44.824   4.614  10.545  0.00  0.00    +0.000 A 
ATOM     21  H   UNL     1      45.601   3.438   7.578  0.00  0.00    +0.000 HD
ENDBRANCH  10  11
BRANCH  10  22
ATOM     22  N   UNL     1      44.977   7.760  12.582  0.00  0.00    +0.000 NA
ATOM     23  H   UNL     1      44.371   7.170  13.140  0.00  0.00    +0.000 HD
ATOM     24  H   UNL     1      44.386   8.502  12.214  0.00  0.00    +0.000 HD
ENDBRANCH  10  22
ENDBRANCH   8  10
ENDBRANCH   7   8
ENDBRANCH   1   7
BRANCH   4  25
ATOM     25  C   UNL     1      51.228   7.132  16.467  0.00  0.00    +0.000 C 
BRANCH  25  26
ATOM     26  N   UNL     1      51.767   5.757  16.661  0.00  0.00    +0.000 NA
BRANCH  26  27
ATOM     27  C   UNL     1      53.249   5.779  16.749  0.00  0.00    +0.000 C 
BRANCH  27  28
ATOM     28  C   UNL     1      53.940   6.877  15.915  0.00  0.00    +0.000 C 
BRANCH  28  29
ATOM     29  O   UNL     1      54.107   6.453  14.563  0.00  0.00    +0.000 OA
ATOM     30  H   UNL     1      54.852   6.956  14.193  0.00  0.00    +0.000 HD
ENDBRANCH  28  29
ENDBRANCH  27  28
ENDBRANCH  26  27
BRANCH  26  31
ATOM     31  C   UNL     1      51.193   5.191  17.907  0.00  0.00    +0.000 C 
BRANCH  31  32
ATOM     32  C   UNL     1      49.944   4.347  17.721  0.00  0.00    +0.000 A 
ATOM     33  C   UNL     1      48.718   4.780  18.224  0.00  0.00    +0.000 A 
ATOM     34  C   UNL     1      47.586   4.004  17.990  0.00  0.00    +0.000 A 
ATOM     35  C   UNL     1      47.708   2.825  17.266  0.00  0.00    +0.000 A 
ATOM     36  C   UNL     1      48.964   2.460  16.814  0.00  0.00    +0.000 A 
ATOM     37  N   UNL     1      50.080   3.190  17.024  0.00  0.00    +0.000 NA
ENDBRANCH  31  32
ENDBRANCH  26  31
ENDBRANCH  25  26
ENDBRANCH   4  25
TORSDOF 12
ENDMDL
MODEL 5
REMARK VINA RESULT:    -6.977      2.641      3.220
REMARK INTER + INTRA:         -12.188
REMARK INTER:                 -11.280
REMARK INTRA:                  -0.908
REMARK UNBOUND:                -0.724
REMARK  Name = 
REMARK  12 active torsions:
REMARK  status: ('A' for Active; 'I' for Inactive)
REMARK    1  A    between atoms: N_1  and  C_2
REMARK    2  A    between atoms: C_2  and  N_3
REMARK    3  A    between atoms: C_2  and  C_23
REMARK    4  A    between atoms: N_3  and  C_4
REMARK    5  A    between atoms: C_4  and  C_5
REMARK    6  A    between atoms: C_8  and  C_9
REMARK    7  A    between atoms: C_9  and  N_10
REMARK    8  A    between atoms: N_10  and  C_11
REMARK    9  A    between atoms: N_10  and  C_14
REMARK   10  A    between atoms: C_11  and  C_12
REMARK   11  A    between atoms: C_12  and  O_13
REMARK   12  A    between atoms: C_14  and  C_15
REMARK                            x       y       z     vdW  Elec       q    Type
REMARK                         _______ _______ _______ _____ _____    ______ ____
ROOT
ATOM      1  C   UNL     1      47.769   6.499  13.904  0.00  0.00    +0.000 A 
ATOM      2  C   UNL     1      47.466   7.530  13.002  0.00  0.00    +0.000 A 
ATOM      3  C   UNL     1      46.675   7.282  11.880  0.00  0.00    +0.000 A 
ATOM      4  C   UNL     1      46.203   5.990  11.614  0.00  0.00    +0.000 A 
ATOM      5  C   UNL     1      46.446   4.974  12.548  0.00  0.00    +0.000 A 
ATOM      6  C   UNL     1      47.220   5.228  13.683  0.00  0.00    +0.000 A 
ENDROOT
BRANCH   1   7
ATOM      7  C   UNL     1      48.707   6.742  15.068  0.00  0.00    +0.000 C 
BRANCH   7   8
ATOM      8  N   UNL     1      50.058   7.029  14.603  0.00  0.00    +0.000 NA
ATOM      9  H   UNL     1      50.562   6.145  14.549  0.00  0.00    +0.000 HD
BRANCH   8  10
ATOM     10  C   UNL     1      50.837   7.900  15.458  0.00  0.00    +0.000 C 
BRANCH  10  11
ATOM     11  C   UNL     1      52.266   7.405  15.463  0.00  0.00    +0.000 A 
ATOM     12  C   UNL     1      53.299   7.959  14.717  0.00  0.00    +0.000 A 
ATOM     13  S   UNL     1      54.808   7.197  14.972  0.00  0.00    +0.000 S 
ATOM     14  C   UNL     1      54.138   6.122  16.107  0.00  0.00    +0.000 A 
ATOM     15  N   UNL     1      54.910   5.196  16.735  0.00  0.00    +0.000 NA
ATOM     16  C   UNL     1      54.270   4.475  17.592  0.00  0.00    +0.000 A 
ATOM     17  N   UNL     1      52.932   4.577  17.868  0.00  0.00    +0.000 N 
ATOM     18  C   UNL     1      52.096   5.470  17.222  0.00  0.00    +0.000 A 
ATOM     19  O   UNL     1      50.891   5.478  17.429  0.00  0.00    +0.000 OA
ATOM     20  C   UNL     1      52.781   6.327  16.275  0.00  0.00    +0.000 A 
ATOM     21  H   UNL     1      52.491   3.961  18.535  0.00  0.00    +0.000 HD
ENDBRANCH  10  11
BRANCH  10  22
ATOM     22  N   UNL     1      50.865   9.196  14.836  0.00  0.00    +0.000 NA
ATOM     23  H   UNL     1      50.116   9.249  14.155  0.00  0.00    +0.000 HD
ATOM     24  H   UNL     1      51.731   9.230  14.304  0.00  0.00    +0.000 HD
ENDBRANCH  10  22
ENDBRANCH   8  10
ENDBRANCH   7   8
ENDBRANCH   1   7
BRANCH   4  25
ATOM     25  C   UNL     1      45.479   5.690  10.319  0.00  0.00    +0.000 C 
BRANCH  25  26
ATOM     26  N   UNL     1      44.738   4.397  10.339  0.00  0.00    +0.000 NA
BRANCH  26  27
ATOM     27  C   UNL     1      43.492   4.516  11.138  0.00  0.00    +0.000 C 
BRANCH  27  28
ATOM     28  C   UNL     1      43.291   3.425  12.209  0.00  0.00    +0.000 C 
BRANCH  28  29
ATOM     29  O   UNL     1      42.975   2.174  11.602  0.00  0.00    +0.000 OA
ATOM     30  H   UNL     1      43.499   1.492  12.055  0.00  0.00    +0.000 HD
ENDBRANCH  28  29
ENDBRANCH  27  28
ENDBRANCH  26  27
BRANCH  26  31
ATOM     31  C   UNL     1      44.412   4.013   8.943  0.00  0.00    +0.000 C 
BRANCH  31  32
ATOM     32  C   UNL     1      45.479   3.205   8.226  0.00  0.00    +0.000 A 
ATOM     33  C   UNL     1      45.699   1.869   8.561  0.00  0.00    +0.000 A 
ATOM     34  C   UNL     1      46.651   1.148   7.847  0.00  0.00    +0.000 A 
ATOM     35  C   UNL     1      47.352   1.773   6.824  0.00  0.00    +0.000 A 
ATOM     36  C   UNL     1      47.082   3.106   6.563  0.00  0.00    +0.000 A 
ATOM     37  N   UNL     1      46.166   3.833   7.238  0.00  0.00    +0.000 NA
ENDBRANCH  31  32
ENDBRANCH  26  31
ENDBRANCH  25  26
ENDBRANCH   4  25
TORSDOF 12
ENDMDL
MODEL 6
REMARK VINA RESULT:    -6.967      3.016      4.185
REMARK INTER + INTRA:         -12.170
REMARK INTER:                 -10.657
REMARK INTRA:                  -1.513
REMARK UNBOUND:                -0.724
REMARK  Name = 
REMARK  12 active torsions:
REMARK  status: ('A' for Active; 'I' for Inactive)
REMARK    1  A    between atoms: N_1  and  C_2
REMARK    2  A    between atoms: C_2  and  N_3
REMARK    3  A    between atoms: C_2  and  C_23
REMARK    4  A    between atoms: N_3  and  C_4
REMARK    5  A    between atoms: C_4  and  C_5
REMARK    6  A    between atoms: C_8  and  C_9
REMARK    7  A    between atoms: C_9  and  N_10
REMARK    8  A    between atoms: N_10  and  C_11
REMARK    9  A    between atoms: N_10  and  C_14
REMARK   10  A    between atoms: C_11  and  C_12
REMARK   11  A    between atoms: C_12  and  O_13
REMARK   12  A    between atoms: C_14  and  C_15
REMARK                            x       y       z     vdW  Elec       q    Type
REMARK                         _______ _______ _______ _____ _____    ______ ____
ROOT
ATOM      1  C   UNL     1      48.829   8.685  12.642  0.00  0.00    +0.000 A 
ATOM      2  C   UNL     1      47.641   9.415  12.485  0.00  0.00    +0.000 A 
ATOM      3  C   UNL     1      46.442   8.765  12.189  0.00  0.00    +0.000 A 
ATOM      4  C   UNL     1      46.413   7.377  12.005  0.00  0.00    +0.000 A 
ATOM      5  C   UNL     1      47.582   6.638  12.228  0.00  0.00    +0.000 A 
ATOM      6  C   UNL     1      48.778   7.287  12.546  0.00  0.00    +0.000 A 
ENDROOT
BRANCH   1   7
ATOM      7  C   UNL     1      50.147   9.395  12.866  0.00  0.00    +0.000 C 
BRANCH   7   8
ATOM      8  N   UNL     1      50.777   8.955  14.104  0.00  0.00    +0.000 NA
ATOM      9  H   UNL     1      50.861   7.940  14.066  0.00  0.00    +0.000 HD
BRANCH   8  10
ATOM     10  C   UNL     1      50.049   9.266  15.316  0.00  0.00    +0.000 C 
BRANCH  10  11
ATOM     11  C   UNL     1      49.868   7.988  16.103  0.00  0.00    +0.000 A 
ATOM     12  C   UNL     1      50.620   6.833  15.922  0.00  0.00    +0.000 A 
ATOM     13  S   UNL     1      50.198   5.571  16.995  0.00  0.00    +0.000 S 
ATOM     14  C   UNL     1      49.018   6.533  17.754  0.00  0.00    +0.000 A 
ATOM     15  N   UNL     1      48.284   6.051  18.792  0.00  0.00    +0.000 NA
ATOM     16  C   UNL     1      47.453   6.905  19.285  0.00  0.00    +0.000 A 
ATOM     17  N   UNL     1      47.272   8.186  18.831  0.00  0.00    +0.000 N 
ATOM     18  C   UNL     1      47.961   8.705  17.750  0.00  0.00    +0.000 A 
ATOM     19  O   UNL     1      47.715   9.821  17.316  0.00  0.00    +0.000 OA
ATOM     20  C   UNL     1      48.933   7.790  17.186  0.00  0.00    +0.000 A 
ATOM     21  H   UNL     1      46.584   8.793  19.251  0.00  0.00    +0.000 HD
ENDBRANCH  10  11
BRANCH  10  22
ATOM     22  N   UNL     1      50.894  10.112  16.116  0.00  0.00    +0.000 NA
ATOM     23  H   UNL     1      50.405  10.348  16.972  0.00  0.00    +0.000 HD
ATOM     24  H   UNL     1      50.987  10.982  15.597  0.00  0.00    +0.000 HD
ENDBRANCH  10  22
ENDBRANCH   8  10
ENDBRANCH   7   8
ENDBRANCH   1   7
BRANCH   4  25
ATOM     25  C   UNL     1      45.148   6.692  11.531  0.00  0.00    +0.000 C 
BRANCH  25  26
ATOM     26  N   UNL     1      45.243   5.206  11.526  0.00  0.00    +0.000 NA
BRANCH  26  27
ATOM     27  C   UNL     1      44.779   4.643  12.819  0.00  0.00    +0.000 C 
BRANCH  27  28
ATOM     28  C   UNL     1      43.271   4.332  12.897  0.00  0.00    +0.000 C 
BRANCH  28  29
ATOM     29  O   UNL     1      42.555   5.437  13.446  0.00  0.00    +0.000 OA
ATOM     30  H   UNL     1      41.850   5.666  12.816  0.00  0.00    +0.000 HD
ENDBRANCH  28  29
ENDBRANCH  27  28
ENDBRANCH  26  27
BRANCH  26  31
ATOM     31  C   UNL     1      44.412   4.678  10.415  0.00  0.00    +0.000 C 
BRANCH  31  32
ATOM     32  C   UNL     1      45.161   3.866   9.373  0.00  0.00    +0.000 A 
ATOM     33  C   UNL     1      45.164   2.472   9.432  0.00  0.00    +0.000 A 
ATOM     34  C   UNL     1      45.819   1.761   8.431  0.00  0.00    +0.000 A 
ATOM     35  C   UNL     1      46.448   2.454   7.405  0.00  0.00    +0.000 A 
ATOM     36  C   UNL     1      46.408   3.838   7.427  0.00  0.00    +0.000 A 
ATOM     37  N   UNL     1      45.782   4.556   8.384  0.00  0.00    +0.000 NA
ENDBRANCH  31  32
ENDBRANCH  26  31
ENDBRANCH  25  26
ENDBRANCH   4  25
TORSDOF 12
ENDMDL
MODEL 7
REMARK VINA RESULT:    -6.773      3.472      8.920
REMARK INTER + INTRA:         -11.852
REMARK INTER:                  -9.559
REMARK INTRA:                  -2.293
REMARK UNBOUND:                -0.724
REMARK  Name = 
REMARK  12 active torsions:
REMARK  status: ('A' for Active; 'I' for Inactive)
REMARK    1  A    between atoms: N_1  and  C_2
REMARK    2  A    between atoms: C_2  and  N_3
REMARK    3  A    between atoms: C_2  and  C_23
REMARK    4  A    between atoms: N_3  and  C_4
REMARK    5  A    between atoms: C_4  and  C_5
REMARK    6  A    between atoms: C_8  and  C_9
REMARK    7  A    between atoms: C_9  and  N_10
REMARK    8  A    between atoms: N_10  and  C_11
REMARK    9  A    between atoms: N_10  and  C_14
REMARK   10  A    between atoms: C_11  and  C_12
REMARK   11  A    between atoms: C_12  and  O_13
REMARK   12  A    between atoms: C_14  and  C_15
REMARK                            x       y       z     vdW  Elec       q    Type
REMARK                         _______ _______ _______ _____ _____    ______ ____
ROOT
ATOM      1  C   UNL     1      49.227   8.091  15.510  0.00  0.00    +0.000 A 
ATOM      2  C   UNL     1      48.528   8.851  16.458  0.00  0.00    +0.000 A 
ATOM      3  C   UNL     1      48.872   8.793  17.810  0.00  0.00    +0.000 A 
ATOM      4  C   UNL     1      49.897   7.943  18.246  0.00  0.00    +0.000 A 
ATOM      5  C   UNL     1      50.641   7.234  17.294  0.00  0.00    +0.000 A 
ATOM      6  C   UNL     1      50.310   7.310  15.938  0.00  0.00    +0.000 A 
ENDROOT
BRANCH   1   7
ATOM      7  C   UNL     1      48.794   8.077  14.059  0.00  0.00    +0.000 C 
BRANCH   7   8
ATOM      8  N   UNL     1      47.390   7.705  13.934  0.00  0.00    +0.000 NA
ATOM      9  H   UNL     1      46.921   7.966  14.801  0.00  0.00    +0.000 HD
BRANCH   8  10
ATOM     10  C   UNL     1      47.136   6.294  13.733  0.00  0.00    +0.000 C 
BRANCH  10  11
ATOM     11  C   UNL     1      45.893   6.151  12.885  0.00  0.00    +0.000 A 
ATOM     12  C   UNL     1      45.211   7.208  12.293  0.00  0.00    +0.000 A 
ATOM     13  S   UNL     1      43.864   6.715  11.364  0.00  0.00    +0.000 S 
ATOM     14  C   UNL     1      44.161   5.074  11.699  0.00  0.00    +0.000 A 
ATOM     15  N   UNL     1      43.368   4.099  11.180  0.00  0.00    +0.000 NA
ATOM     16  C   UNL     1      43.736   2.903  11.494  0.00  0.00    +0.000 A 
ATOM     17  N   UNL     1      44.808   2.589  12.288  0.00  0.00    +0.000 N 
ATOM     18  C   UNL     1      45.615   3.546  12.876  0.00  0.00    +0.000 A 
ATOM     19  O   UNL     1      46.510   3.235  13.649  0.00  0.00    +0.000 OA
ATOM     20  C   UNL     1      45.259   4.905  12.521  0.00  0.00    +0.000 A 
ATOM     21  H   UNL     1      45.023   1.629  12.513  0.00  0.00    +0.000 HD
ENDBRANCH  10  11
BRANCH  10  22
ATOM     22  N   UNL     1      48.220   5.774  12.944  0.00  0.00    +0.000 NA
ATOM     23  H   UNL     1      49.097   6.072  13.355  0.00  0.00    +0.000 HD
ATOM     24  H   UNL     1      48.158   6.243  12.044  0.00  0.00    +0.000 HD
ENDBRANCH  10  22
ENDBRANCH   8  10
ENDBRANCH   7   8
ENDBRANCH   1   7
BRANCH   4  25
ATOM     25  C   UNL     1      50.165   7.762  19.725  0.00  0.00    +0.000 C 
BRANCH  25  26
ATOM     26  N   UNL     1      50.147   6.337  20.161  0.00  0.00    +0.000 NA
BRANCH  26  27
ATOM     27  C   UNL     1      50.607   6.211  21.568  0.00  0.00    +0.000 C 
BRANCH  27  28
ATOM     28  C   UNL     1      51.286   4.872  21.920  0.00  0.00    +0.000 C 
BRANCH  28  29
ATOM     29  O   UNL     1      51.875   4.286  20.761  0.00  0.00    +0.000 OA
ATOM     30  H   UNL     1      51.182   3.771  20.313  0.00  0.00    +0.000 HD
ENDBRANCH  28  29
ENDBRANCH  27  28
ENDBRANCH  26  27
BRANCH  26  31
ATOM     31  C   UNL     1      48.764   5.816  20.031  0.00  0.00    +0.000 C 
BRANCH  31  32
ATOM     32  C   UNL     1      48.541   4.845  18.885  0.00  0.00    +0.000 A 
ATOM     33  C   UNL     1      47.429   4.976  18.054  0.00  0.00    +0.000 A 
ATOM     34  C   UNL     1      47.286   4.098  16.983  0.00  0.00    +0.000 A 
ATOM     35  C   UNL     1      48.249   3.120  16.772  0.00  0.00    +0.000 A 
ATOM     36  C   UNL     1      49.316   3.050  17.651  0.00  0.00    +0.000 A 
ATOM     37  N   UNL     1      49.483   3.885  18.698  0.00  0.00    +0.000 NA
ENDBRANCH  31  32
ENDBRANCH  26  31
ENDBRANCH  25  26
ENDBRANCH   4  25
TORSDOF 12
ENDMDL
MODEL 8
REMARK VINA RESULT:    -6.766      3.302      9.470
REMARK INTER + INTRA:         -11.840
REMARK INTER:                 -10.501
REMARK INTRA:                  -1.339
REMARK UNBOUND:                -0.724
REMARK  Name = 
REMARK  12 active torsions:
REMARK  status: ('A' for Active; 'I' for Inactive)
REMARK    1  A    between atoms: N_1  and  C_2
REMARK    2  A    between atoms: C_2  and  N_3
REMARK    3  A    between atoms: C_2  and  C_23
REMARK    4  A    between atoms: N_3  and  C_4
REMARK    5  A    between atoms: C_4  and  C_5
REMARK    6  A    between atoms: C_8  and  C_9
REMARK    7  A    between atoms: C_9  and  N_10
REMARK    8  A    between atoms: N_10  and  C_11
REMARK    9  A    between atoms: N_10  and  C_14
REMARK   10  A    between atoms: C_11  and  C_12
REMARK   11  A    between atoms: C_12  and  O_13
REMARK   12  A    between atoms: C_14  and  C_15
REMARK                            x       y       z     vdW  Elec       q    Type
REMARK                         _______ _______ _______ _____ _____    ______ ____
ROOT
ATOM      1  C   UNL     1      46.933   7.633  13.310  0.00  0.00    +0.000 A 
ATOM      2  C   UNL     1      47.693   8.566  14.030  0.00  0.00    +0.000 A 
ATOM      3  C   UNL     1      48.627   8.144  14.977  0.00  0.00    +0.000 A 
ATOM      4  C   UNL     1      48.793   6.780  15.252  0.00  0.00    +0.000 A 
ATOM      5  C   UNL     1      48.086   5.843  14.487  0.00  0.00    +0.000 A 
ATOM      6  C   UNL     1      47.166   6.267  13.524  0.00  0.00    +0.000 A 
ENDROOT
BRANCH   1   7
ATOM      7  C   UNL     1      45.851   8.089  12.354  0.00  0.00    +0.000 C 
BRANCH   7   8
ATOM      8  N   UNL     1      44.689   7.212  12.418  0.00  0.00    +0.000 NA
ATOM      9  H   UNL     1      44.965   6.367  12.917  0.00  0.00    +0.000 HD
BRANCH   8  10
ATOM     10  C   UNL     1      44.161   6.785  11.139  0.00  0.00    +0.000 C 
BRANCH  10  11
ATOM     11  C   UNL     1      44.035   5.279  11.157  0.00  0.00    +0.000 A 
ATOM     12  C   UNL     1      43.289   4.556  12.080  0.00  0.00    +0.000 A 
ATOM     13  S   UNL     1      43.316   2.869  11.808  0.00  0.00    +0.000 S 
ATOM     14  C   UNL     1      44.303   3.049  10.434  0.00  0.00    +0.000 A 
ATOM     15  N   UNL     1      44.691   1.970   9.704  0.00  0.00    +0.000 NA
ATOM     16  C   UNL     1      45.408   2.265   8.673  0.00  0.00    +0.000 A 
ATOM     17  N   UNL     1      45.789   3.531   8.312  0.00  0.00    +0.000 N 
ATOM     18  C   UNL     1      45.459   4.655   9.048  0.00  0.00    +0.000 A 
ATOM     19  O   UNL     1      45.887   5.760   8.747  0.00  0.00    +0.000 OA
ATOM     20  C   UNL     1      44.622   4.373  10.196  0.00  0.00    +0.000 A 
ATOM     21  H   UNL     1      46.373   3.687   7.504  0.00  0.00    +0.000 HD
ENDBRANCH  10  11
BRANCH  10  22
ATOM     22  N   UNL     1      42.821   7.298  11.038  0.00  0.00    +0.000 NA
ATOM     23  H   UNL     1      42.168   6.529  11.139  0.00  0.00    +0.000 HD
ATOM     24  H   UNL     1      42.722   7.627  10.081  0.00  0.00    +0.000 HD
ENDBRANCH  10  22
ENDBRANCH   8  10
ENDBRANCH   7   8
ENDBRANCH   1   7
BRANCH   4  25
ATOM     25  C   UNL     1      49.690   6.330  16.386  0.00  0.00    +0.000 C 
BRANCH  25  26
ATOM     26  N   UNL     1      48.940   5.846  17.579  0.00  0.00    +0.000 NA
BRANCH  26  27
ATOM     27  C   UNL     1      49.055   4.372  17.712  0.00  0.00    +0.000 C 
BRANCH  27  28
ATOM     28  C   UNL     1      47.716   3.614  17.807  0.00  0.00    +0.000 C 
BRANCH  28  29
ATOM     29  O   UNL     1      46.620   4.527  17.825  0.00  0.00    +0.000 OA
ATOM     30  H   UNL     1      46.941   5.355  18.221  0.00  0.00    +0.000 HD
ENDBRANCH  28  29
ENDBRANCH  27  28
ENDBRANCH  26  27
BRANCH  26  31
ATOM     31  C   UNL     1      49.489   6.509  18.788  0.00  0.00    +0.000 C 
BRANCH  31  32
ATOM     32  C   UNL     1      48.568   7.519  19.450  0.00  0.00    +0.000 A 
ATOM     33  C   UNL     1      48.153   7.338  20.769  0.00  0.00    +0.000 A 
ATOM     34  C   UNL     1      47.350   8.311  21.358  0.00  0.00    +0.000 A 
ATOM     35  C   UNL     1      46.985   9.430  20.620  0.00  0.00    +0.000 A 
ATOM     36  C   UNL     1      47.429   9.526  19.312  0.00  0.00    +0.000 A 
ATOM     37  N   UNL     1      48.208   8.601  18.713  0.00  0.00    +0.000 NA
ENDBRANCH  31  32
ENDBRANCH  26  31
ENDBRANCH  25  26
ENDBRANCH   4  25
TORSDOF 12
ENDMDL
MODEL 9
REMARK VINA RESULT:    -6.538      5.328      7.070
REMARK INTER + INTRA:         -11.466
REMARK INTER:                 -10.026
REMARK INTRA:                  -1.441
REMARK UNBOUND:                -0.724
REMARK  Name = 
REMARK  12 active torsions:
REMARK  status: ('A' for Active; 'I' for Inactive)
REMARK    1  A    between atoms: N_1  and  C_2
REMARK    2  A    between atoms: C_2  and  N_3
REMARK    3  A    between atoms: C_2  and  C_23
REMARK    4  A    between atoms: N_3  and  C_4
REMARK    5  A    between atoms: C_4  and  C_5
REMARK    6  A    between atoms: C_8  and  C_9
REMARK    7  A    between atoms: C_9  and  N_10
REMARK    8  A    between atoms: N_10  and  C_11
REMARK    9  A    between atoms: N_10  and  C_14
REMARK   10  A    between atoms: C_11  and  C_12
REMARK   11  A    between atoms: C_12  and  O_13
REMARK   12  A    between atoms: C_14  and  C_15
REMARK                            x       y       z     vdW  Elec       q    Type
REMARK                         _______ _______ _______ _____ _____    ______ ____
ROOT
ATOM      1  C   UNL     1      50.219   8.429  12.450  0.00  0.00    +0.000 A 
ATOM      2  C   UNL     1      49.693   7.655  11.405  0.00  0.00    +0.000 A 
ATOM      3  C   UNL     1      48.331   7.357  11.357  0.00  0.00    +0.000 A 
ATOM      4  C   UNL     1      47.472   7.793  12.374  0.00  0.00    +0.000 A 
ATOM      5  C   UNL     1      47.980   8.623  13.381  0.00  0.00    +0.000 A 
ATOM      6  C   UNL     1      49.341   8.939  13.417  0.00  0.00    +0.000 A 
ENDROOT
BRANCH   1   7
ATOM      7  C   UNL     1      51.709   8.671  12.558  0.00  0.00    +0.000 C 
BRANCH   7   8
ATOM      8  N   UNL     1      52.453   7.763  11.695  0.00  0.00    +0.000 NA
ATOM      9  H   UNL     1      52.854   7.033  12.283  0.00  0.00    +0.000 HD
BRANCH   8  10
ATOM     10  C   UNL     1      53.553   8.359  10.966  0.00  0.00    +0.000 C 
BRANCH  10  11
ATOM     11  C   UNL     1      53.302   8.166   9.487  0.00  0.00    +0.000 A 
ATOM     12  C   UNL     1      52.963   9.182   8.601  0.00  0.00    +0.000 A 
ATOM     13  S   UNL     1      52.785   8.647   6.988  0.00  0.00    +0.000 S 
ATOM     14  C   UNL     1      53.181   7.049   7.413  0.00  0.00    +0.000 A 
ATOM     15  N   UNL     1      53.231   6.066   6.474  0.00  0.00    +0.000 NA
ATOM     16  C   UNL     1      53.577   4.915   6.940  0.00  0.00    +0.000 A 
ATOM     17  N   UNL     1      53.861   4.646   8.254  0.00  0.00    +0.000 N 
ATOM     18  C   UNL     1      53.779   5.600   9.251  0.00  0.00    +0.000 A 
ATOM     19  O   UNL     1      53.954   5.309  10.426  0.00  0.00    +0.000 OA
ATOM     20  C   UNL     1      53.427   6.920   8.767  0.00  0.00    +0.000 A 
ATOM     21  H   UNL     1      54.102   3.713   8.552  0.00  0.00    +0.000 HD
ENDBRANCH  10  11
BRANCH  10  22
ATOM     22  N   UNL     1      53.501   9.777  11.199  0.00  0.00    +0.000 NA
ATOM     23  H   UNL     1      52.648   9.995  11.701  0.00  0.00    +0.000 HD
ATOM     24  H   UNL     1      53.404  10.205  10.281  0.00  0.00    +0.000 HD
ENDBRANCH  10  22
ENDBRANCH   8  10
ENDBRANCH   7   8
ENDBRANCH   1   7
BRANCH   4  25
ATOM     25  C   UNL     1      46.028   7.339  12.405  0.00  0.00    +0.000 C 
BRANCH  25  26
ATOM     26  N   UNL     1      45.856   5.887  12.120  0.00  0.00    +0.000 NA
BRANCH  26  27
ATOM     27  C   UNL     1      45.488   5.148  13.355  0.00  0.00    +0.000 C 
BRANCH  27  28
ATOM     28  C   UNL     1      46.653   4.421  14.057  0.00  0.00    +0.000 C 
BRANCH  28  29
ATOM     29  O   UNL     1      46.997   5.079  15.275  0.00  0.00    +0.000 OA
ATOM     30  H   UNL     1      46.561   5.949  15.267  0.00  0.00    +0.000 HD
ENDBRANCH  28  29
ENDBRANCH  27  28
ENDBRANCH  26  27
BRANCH  26  31
ATOM     31  C   UNL     1      44.794   5.724  11.096  0.00  0.00    +0.000 C 
BRANCH  31  32
ATOM     32  C   UNL     1      45.056   4.650  10.055  0.00  0.00    +0.000 A 
ATOM     33  C   UNL     1      44.588   3.351  10.247  0.00  0.00    +0.000 A 
ATOM     34  C   UNL     1      44.803   2.407   9.247  0.00  0.00    +0.000 A 
ATOM     35  C   UNL     1      45.475   2.782   8.090  0.00  0.00    +0.000 A 
ATOM     36  C   UNL     1      45.918   4.089   7.985  0.00  0.00    +0.000 A 
ATOM     37  N   UNL     1      45.725   5.028   8.936  0.00  0.00    +0.000 NA
ENDBRANCH  31  32
ENDBRANCH  26  31
ENDBRANCH  25  26
ENDBRANCH   4  25
TORSDOF 12
ENDMDL
