MODEL 1
REMARK VINA RESULT:    -7.492      0.000      0.000
REMARK INTER + INTRA:         -11.855
REMARK INTER:                 -10.558
REMARK INTRA:                  -1.297
REMARK UNBOUND:                -1.297
REMARK  Name = 
REMARK  7 active torsions:
REMARK  status: ('A' for Active; 'I' for Inactive)
REMARK    1  A    between atoms: C_2  and  C_20
REMARK    2  A    between atoms: N_3  and  C_4
REMARK    3  A    between atoms: C_4  and  C_5
REMARK    4  A    between atoms: C_8  and  C_9
REMARK    5  A    between atoms: C_9  and  N_10
REMARK    6  A    between atoms: N_10  and  C_11
REMARK    7  A    between atoms: C_11  and  C_12
REMARK                            x       y       z     vdW  Elec       q    Type
REMARK                         _______ _______ _______ _____ _____    ______ ____
ROOT
ATOM      1  C   UNL     1      46.079   6.776  12.436  0.00  0.00    +0.000 A 
ATOM      2  C   UNL     1      46.475   6.615  11.104  0.00  0.00    +0.000 A 
ATOM      3  C   UNL     1      45.797   5.730  10.267  0.00  0.00    +0.000 A 
ATOM      4  C   UNL     1      44.727   4.961  10.746  0.00  0.00    +0.000 A 
ATOM      5  C   UNL     1      44.293   5.174  12.064  0.00  0.00    +0.000 A 
ATOM      6  C   UNL     1      44.960   6.075  12.900  0.00  0.00    +0.000 A 
ENDROOT
BRANCH   1   7
ATOM      7  C   UNL     1      46.818   7.743  13.322  0.00  0.00    +0.000 C 
BRANCH   7  10
ATOM      8  O   UNL     1      49.441   6.788  13.700  0.00  0.00    +0.000 OA
ATOM      9  C   UNL     1      48.636   6.712  14.624  0.00  0.00    +0.000 C 
ATOM     10  N   UNL     1      47.321   7.077  14.495  0.00  0.00    +0.000 N 
ATOM     11  H   UNL     1      46.761   7.188  15.331  0.00  0.00    +0.000 HD
BRANCH   9  12
ATOM     12  C   UNL     1      49.024   6.165  15.931  0.00  0.00    +0.000 A 
ATOM     13  C   UNL     1      50.014   6.793  16.676  0.00  0.00    +0.000 A 
ATOM     14  S   UNL     1      50.358   6.009  18.151  0.00  0.00    +0.000 S 
ATOM     15  C   UNL     1      49.158   4.835  17.871  0.00  0.00    +0.000 A 
ATOM     16  N   UNL     1      48.907   3.859  18.785  0.00  0.00    +0.000 NA
ATOM     17  C   UNL     1      47.939   3.066  18.466  0.00  0.00    +0.000 A 
ATOM     18  N   UNL     1      47.211   3.149  17.309  0.00  0.00    +0.000 N 
ATOM     19  C   UNL     1      47.480   4.067  16.324  0.00  0.00    +0.000 A 
ATOM     20  O   UNL     1      46.896   4.028  15.246  0.00  0.00    +0.000 OA
ATOM     21  C   UNL     1      48.525   5.019  16.655  0.00  0.00    +0.000 A 
ATOM     22  H   UNL     1      46.484   2.480  17.105  0.00  0.00    +0.000 HD
ENDBRANCH   9  12
ENDBRANCH   7  10
ENDBRANCH   1   7
BRANCH   4  23
ATOM     23  C   UNL     1      43.997   3.954   9.880  0.00  0.00    +0.000 C 
BRANCH  23  24
ATOM     24  N   UNL     1      44.031   4.202   8.435  0.00  0.00    +0.000 NA
ATOM     25  H   UNL     1      44.506   5.085   8.258  0.00  0.00    +0.000 HD
BRANCH  24  26
ATOM     26  C   UNL     1      44.661   3.120   7.670  0.00  0.00    +0.000 C 
BRANCH  26  27
ATOM     27  C   UNL     1      46.176   3.067   7.977  0.00  0.00    +0.000 C 
ATOM     28  C   UNL     1      47.035   3.737   6.892  0.00  0.00    +0.000 C 
ATOM     29  C   UNL     1      47.198   2.867   5.647  0.00  0.00    +0.000 C 
ATOM     30  N   UNL     1      47.722   1.537   5.978  0.00  0.00    +0.000 NA
ATOM     31  C   UNL     1      46.824   0.844   6.898  0.00  0.00    +0.000 C 
ATOM     32  C   UNL     1      46.649   1.619   8.202  0.00  0.00    +0.000 C 
ATOM     33  H   UNL     1      48.635   1.646   6.421  0.00  0.00    +0.000 HD
ENDBRANCH  26  27
ENDBRANCH  24  26
ENDBRANCH  23  24
ENDBRANCH   4  23
TORSDOF 7
ENDMDL
MODEL 2
REMARK VINA RESULT:    -7.115      2.386      3.225
REMARK INTER + INTRA:         -11.324
REMARK INTER:                 -10.292
REMARK INTRA:                  -1.032
REMARK UNBOUND:                -1.297
REMARK  Name = 
REMARK  7 active torsions:
REMARK  status: ('A' for Active; 'I' for Inactive)
REMARK    1  A    between atoms: C_2  and  C_20
REMARK    2  A    between atoms: N_3  and  C_4
REMARK    3  A    between atoms: C_4  and  C_5
REMARK    4  A    between atoms: C_8  and  C_9
REMARK    5  A    between atoms: C_9  and  N_10
REMARK    6  A    between atoms: N_10  and  C_11
REMARK    7  A    between atoms: C_11  and  C_12
REMARK                            x       y       z     vdW  Elec       q    Type
REMARK                         _______ _______ _______ _____ _____    ______ ____
ROOT
ATOM      1  C   UNL     1      46.612   4.738  14.322  0.00  0.00    +0.000 A 
ATOM      2  C   UNL     1      45.596   4.230  13.505  0.00  0.00    +0.000 A 
ATOM      3  C   UNL     1      45.424   4.711  12.208  0.00  0.00    +0.000 A 
ATOM      4  C   UNL     1      46.240   5.734  11.704  0.00  0.00    +0.000 A 
ATOM      5  C   UNL     1      47.298   6.195  12.505  0.00  0.00    +0.000 A 
ATOM      6  C   UNL     1      47.484   5.699  13.799  0.00  0.00    +0.000 A 
ENDROOT
BRANCH   1   7
ATOM      7  C   UNL     1      46.788   4.198  15.716  0.00  0.00    +0.000 C 
BRANCH   7  10
ATOM      8  O   UNL     1      47.949   5.380  17.995  0.00  0.00    +0.000 OA
ATOM      9  C   UNL     1      48.650   4.705  17.247  0.00  0.00    +0.000 C 
ATOM     10  N   UNL     1      48.182   4.166  16.076  0.00  0.00    +0.000 N 
ATOM     11  H   UNL     1      48.734   3.457  15.610  0.00  0.00    +0.000 HD
BRANCH   9  12
ATOM     12  C   UNL     1      50.072   4.473  17.536  0.00  0.00    +0.000 A 
ATOM     13  C   UNL     1      50.867   5.523  17.976  0.00  0.00    +0.000 A 
ATOM     14  S   UNL     1      52.495   5.084  18.234  0.00  0.00    +0.000 S 
ATOM     15  C   UNL     1      52.182   3.464  17.819  0.00  0.00    +0.000 A 
ATOM     16  N   UNL     1      53.167   2.527  17.863  0.00  0.00    +0.000 NA
ATOM     17  C   UNL     1      52.780   1.331  17.569  0.00  0.00    +0.000 A 
ATOM     18  N   UNL     1      51.500   0.988  17.221  0.00  0.00    +0.000 N 
ATOM     19  C   UNL     1      50.493   1.912  17.089  0.00  0.00    +0.000 A 
ATOM     20  O   UNL     1      49.394   1.590  16.647  0.00  0.00    +0.000 OA
ATOM     21  C   UNL     1      50.861   3.266  17.458  0.00  0.00    +0.000 A 
ATOM     22  H   UNL     1      51.267   0.038  16.976  0.00  0.00    +0.000 HD
ENDBRANCH   9  12
ENDBRANCH   7  10
ENDBRANCH   1   7
BRANCH   4  23
ATOM     23  C   UNL     1      46.052   6.317  10.319  0.00  0.00    +0.000 C 
BRANCH  23  24
ATOM     24  N   UNL     1      45.398   5.446   9.336  0.00  0.00    +0.000 NA
ATOM     25  H   UNL     1      44.688   5.979   8.839  0.00  0.00    +0.000 HD
BRANCH  24  26
ATOM     26  C   UNL     1      46.331   4.827   8.390  0.00  0.00    +0.000 C 
BRANCH  26  27
ATOM     27  C   UNL     1      45.576   3.835   7.474  0.00  0.00    +0.000 C 
ATOM     28  C   UNL     1      44.755   2.796   8.256  0.00  0.00    +0.000 C 
ATOM     29  C   UNL     1      45.618   1.684   8.845  0.00  0.00    +0.000 C 
ATOM     30  N   UNL     1      46.441   1.031   7.819  0.00  0.00    +0.000 NA
ATOM     31  C   UNL     1      47.327   1.999   7.178  0.00  0.00    +0.000 C 
ATOM     32  C   UNL     1      46.540   3.124   6.508  0.00  0.00    +0.000 C 
ATOM     33  H   UNL     1      45.823   0.626   7.115  0.00  0.00    +0.000 HD
ENDBRANCH  26  27
ENDBRANCH  24  26
ENDBRANCH  23  24
ENDBRANCH   4  23
TORSDOF 7
ENDMDL
MODEL 3
REMARK VINA RESULT:    -6.907      2.869      3.716
REMARK INTER + INTRA:         -11.031
REMARK INTER:                  -9.497
REMARK INTRA:                  -1.534
REMARK UNBOUND:                -1.297
REMARK  Name = 
REMARK  7 active torsions:
REMARK  status: ('A' for Active; 'I' for Inactive)
REMARK    1  A    between atoms: C_2  and  C_20
REMARK    2  A    between atoms: N_3  and  C_4
REMARK    3  A    between atoms: C_4  and  C_5
REMARK    4  A    between atoms: C_8  and  C_9
REMARK    5  A    between atoms: C_9  and  N_10
REMARK    6  A    between atoms: N_10  and  C_11
REMARK    7  A    between atoms: C_11  and  C_12
REMARK                            x       y       z     vdW  Elec       q    Type
REMARK                         _______ _______ _______ _____ _____    ______ ____
ROOT
ATOM      1  C   UNL     1      48.265   7.858  12.997  0.00  0.00    +0.000 A 
ATOM      2  C   UNL     1      47.311   8.765  13.472  0.00  0.00    +0.000 A 
ATOM      3  C   UNL     1      46.017   8.767  12.955  0.00  0.00    +0.000 A 
ATOM      4  C   UNL     1      45.649   7.885  11.930  0.00  0.00    +0.000 A 
ATOM      5  C   UNL     1      46.590   6.934  11.501  0.00  0.00    +0.000 A 
ATOM      6  C   UNL     1      47.884   6.919  12.033  0.00  0.00    +0.000 A 
ENDROOT
BRANCH   1   7
ATOM      7  C   UNL     1      49.654   7.866  13.575  0.00  0.00    +0.000 C 
BRANCH   7  10
ATOM      8  O   UNL     1      49.524   8.517  16.313  0.00  0.00    +0.000 OA
ATOM      9  C   UNL     1      49.602   7.338  15.981  0.00  0.00    +0.000 C 
ATOM     10  N   UNL     1      49.753   6.943  14.676  0.00  0.00    +0.000 N 
ATOM     11  H   UNL     1      49.605   5.970  14.441  0.00  0.00    +0.000 HD
BRANCH   9  12
ATOM     12  C   UNL     1      49.594   6.261  16.979  0.00  0.00    +0.000 A 
ATOM     13  C   UNL     1      50.423   6.344  18.090  0.00  0.00    +0.000 A 
ATOM     14  S   UNL     1      50.307   4.997  19.130  0.00  0.00    +0.000 S 
ATOM     15  C   UNL     1      49.107   4.281  18.159  0.00  0.00    +0.000 A 
ATOM     16  N   UNL     1      48.539   3.095  18.508  0.00  0.00    +0.000 NA
ATOM     17  C   UNL     1      47.610   2.692  17.708  0.00  0.00    +0.000 A 
ATOM     18  N   UNL     1      47.206   3.359  16.582  0.00  0.00    +0.000 N 
ATOM     19  C   UNL     1      47.803   4.518  16.149  0.00  0.00    +0.000 A 
ATOM     20  O   UNL     1      47.506   5.016  15.068  0.00  0.00    +0.000 OA
ATOM     21  C   UNL     1      48.820   5.044  17.041  0.00  0.00    +0.000 A 
ATOM     22  H   UNL     1      46.491   2.977  15.982  0.00  0.00    +0.000 HD
ENDBRANCH   9  12
ENDBRANCH   7  10
ENDBRANCH   1   7
BRANCH   4  23
ATOM     23  C   UNL     1      44.267   7.889  11.309  0.00  0.00    +0.000 C 
BRANCH  23  24
ATOM     24  N   UNL     1      43.342   6.857  11.787  0.00  0.00    +0.000 NA
ATOM     25  H   UNL     1      42.435   7.280  11.969  0.00  0.00    +0.000 HD
BRANCH  24  26
ATOM     26  C   UNL     1      43.204   5.723  10.868  0.00  0.00    +0.000 C 
BRANCH  26  27
ATOM     27  C   UNL     1      42.911   4.429  11.664  0.00  0.00    +0.000 C 
ATOM     28  C   UNL     1      43.372   4.505  13.129  0.00  0.00    +0.000 C 
ATOM     29  C   UNL     1      44.880   4.328  13.285  0.00  0.00    +0.000 C 
ATOM     30  N   UNL     1      45.351   3.088  12.655  0.00  0.00    +0.000 NA
ATOM     31  C   UNL     1      45.040   3.085  11.228  0.00  0.00    +0.000 C 
ATOM     32  C   UNL     1      43.537   3.200  10.980  0.00  0.00    +0.000 C 
ATOM     33  H   UNL     1      44.883   2.298  13.101  0.00  0.00    +0.000 HD
ENDBRANCH  26  27
ENDBRANCH  24  26
ENDBRANCH  23  24
ENDBRANCH   4  23
TORSDOF 7
ENDMDL
MODEL 4
REMARK VINA RESULT:    -6.841      1.736      2.210
REMARK INTER + INTRA:         -10.938
REMARK INTER:                 -10.000
REMARK INTRA:                  -0.938
REMARK UNBOUND:                -1.297
REMARK  Name = 
REMARK  7 active torsions:
REMARK  status: ('A' for Active; 'I' for Inactive)
REMARK    1  A    between atoms: C_2  and  C_20
REMARK    2  A    between atoms: N_3  and  C_4
REMARK    3  A    between atoms: C_4  and  C_5
REMARK    4  A    between atoms: C_8  and  C_9
REMARK    5  A    between atoms: C_9  and  N_10
REMARK    6  A    between atoms: N_10  and  C_11
REMARK    7  A    between atoms: C_11  and  C_12
REMARK                            x       y       z     vdW  Elec       q    Type
REMARK                         _______ _______ _______ _____ _____    ______ ____
ROOT
ATOM      1  C   UNL     1      47.039   6.282  13.141  0.00  0.00    +0.000 A 
ATOM      2  C   UNL     1      46.527   6.697  11.907  0.00  0.00    +0.000 A 
ATOM      3  C   UNL     1      45.457   6.021  11.322  0.00  0.00    +0.000 A 
ATOM      4  C   UNL     1      44.891   4.896  11.938  0.00  0.00    +0.000 A 
ATOM      5  C   UNL     1      45.366   4.523  13.206  0.00  0.00    +0.000 A 
ATOM      6  C   UNL     1      46.427   5.212  13.803  0.00  0.00    +0.000 A 
ENDROOT
BRANCH   1   7
ATOM      7  C   UNL     1      48.188   7.030  13.761  0.00  0.00    +0.000 C 
BRANCH   7  10
ATOM      8  O   UNL     1      50.315   6.513  15.535  0.00  0.00    +0.000 OA
ATOM      9  C   UNL     1      49.213   6.801  15.990  0.00  0.00    +0.000 C 
ATOM     10  N   UNL     1      48.108   6.985  15.198  0.00  0.00    +0.000 N 
ATOM     11  H   UNL     1      47.286   7.418  15.601  0.00  0.00    +0.000 HD
BRANCH   9  12
ATOM     12  C   UNL     1      48.990   6.915  17.438  0.00  0.00    +0.000 A 
ATOM     13  C   UNL     1      48.841   8.169  18.016  0.00  0.00    +0.000 A 
ATOM     14  S   UNL     1      48.620   8.118  19.707  0.00  0.00    +0.000 S 
ATOM     15  C   UNL     1      48.662   6.416  19.716  0.00  0.00    +0.000 A 
ATOM     16  N   UNL     1      48.497   5.719  20.873  0.00  0.00    +0.000 NA
ATOM     17  C   UNL     1      48.504   4.436  20.727  0.00  0.00    +0.000 A 
ATOM     18  N   UNL     1      48.675   3.786  19.533  0.00  0.00    +0.000 N 
ATOM     19  C   UNL     1      48.922   4.448  18.356  0.00  0.00    +0.000 A 
ATOM     20  O   UNL     1      49.202   3.832  17.331  0.00  0.00    +0.000 OA
ATOM     21  C   UNL     1      48.873   5.895  18.453  0.00  0.00    +0.000 A 
ATOM     22  H   UNL     1      48.698   2.779  19.490  0.00  0.00    +0.000 HD
ENDBRANCH   9  12
ENDBRANCH   7  10
ENDBRANCH   1   7
BRANCH   4  23
ATOM     23  C   UNL     1      43.760   4.107  11.310  0.00  0.00    +0.000 C 
BRANCH  23  24
ATOM     24  N   UNL     1      44.078   2.732  10.911  0.00  0.00    +0.000 NA
ATOM     25  H   UNL     1      43.281   2.335  10.419  0.00  0.00    +0.000 HD
BRANCH  24  26
ATOM     26  C   UNL     1      45.291   2.625  10.093  0.00  0.00    +0.000 C 
BRANCH  26  27
ATOM     27  C   UNL     1      44.918   2.243   8.641  0.00  0.00    +0.000 C 
ATOM     28  C   UNL     1      45.741   1.063   8.097  0.00  0.00    +0.000 C 
ATOM     29  C   UNL     1      47.155   1.467   7.689  0.00  0.00    +0.000 C 
ATOM     30  N   UNL     1      47.149   2.581   6.734  0.00  0.00    +0.000 NA
ATOM     31  C   UNL     1      46.494   3.752   7.311  0.00  0.00    +0.000 C 
ATOM     32  C   UNL     1      45.046   3.452   7.697  0.00  0.00    +0.000 C 
ATOM     33  H   UNL     1      46.639   2.291   5.898  0.00  0.00    +0.000 HD
ENDBRANCH  26  27
ENDBRANCH  24  26
ENDBRANCH  23  24
ENDBRANCH   4  23
TORSDOF 7
ENDMDL
MODEL 5
REMARK VINA RESULT:    -6.734      4.030     10.328
REMARK INTER + INTRA:         -10.788
REMARK INTER:                  -9.730
REMARK INTRA:                  -1.057
REMARK UNBOUND:                -1.297
REMARK  Name = 
REMARK  7 active torsions:
REMARK  status: ('A' for Active; 'I' for Inactive)
REMARK    1  A    between atoms: C_2  and  C_20
REMARK    2  A    between atoms: N_3  and  C_4
REMARK    3  A    between atoms: C_4  and  C_5
REMARK    4  A    between atoms: C_8  and  C_9
REMARK    5  A    between atoms: C_9  and  N_10
REMARK    6  A    between atoms: N_10  and  C_11
REMARK    7  A    between atoms: C_11  and  C_12
REMARK                            x       y       z     vdW  Elec       q    Type
REMARK                         _______ _______ _______ _____ _____    ______ ____
ROOT
ATOM      1  C   UNL     1      48.674   3.354  17.158  0.00  0.00    +0.000 A 
ATOM      2  C   UNL     1      49.443   4.448  17.570  0.00  0.00    +0.000 A 
ATOM      3  C   UNL     1      50.813   4.307  17.791  0.00  0.00    +0.000 A 
ATOM      4  C   UNL     1      51.443   3.064  17.637  0.00  0.00    +0.000 A 
ATOM      5  C   UNL     1      50.680   1.986  17.162  0.00  0.00    +0.000 A 
ATOM      6  C   UNL     1      49.310   2.130  16.921  0.00  0.00    +0.000 A 
ENDROOT
BRANCH   1   7
ATOM      7  C   UNL     1      47.199   3.529  16.915  0.00  0.00    +0.000 C 
BRANCH   7  10
ATOM      8  O   UNL     1      47.355   3.090  14.137  0.00  0.00    +0.000 OA
ATOM      9  C   UNL     1      46.988   4.186  14.550  0.00  0.00    +0.000 C 
ATOM     10  N   UNL     1      46.965   4.506  15.884  0.00  0.00    +0.000 N 
ATOM     11  H   UNL     1      46.466   5.336  16.178  0.00  0.00    +0.000 HD
BRANCH   9  12
ATOM     12  C   UNL     1      46.596   5.259  13.627  0.00  0.00    +0.000 A 
ATOM     13  C   UNL     1      47.501   6.267  13.318  0.00  0.00    +0.000 A 
ATOM     14  S   UNL     1      46.872   7.444  12.255  0.00  0.00    +0.000 S 
ATOM     15  C   UNL     1      45.389   6.619  12.130  0.00  0.00    +0.000 A 
ATOM     16  N   UNL     1      44.392   7.088  11.331  0.00  0.00    +0.000 NA
ATOM     17  C   UNL     1      43.342   6.338  11.294  0.00  0.00    +0.000 A 
ATOM     18  N   UNL     1      43.190   5.171  11.993  0.00  0.00    +0.000 N 
ATOM     19  C   UNL     1      44.136   4.701  12.870  0.00  0.00    +0.000 A 
ATOM     20  O   UNL     1      43.912   3.724  13.579  0.00  0.00    +0.000 OA
ATOM     21  C   UNL     1      45.361   5.478  12.911  0.00  0.00    +0.000 A 
ATOM     22  H   UNL     1      42.331   4.644  11.942  0.00  0.00    +0.000 HD
ENDBRANCH   9  12
ENDBRANCH   7  10
ENDBRANCH   1   7
BRANCH   4  23
ATOM     23  C   UNL     1      52.919   2.860  17.914  0.00  0.00    +0.000 C 
BRANCH  23  24
ATOM     24  N   UNL     1      53.280   2.583  19.309  0.00  0.00    +0.000 NA
ATOM     25  H   UNL     1      53.861   1.748  19.343  0.00  0.00    +0.000 HD
BRANCH  24  26
ATOM     26  C   UNL     1      53.953   3.704  19.973  0.00  0.00    +0.000 C 
BRANCH  26  27
ATOM     27  C   UNL     1      53.316   3.955  21.361  0.00  0.00    +0.000 C 
ATOM     28  C   UNL     1      51.968   4.692  21.283  0.00  0.00    +0.000 C 
ATOM     29  C   UNL     1      52.126   6.187  21.020  0.00  0.00    +0.000 C 
ATOM     30  N   UNL     1      53.009   6.823  22.005  0.00  0.00    +0.000 NA
ATOM     31  C   UNL     1      54.337   6.216  21.973  0.00  0.00    +0.000 C 
ATOM     32  C   UNL     1      54.280   4.722  22.285  0.00  0.00    +0.000 C 
ATOM     33  H   UNL     1      52.606   6.696  22.934  0.00  0.00    +0.000 HD
ENDBRANCH  26  27
ENDBRANCH  24  26
ENDBRANCH  23  24
ENDBRANCH   4  23
TORSDOF 7
ENDMDL
MODEL 6
REMARK VINA RESULT:    -6.680      2.859      8.356
REMARK INTER + INTRA:         -10.710
REMARK INTER:                  -8.963
REMARK INTRA:                  -1.747
REMARK UNBOUND:                -1.297
REMARK  Name = 
REMARK  7 active torsions:
REMARK  status: ('A' for Active; 'I' for Inactive)
REMARK    1  A    between atoms: C_2  and  C_20
REMARK    2  A    between atoms: N_3  and  C_4
REMARK    3  A    between atoms: C_4  and  C_5
REMARK    4  A    between atoms: C_8  and  C_9
REMARK    5  A    between atoms: C_9  and  N_10
REMARK    6  A    between atoms: N_10  and  C_11
REMARK    7  A    between atoms: C_11  and  C_12
REMARK                            x       y       z     vdW  Elec       q    Type
REMARK                         _______ _______ _______ _____ _____    ______ ____
ROOT
ATOM      1  C   UNL     1      48.358   7.870  13.444  0.00  0.00    +0.000 A 
ATOM      2  C   UNL     1      47.760   8.526  14.524  0.00  0.00    +0.000 A 
ATOM      3  C   UNL     1      48.399   8.579  15.762  0.00  0.00    +0.000 A 
ATOM      4  C   UNL     1      49.637   7.952  15.961  0.00  0.00    +0.000 A 
ATOM      5  C   UNL     1      50.262   7.349  14.858  0.00  0.00    +0.000 A 
ATOM      6  C   UNL     1      49.631   7.312  13.611  0.00  0.00    +0.000 A 
ENDROOT
BRANCH   1   7
ATOM      7  C   UNL     1      47.657   7.831  12.113  0.00  0.00    +0.000 C 
BRANCH   7  10
ATOM      8  O   UNL     1      44.889   7.464  12.490  0.00  0.00    +0.000 OA
ATOM      9  C   UNL     1      45.568   6.525  12.085  0.00  0.00    +0.000 C 
ATOM     10  N   UNL     1      46.931   6.598  11.955  0.00  0.00    +0.000 N 
ATOM     11  H   UNL     1      47.411   5.877  11.429  0.00  0.00    +0.000 HD
BRANCH   9  12
ATOM     12  C   UNL     1      44.962   5.227  11.761  0.00  0.00    +0.000 A 
ATOM     13  C   UNL     1      44.235   4.545  12.728  0.00  0.00    +0.000 A 
ATOM     14  S   UNL     1      43.627   3.044  12.191  0.00  0.00    +0.000 S 
ATOM     15  C   UNL     1      44.269   3.279  10.632  0.00  0.00    +0.000 A 
ATOM     16  N   UNL     1      44.077   2.357   9.650  0.00  0.00    +0.000 NA
ATOM     17  C   UNL     1      44.577   2.685   8.506  0.00  0.00    +0.000 A 
ATOM     18  N   UNL     1      45.264   3.844   8.257  0.00  0.00    +0.000 N 
ATOM     19  C   UNL     1      45.548   4.765   9.235  0.00  0.00    +0.000 A 
ATOM     20  O   UNL     1      46.278   5.725   9.007  0.00  0.00    +0.000 OA
ATOM     21  C   UNL     1      44.964   4.471  10.531  0.00  0.00    +0.000 A 
ATOM     22  H   UNL     1      45.654   4.029   7.345  0.00  0.00    +0.000 HD
ENDBRANCH   9  12
ENDBRANCH   7  10
ENDBRANCH   1   7
BRANCH   4  23
ATOM     23  C   UNL     1      50.339   7.945  17.304  0.00  0.00    +0.000 C 
BRANCH  23  24
ATOM     24  N   UNL     1      49.784   7.042  18.318  0.00  0.00    +0.000 NA
ATOM     25  H   UNL     1      48.800   7.259  18.455  0.00  0.00    +0.000 HD
BRANCH  24  26
ATOM     26  C   UNL     1      49.957   5.622  17.993  0.00  0.00    +0.000 C 
BRANCH  26  27
ATOM     27  C   UNL     1      48.650   4.849  18.291  0.00  0.00    +0.000 C 
ATOM     28  C   UNL     1      48.830   3.322  18.252  0.00  0.00    +0.000 C 
ATOM     29  C   UNL     1      48.900   2.771  16.830  0.00  0.00    +0.000 C 
ATOM     30  N   UNL     1      47.737   3.178  16.032  0.00  0.00    +0.000 NA
ATOM     31  C   UNL     1      47.654   4.635  15.949  0.00  0.00    +0.000 C 
ATOM     32  C   UNL     1      47.523   5.269  17.332  0.00  0.00    +0.000 C 
ATOM     33  H   UNL     1      46.893   2.820  16.479  0.00  0.00    +0.000 HD
ENDBRANCH  26  27
ENDBRANCH  24  26
ENDBRANCH  23  24
ENDBRANCH   4  23
TORSDOF 7
ENDMDL
MODEL 7
REMARK VINA RESULT:    -6.528      3.744      9.324
REMARK INTER + INTRA:         -10.496
REMARK INTER:                  -8.939
REMARK INTRA:                  -1.557
REMARK UNBOUND:                -1.297
REMARK  Name = 
REMARK  7 active torsions:
REMARK  status: ('A' for Active; 'I' for Inactive)
REMARK    1  A    between atoms: C_2  and  C_20
REMARK    2  A    between atoms: N_3  and  C_4
REMARK    3  A    between atoms: C_4  and  C_5
REMARK    4  A    between atoms: C_8  and  C_9
REMARK    5  A    between atoms: C_9  and  N_10
REMARK    6  A    between atoms: N_10  and  C_11
REMARK    7  A    between atoms: C_11  and  C_12
REMARK                            x       y       z     vdW  Elec       q    Type
REMARK                         _______ _______ _______ _____ _____    ______ ____
ROOT
ATOM      1  C   UNL     1      48.786   6.513  15.530  0.00  0.00    +0.000 A 
ATOM      2  C   UNL     1      49.977   6.737  16.229  0.00  0.00    +0.000 A 
ATOM      3  C   UNL     1      50.361   5.884  17.262  0.00  0.00    +0.000 A 
ATOM      4  C   UNL     1      49.553   4.804  17.644  0.00  0.00    +0.000 A 
ATOM      5  C   UNL     1      48.392   4.546  16.898  0.00  0.00    +0.000 A 
ATOM      6  C   UNL     1      48.014   5.390  15.848  0.00  0.00    +0.000 A 
ENDROOT
BRANCH   1   7
ATOM      7  C   UNL     1      48.393   7.440  14.411  0.00  0.00    +0.000 C 
BRANCH   7  10
ATOM      8  O   UNL     1      47.791   7.128  11.677  0.00  0.00    +0.000 OA
ATOM      9  C   UNL     1      46.935   6.854  12.513  0.00  0.00    +0.000 C 
ATOM     10  N   UNL     1      47.120   7.057  13.857  0.00  0.00    +0.000 N 
ATOM     11  H   UNL     1      46.474   6.629  14.508  0.00  0.00    +0.000 HD
BRANCH   9  12
ATOM     12  C   UNL     1      45.619   6.336  12.118  0.00  0.00    +0.000 A 
ATOM     13  C   UNL     1      44.687   7.188  11.541  0.00  0.00    +0.000 A 
ATOM     14  S   UNL     1      43.205   6.428  11.172  0.00  0.00    +0.000 S 
ATOM     15  C   UNL     1      43.777   4.922  11.721  0.00  0.00    +0.000 A 
ATOM     16  N   UNL     1      42.996   3.811  11.655  0.00  0.00    +0.000 NA
ATOM     17  C   UNL     1      43.572   2.729  12.061  0.00  0.00    +0.000 A 
ATOM     18  N   UNL     1      44.853   2.659  12.541  0.00  0.00    +0.000 N 
ATOM     19  C   UNL     1      45.649   3.767  12.699  0.00  0.00    +0.000 A 
ATOM     20  O   UNL     1      46.740   3.688  13.255  0.00  0.00    +0.000 OA
ATOM     21  C   UNL     1      45.069   5.004  12.208  0.00  0.00    +0.000 A 
ATOM     22  H   UNL     1      45.236   1.786  12.870  0.00  0.00    +0.000 HD
ENDBRANCH   9  12
ENDBRANCH   7  10
ENDBRANCH   1   7
BRANCH   4  23
ATOM     23  C   UNL     1      49.913   3.884  18.793  0.00  0.00    +0.000 C 
BRANCH  23  24
ATOM     24  N   UNL     1      48.998   3.896  19.939  0.00  0.00    +0.000 NA
ATOM     25  H   UNL     1      49.159   3.065  20.504  0.00  0.00    +0.000 HD
BRANCH  24  26
ATOM     26  C   UNL     1      49.108   5.105  20.763  0.00  0.00    +0.000 C 
BRANCH  26  27
ATOM     27  C   UNL     1      47.705   5.710  21.006  0.00  0.00    +0.000 C 
ATOM     28  C   UNL     1      47.049   6.248  19.723  0.00  0.00    +0.000 C 
ATOM     29  C   UNL     1      47.619   7.596  19.289  0.00  0.00    +0.000 C 
ATOM     30  N   UNL     1      47.545   8.590  20.366  0.00  0.00    +0.000 NA
ATOM     31  C   UNL     1      48.295   8.138  21.536  0.00  0.00    +0.000 C 
ATOM     32  C   UNL     1      47.752   6.816  22.075  0.00  0.00    +0.000 C 
ATOM     33  H   UNL     1      46.566   8.718  20.626  0.00  0.00    +0.000 HD
ENDBRANCH  26  27
ENDBRANCH  24  26
ENDBRANCH  23  24
ENDBRANCH   4  23
TORSDOF 7
ENDMDL
MODEL 8
REMARK VINA RESULT:    -6.473      3.975     10.126
REMARK INTER + INTRA:         -10.420
REMARK INTER:                  -9.129
REMARK INTRA:                  -1.290
REMARK UNBOUND:                -1.297
REMARK  Name = 
REMARK  7 active torsions:
REMARK  status: ('A' for Active; 'I' for Inactive)
REMARK    1  A    between atoms: C_2  and  C_20
REMARK    2  A    between atoms: N_3  and  C_4
REMARK    3  A    between atoms: C_4  and  C_5
REMARK    4  A    between atoms: C_8  and  C_9
REMARK    5  A    between atoms: C_9  and  N_10
REMARK    6  A    between atoms: N_10  and  C_11
REMARK    7  A    between atoms: C_11  and  C_12
REMARK                            x       y       z     vdW  Elec       q    Type
REMARK                         _______ _______ _______ _____ _____    ______ ____
ROOT
ATOM      1  C   UNL     1      48.403   4.326  17.522  0.00  0.00    +0.000 A 
ATOM      2  C   UNL     1      49.214   5.389  17.111  0.00  0.00    +0.000 A 
ATOM      3  C   UNL     1      50.038   6.045  18.024  0.00  0.00    +0.000 A 
ATOM      4  C   UNL     1      50.050   5.678  19.377  0.00  0.00    +0.000 A 
ATOM      5  C   UNL     1      49.283   4.570  19.772  0.00  0.00    +0.000 A 
ATOM      6  C   UNL     1      48.470   3.899  18.853  0.00  0.00    +0.000 A 
ENDROOT
BRANCH   1   7
ATOM      7  C   UNL     1      47.527   3.624  16.519  0.00  0.00    +0.000 C 
BRANCH   7  10
ATOM      8  O   UNL     1      47.361   3.309  13.724  0.00  0.00    +0.000 OA
ATOM      9  C   UNL     1      46.855   4.298  14.247  0.00  0.00    +0.000 C 
ATOM     10  N   UNL     1      46.964   4.567  15.587  0.00  0.00    +0.000 N 
ATOM     11  H   UNL     1      46.364   5.273  15.994  0.00  0.00    +0.000 HD
BRANCH   9  12
ATOM     12  C   UNL     1      46.136   5.300  13.449  0.00  0.00    +0.000 A 
ATOM     13  C   UNL     1      46.695   6.556  13.254  0.00  0.00    +0.000 A 
ATOM     14  S   UNL     1      45.715   7.603  12.330  0.00  0.00    +0.000 S 
ATOM     15  C   UNL     1      44.535   6.396  12.113  0.00  0.00    +0.000 A 
ATOM     16  N   UNL     1      43.419   6.633  11.372  0.00  0.00    +0.000 NA
ATOM     17  C   UNL     1      42.633   5.616  11.252  0.00  0.00    +0.000 A 
ATOM     18  N   UNL     1      42.852   4.388  11.817  0.00  0.00    +0.000 N 
ATOM     19  C   UNL     1      43.923   4.127  12.636  0.00  0.00    +0.000 A 
ATOM     20  O   UNL     1      44.018   3.058  13.231  0.00  0.00    +0.000 OA
ATOM     21  C   UNL     1      44.868   5.221  12.763  0.00  0.00    +0.000 A 
ATOM     22  H   UNL     1      42.184   3.640  11.708  0.00  0.00    +0.000 HD
ENDBRANCH   9  12
ENDBRANCH   7  10
ENDBRANCH   1   7
BRANCH   4  23
ATOM     23  C   UNL     1      50.895   6.398  20.408  0.00  0.00    +0.000 C 
BRANCH  23  24
ATOM     24  N   UNL     1      50.167   7.002  21.529  0.00  0.00    +0.000 NA
ATOM     25  H   UNL     1      50.819   7.190  22.288  0.00  0.00    +0.000 HD
BRANCH  24  26
ATOM     26  C   UNL     1      49.439   8.223  21.165  0.00  0.00    +0.000 C 
BRANCH  26  27
ATOM     27  C   UNL     1      47.943   7.899  20.940  0.00  0.00    +0.000 C 
ATOM     28  C   UNL     1      47.440   8.308  19.546  0.00  0.00    +0.000 C 
ATOM     29  C   UNL     1      47.193   9.810  19.424  0.00  0.00    +0.000 C 
ATOM     30  N   UNL     1      46.285  10.299  20.468  0.00  0.00    +0.000 NA
ATOM     31  C   UNL     1      46.838  10.038  21.795  0.00  0.00    +0.000 C 
ATOM     32  C   UNL     1      47.064   8.545  22.026  0.00  0.00    +0.000 C 
ATOM     33  H   UNL     1      45.392   9.813  20.378  0.00  0.00    +0.000 HD
ENDBRANCH  26  27
ENDBRANCH  24  26
ENDBRANCH  23  24
ENDBRANCH   4  23
TORSDOF 7
ENDMDL
MODEL 9
REMARK VINA RESULT:    -6.422      4.106      9.556
REMARK INTER + INTRA:         -10.348
REMARK INTER:                  -8.986
REMARK INTRA:                  -1.362
REMARK UNBOUND:                -1.297
REMARK  Name = 
REMARK  7 active torsions:
REMARK  status: ('A' for Active; 'I' for Inactive)
REMARK    1  A    between atoms: C_2  and  C_20
REMARK    2  A    between atoms: N_3  and  C_4
REMARK    3  A    between atoms: C_4  and  C_5
REMARK    4  A    between atoms: C_8  and  C_9
REMARK    5  A    between atoms: C_9  and  N_10
REMARK    6  A    between atoms: N_10  and  C_11
REMARK    7  A    between atoms: C_11  and  C_12
REMARK                            x       y       z     vdW  Elec       q    Type
REMARK                         _______ _______ _______ _____ _____    ______ ____
ROOT
ATOM      1  C   UNL     1      47.885   4.571  17.797  0.00  0.00    +0.000 A 
ATOM      2  C   UNL     1      49.210   4.490  18.238  0.00  0.00    +0.000 A 
ATOM      3  C   UNL     1      49.622   5.185  19.374  0.00  0.00    +0.000 A 
ATOM      4  C   UNL     1      48.729   6.003  20.081  0.00  0.00    +0.000 A 
ATOM      5  C   UNL     1      47.386   6.031  19.672  0.00  0.00    +0.000 A 
ATOM      6  C   UNL     1      46.967   5.319  18.544  0.00  0.00    +0.000 A 
ENDROOT
BRANCH   1   7
ATOM      7  C   UNL     1      47.457   3.805  16.574  0.00  0.00    +0.000 C 
BRANCH   7  10
ATOM      8  O   UNL     1      47.177   3.213  13.834  0.00  0.00    +0.000 OA
ATOM      9  C   UNL     1      46.805   4.306  14.251  0.00  0.00    +0.000 C 
ATOM     10  N   UNL     1      46.983   4.702  15.552  0.00  0.00    +0.000 N 
ATOM     11  H   UNL     1      46.480   5.515  15.888  0.00  0.00    +0.000 HD
BRANCH   9  12
ATOM     12  C   UNL     1      46.187   5.295  13.359  0.00  0.00    +0.000 A 
ATOM     13  C   UNL     1      46.909   6.413  12.963  0.00  0.00    +0.000 A 
ATOM     14  S   UNL     1      46.030   7.469  11.952  0.00  0.00    +0.000 S 
ATOM     15  C   UNL     1      44.673   6.442  11.965  0.00  0.00    +0.000 A 
ATOM     16  N   UNL     1      43.555   6.751  11.255  0.00  0.00    +0.000 NA
ATOM     17  C   UNL     1      42.621   5.862  11.317  0.00  0.00    +0.000 A 
ATOM     18  N   UNL     1      42.697   4.698  12.036  0.00  0.00    +0.000 N 
ATOM     19  C   UNL     1      43.774   4.383  12.828  0.00  0.00    +0.000 A 
ATOM     20  O   UNL     1      43.753   3.399  13.562  0.00  0.00    +0.000 OA
ATOM     21  C   UNL     1      44.876   5.325  12.755  0.00  0.00    +0.000 A 
ATOM     22  H   UNL     1      41.921   4.055  12.066  0.00  0.00    +0.000 HD
ENDBRANCH   9  12
ENDBRANCH   7  10
ENDBRANCH   1   7
BRANCH   4  23
ATOM     23  C   UNL     1      49.151   6.812  21.290  0.00  0.00    +0.000 C 
BRANCH  23  24
ATOM     24  N   UNL     1      49.861   8.066  21.012  0.00  0.00    +0.000 NA
ATOM     25  H   UNL     1      50.617   7.883  20.356  0.00  0.00    +0.000 HD
BRANCH  24  26
ATOM     26  C   UNL     1      48.989   9.131  20.506  0.00  0.00    +0.000 C 
BRANCH  26  27
ATOM     27  C   UNL     1      49.640   9.809  19.277  0.00  0.00    +0.000 C 
ATOM     28  C   UNL     1      48.956  11.128  18.882  0.00  0.00    +0.000 C 
ATOM     29  C   UNL     1      47.641  10.911  18.138  0.00  0.00    +0.000 C 
ATOM     30  N   UNL     1      47.814  10.044  16.966  0.00  0.00    +0.000 NA
ATOM     31  C   UNL     1      48.328   8.736  17.366  0.00  0.00    +0.000 C 
ATOM     32  C   UNL     1      49.678   8.854  18.070  0.00  0.00    +0.000 C 
ATOM     33  H   UNL     1      48.480  10.484  16.330  0.00  0.00    +0.000 HD
ENDBRANCH  26  27
ENDBRANCH  24  26
ENDBRANCH  23  24
ENDBRANCH   4  23
TORSDOF 7
ENDMDL
