MODEL 1
REMARK VINA RESULT:    -7.290      0.000      0.000
REMARK INTER + INTRA:         -11.137
REMARK INTER:                 -10.273
REMARK INTRA:                  -0.864
REMARK UNBOUND:                -0.864
REMARK  Name = 
REMARK  8 active torsions:
REMARK  status: ('A' for Active; 'I' for Inactive)
REMARK    1  A    between atoms: C_1  and  C_2
REMARK    2  A    between atoms: C_2  and  O_3
REMARK    3  A    between atoms: O_3  and  N_4
REMARK    4  A    between atoms: C_5  and  C_21
REMARK    5  A    between atoms: N_6  and  C_7
REMARK    6  A    between atoms: C_7  and  C_8
REMARK    7  A    between atoms: C_11  and  C_12
REMARK    8  A    between atoms: C_12  and  N_13
REMARK                            x       y       z     vdW  Elec       q    Type
REMARK                         _______ _______ _______ _____ _____    ______ ____
ROOT
ATOM      1  N   UNL     1      48.147   8.392  12.602  0.00  0.00    +0.000 NA
ATOM      2  C   UNL     1      47.502   7.791  13.566  0.00  0.00    +0.000 C 
ATOM      3  N   UNL     1      46.128   7.768  13.588  0.00  0.00    +0.000 N 
ATOM      4  H   UNL     1      45.678   7.040  14.132  0.00  0.00    +0.000 HD
ENDROOT
BRANCH   2   5
ATOM      5  C   UNL     1      48.128   7.163  14.746  0.00  0.00    +0.000 A 
ATOM      6  C   UNL     1      48.979   7.860  15.595  0.00  0.00    +0.000 A 
ATOM      7  S   UNL     1      49.527   6.955  16.934  0.00  0.00    +0.000 S 
ATOM      8  C   UNL     1      48.613   5.605  16.461  0.00  0.00    +0.000 A 
ATOM      9  N   UNL     1      48.585   4.482  17.231  0.00  0.00    +0.000 NA
ATOM     10  C   UNL     1      47.846   3.534  16.759  0.00  0.00    +0.000 A 
ATOM     11  N   UNL     1      47.161   3.596  15.573  0.00  0.00    +0.000 N 
ATOM     12  C   UNL     1      47.182   4.701  14.752  0.00  0.00    +0.000 A 
ATOM     13  O   UNL     1      46.570   4.713  13.689  0.00  0.00    +0.000 OA
ATOM     14  C   UNL     1      47.946   5.824  15.271  0.00  0.00    +0.000 A 
ATOM     15  H   UNL     1      46.615   2.811  15.251  0.00  0.00    +0.000 HD
ENDBRANCH   2   5
BRANCH   1  16
ATOM     16  O   UNL     1      49.541   8.319  12.694  0.00  0.00    +0.000 OA
BRANCH  16  18
ATOM     17  C   UNL     1      51.508   8.140  11.356  0.00  0.00    +0.000 C 
ATOM     18  C   UNL     1      50.043   7.772  11.475  0.00  0.00    +0.000 C 
ENDBRANCH  16  18
ENDBRANCH   1  16
BRANCH   3  19
ATOM     19  C   UNL     1      45.368   8.142  12.409  0.00  0.00    +0.000 C 
BRANCH  19  20
ATOM     20  C   UNL     1      45.142   6.938  11.526  0.00  0.00    +0.000 A 
ATOM     21  C   UNL     1      43.961   6.193  11.632  0.00  0.00    +0.000 A 
ATOM     22  C   UNL     1      43.754   5.071  10.825  0.00  0.00    +0.000 A 
ATOM     23  C   UNL     1      44.726   4.665   9.900  0.00  0.00    +0.000 A 
ATOM     24  C   UNL     1      45.911   5.407   9.800  0.00  0.00    +0.000 A 
ATOM     25  C   UNL     1      46.122   6.529  10.608  0.00  0.00    +0.000 A 
BRANCH  23  26
ATOM     26  C   UNL     1      44.530   3.410   9.078  0.00  0.00    +0.000 C 
BRANCH  26  27
ATOM     27  N   UNL     1      45.762   2.868   8.460  0.00  0.00    +0.000 NA
ATOM     28  C   UNL     1      45.724   1.395   8.426  0.00  0.00    +0.000 C 
ATOM     29  C   UNL     1      46.896   0.785   7.653  0.00  0.00    +0.000 C 
ATOM     30  C   UNL     1      46.978   1.353   6.243  0.00  0.00    +0.000 C 
ATOM     31  C   UNL     1      47.072   2.869   6.317  0.00  0.00    +0.000 C 
ATOM     32  C   UNL     1      45.902   3.449   7.112  0.00  0.00    +0.000 C 
ENDBRANCH  26  27
ENDBRANCH  23  26
ENDBRANCH  19  20
ENDBRANCH   3  19
TORSDOF 7
ENDMDL
MODEL 2
REMARK VINA RESULT:    -7.077      2.620      3.631
REMARK INTER + INTRA:         -10.838
REMARK INTER:                  -9.981
REMARK INTRA:                  -0.857
REMARK UNBOUND:                -0.864
REMARK  Name = 
REMARK  8 active torsions:
REMARK  status: ('A' for Active; 'I' for Inactive)
REMARK    1  A    between atoms: C_1  and  C_2
REMARK    2  A    between atoms: C_2  and  O_3
REMARK    3  A    between atoms: O_3  and  N_4
REMARK    4  A    between atoms: C_5  and  C_21
REMARK    5  A    between atoms: N_6  and  C_7
REMARK    6  A    between atoms: C_7  and  C_8
REMARK    7  A    between atoms: C_11  and  C_12
REMARK    8  A    between atoms: C_12  and  N_13
REMARK                            x       y       z     vdW  Elec       q    Type
REMARK                         _______ _______ _______ _____ _____    ______ ____
ROOT
ATOM      1  N   UNL     1      49.958   6.838  15.394  0.00  0.00    +0.000 NA
ATOM      2  C   UNL     1      48.853   6.233  15.739  0.00  0.00    +0.000 C 
ATOM      3  N   UNL     1      47.721   6.336  14.965  0.00  0.00    +0.000 N 
ATOM      4  H   UNL     1      47.014   5.616  15.068  0.00  0.00    +0.000 HD
ENDROOT
BRANCH   2   5
ATOM      5  C   UNL     1      48.654   5.469  16.987  0.00  0.00    +0.000 A 
ATOM      6  C   UNL     1      48.730   4.083  17.029  0.00  0.00    +0.000 A 
ATOM      7  S   UNL     1      48.539   3.418  18.589  0.00  0.00    +0.000 S 
ATOM      8  C   UNL     1      48.393   4.961  19.283  0.00  0.00    +0.000 A 
ATOM      9  N   UNL     1      48.270   5.105  20.632  0.00  0.00    +0.000 NA
ATOM     10  C   UNL     1      48.174   6.331  21.028  0.00  0.00    +0.000 A 
ATOM     11  N   UNL     1      48.159   7.420  20.194  0.00  0.00    +0.000 N 
ATOM     12  C   UNL     1      48.255   7.319  18.825  0.00  0.00    +0.000 A 
ATOM     13  O   UNL     1      48.220   8.315  18.110  0.00  0.00    +0.000 OA
ATOM     14  C   UNL     1      48.433   5.962  18.333  0.00  0.00    +0.000 A 
ATOM     15  H   UNL     1      48.063   8.353  20.567  0.00  0.00    +0.000 HD
ENDBRANCH   2   5
BRANCH   1  16
ATOM     16  O   UNL     1      51.036   6.631  16.261  0.00  0.00    +0.000 OA
BRANCH  16  18
ATOM     17  C   UNL     1      51.910   7.919  18.068  0.00  0.00    +0.000 C 
ATOM     18  C   UNL     1      51.601   7.900  16.585  0.00  0.00    +0.000 C 
ENDBRANCH  16  18
ENDBRANCH   1  16
BRANCH   3  19
ATOM     19  C   UNL     1      47.800   6.860  13.613  0.00  0.00    +0.000 C 
BRANCH  19  20
ATOM     20  C   UNL     1      46.828   6.139  12.713  0.00  0.00    +0.000 A 
ATOM     21  C   UNL     1      46.375   6.740  11.532  0.00  0.00    +0.000 A 
ATOM     22  C   UNL     1      45.466   6.080  10.701  0.00  0.00    +0.000 A 
ATOM     23  C   UNL     1      44.983   4.808  11.036  0.00  0.00    +0.000 A 
ATOM     24  C   UNL     1      45.430   4.209  12.222  0.00  0.00    +0.000 A 
ATOM     25  C   UNL     1      46.340   4.868  13.057  0.00  0.00    +0.000 A 
BRANCH  23  26
ATOM     26  C   UNL     1      43.945   4.126  10.172  0.00  0.00    +0.000 C 
BRANCH  26  27
ATOM     27  N   UNL     1      44.485   3.419   8.987  0.00  0.00    +0.000 NA
ATOM     28  C   UNL     1      45.437   4.275   8.258  0.00  0.00    +0.000 C 
ATOM     29  C   UNL     1      46.149   3.541   7.118  0.00  0.00    +0.000 C 
ATOM     30  C   UNL     1      46.836   2.280   7.623  0.00  0.00    +0.000 C 
ATOM     31  C   UNL     1      45.815   1.396   8.320  0.00  0.00    +0.000 C 
ATOM     32  C   UNL     1      45.105   2.159   9.438  0.00  0.00    +0.000 C 
ENDBRANCH  26  27
ENDBRANCH  23  26
ENDBRANCH  19  20
ENDBRANCH   3  19
TORSDOF 7
ENDMDL
MODEL 3
REMARK VINA RESULT:    -7.032      3.196      8.361
REMARK INTER + INTRA:         -10.774
REMARK INTER:                  -9.499
REMARK INTRA:                  -1.276
REMARK UNBOUND:                -0.864
REMARK  Name = 
REMARK  8 active torsions:
REMARK  status: ('A' for Active; 'I' for Inactive)
REMARK    1  A    between atoms: C_1  and  C_2
REMARK    2  A    between atoms: C_2  and  O_3
REMARK    3  A    between atoms: O_3  and  N_4
REMARK    4  A    between atoms: C_5  and  C_21
REMARK    5  A    between atoms: N_6  and  C_7
REMARK    6  A    between atoms: C_7  and  C_8
REMARK    7  A    between atoms: C_11  and  C_12
REMARK    8  A    between atoms: C_12  and  N_13
REMARK                            x       y       z     vdW  Elec       q    Type
REMARK                         _______ _______ _______ _____ _____    ______ ____
ROOT
ATOM      1  N   UNL     1      45.735   8.006  11.877  0.00  0.00    +0.000 NA
ATOM      2  C   UNL     1      46.272   6.838  11.646  0.00  0.00    +0.000 C 
ATOM      3  N   UNL     1      47.554   6.557  12.057  0.00  0.00    +0.000 N 
ATOM      4  H   UNL     1      47.810   5.581  12.164  0.00  0.00    +0.000 HD
ENDROOT
BRANCH   2   5
ATOM      5  C   UNL     1      45.640   5.748  10.876  0.00  0.00    +0.000 A 
ATOM      6  C   UNL     1      45.863   5.573   9.517  0.00  0.00    +0.000 A 
ATOM      7  S   UNL     1      45.087   4.207   8.850  0.00  0.00    +0.000 S 
ATOM      8  C   UNL     1      44.455   3.765  10.363  0.00  0.00    +0.000 A 
ATOM      9  N   UNL     1      43.730   2.620  10.503  0.00  0.00    +0.000 NA
ATOM     10  C   UNL     1      43.316   2.400  11.706  0.00  0.00    +0.000 A 
ATOM     11  N   UNL     1      43.533   3.237  12.772  0.00  0.00    +0.000 N 
ATOM     12  C   UNL     1      44.238   4.414  12.669  0.00  0.00    +0.000 A 
ATOM     13  O   UNL     1      44.397   5.146  13.640  0.00  0.00    +0.000 OA
ATOM     14  C   UNL     1      44.786   4.675  11.347  0.00  0.00    +0.000 A 
ATOM     15  H   UNL     1      43.165   3.015  13.685  0.00  0.00    +0.000 HD
ENDBRANCH   2   5
BRANCH   1  16
ATOM     16  O   UNL     1      44.420   8.148  11.423  0.00  0.00    +0.000 OA
BRANCH  16  18
ATOM     17  C   UNL     1      45.182  10.368  11.849  0.00  0.00    +0.000 C 
ATOM     18  C   UNL     1      44.217   9.511  11.055  0.00  0.00    +0.000 C 
ENDBRANCH  16  18
ENDBRANCH   1  16
BRANCH   3  19
ATOM     19  C   UNL     1      48.229   7.425  13.005  0.00  0.00    +0.000 C 
BRANCH  19  20
ATOM     20  C   UNL     1      48.415   6.717  14.324  0.00  0.00    +0.000 A 
ATOM     21  C   UNL     1      49.379   7.162  15.238  0.00  0.00    +0.000 A 
ATOM     22  C   UNL     1      49.563   6.502  16.455  0.00  0.00    +0.000 A 
ATOM     23  C   UNL     1      48.793   5.379  16.784  0.00  0.00    +0.000 A 
ATOM     24  C   UNL     1      47.833   4.929  15.867  0.00  0.00    +0.000 A 
ATOM     25  C   UNL     1      47.647   5.587  14.646  0.00  0.00    +0.000 A 
BRANCH  23  26
ATOM     26  C   UNL     1      49.042   4.624  18.072  0.00  0.00    +0.000 C 
BRANCH  26  27
ATOM     27  N   UNL     1      48.888   5.427  19.307  0.00  0.00    +0.000 NA
ATOM     28  C   UNL     1      47.507   5.925  19.438  0.00  0.00    +0.000 C 
ATOM     29  C   UNL     1      47.248   6.623  20.775  0.00  0.00    +0.000 C 
ATOM     30  C   UNL     1      47.606   5.719  21.945  0.00  0.00    +0.000 C 
ATOM     31  C   UNL     1      49.052   5.269  21.808  0.00  0.00    +0.000 C 
ATOM     32  C   UNL     1      49.287   4.594  20.457  0.00  0.00    +0.000 C 
ENDBRANCH  26  27
ENDBRANCH  23  26
ENDBRANCH  19  20
ENDBRANCH   3  19
TORSDOF 7
ENDMDL
MODEL 4
REMARK VINA RESULT:    -7.018      2.528      3.426
REMARK INTER + INTRA:         -10.755
REMARK INTER:                  -9.894
REMARK INTRA:                  -0.861
REMARK UNBOUND:                -0.864
REMARK  Name = 
REMARK  8 active torsions:
REMARK  status: ('A' for Active; 'I' for Inactive)
REMARK    1  A    between atoms: C_1  and  C_2
REMARK    2  A    between atoms: C_2  and  O_3
REMARK    3  A    between atoms: O_3  and  N_4
REMARK    4  A    between atoms: C_5  and  C_21
REMARK    5  A    between atoms: N_6  and  C_7
REMARK    6  A    between atoms: C_7  and  C_8
REMARK    7  A    between atoms: C_11  and  C_12
REMARK    8  A    between atoms: C_12  and  N_13
REMARK                            x       y       z     vdW  Elec       q    Type
REMARK                         _______ _______ _______ _____ _____    ______ ____
ROOT
ATOM      1  N   UNL     1      50.390   7.635  15.414  0.00  0.00    +0.000 NA
ATOM      2  C   UNL     1      49.222   7.250  15.854  0.00  0.00    +0.000 C 
ATOM      3  N   UNL     1      48.212   6.925  14.980  0.00  0.00    +0.000 N 
ATOM      4  H   UNL     1      47.465   6.330  15.324  0.00  0.00    +0.000 HD
ENDROOT
BRANCH   2   5
ATOM      5  C   UNL     1      48.823   7.197  17.274  0.00  0.00    +0.000 A 
ATOM      6  C   UNL     1      48.182   8.255  17.906  0.00  0.00    +0.000 A 
ATOM      7  S   UNL     1      47.750   7.944  19.527  0.00  0.00    +0.000 S 
ATOM      8  C   UNL     1      48.361   6.363  19.440  0.00  0.00    +0.000 A 
ATOM      9  N   UNL     1      48.243   5.515  20.500  0.00  0.00    +0.000 NA
ATOM     10  C   UNL     1      48.743   4.342  20.298  0.00  0.00    +0.000 A 
ATOM     11  N   UNL     1      49.377   3.952  19.146  0.00  0.00    +0.000 N 
ATOM     12  C   UNL     1      49.541   4.783  18.061  0.00  0.00    +0.000 A 
ATOM     13  O   UNL     1      50.129   4.405  17.054  0.00  0.00    +0.000 OA
ATOM     14  C   UNL     1      48.934   6.096  18.212  0.00  0.00    +0.000 A 
ATOM     15  H   UNL     1      49.763   3.023  19.059  0.00  0.00    +0.000 HD
ENDBRANCH   2   5
BRANCH   1  16
ATOM     16  O   UNL     1      51.330   7.914  16.411  0.00  0.00    +0.000 OA
BRANCH  16  18
ATOM     17  C   UNL     1      52.903   6.649  17.683  0.00  0.00    +0.000 C 
ATOM     18  C   UNL     1      52.400   6.978  16.292  0.00  0.00    +0.000 C 
ENDBRANCH  16  18
ENDBRANCH   1  16
BRANCH   3  19
ATOM     19  C   UNL     1      48.496   6.715  13.572  0.00  0.00    +0.000 C 
BRANCH  19  20
ATOM     20  C   UNL     1      47.258   6.244  12.850  0.00  0.00    +0.000 A 
ATOM     21  C   UNL     1      46.614   5.063  13.242  0.00  0.00    +0.000 A 
ATOM     22  C   UNL     1      45.474   4.618  12.568  0.00  0.00    +0.000 A 
ATOM     23  C   UNL     1      44.956   5.338  11.484  0.00  0.00    +0.000 A 
ATOM     24  C   UNL     1      45.605   6.515  11.086  0.00  0.00    +0.000 A 
ATOM     25  C   UNL     1      46.747   6.963  11.758  0.00  0.00    +0.000 A 
BRANCH  23  26
ATOM     26  C   UNL     1      43.763   4.817  10.712  0.00  0.00    +0.000 C 
BRANCH  26  27
ATOM     27  N   UNL     1      44.096   3.975   9.540  0.00  0.00    +0.000 NA
ATOM     28  C   UNL     1      45.278   4.504   8.837  0.00  0.00    +0.000 C 
ATOM     29  C   UNL     1      45.766   3.585   7.713  0.00  0.00    +0.000 C 
ATOM     30  C   UNL     1      46.033   2.179   8.231  0.00  0.00    +0.000 C 
ATOM     31  C   UNL     1      44.777   1.644   8.900  0.00  0.00    +0.000 C 
ATOM     32  C   UNL     1      44.301   2.590  10.002  0.00  0.00    +0.000 C 
ENDBRANCH  26  27
ENDBRANCH  23  26
ENDBRANCH  19  20
ENDBRANCH   3  19
TORSDOF 7
ENDMDL
MODEL 5
REMARK VINA RESULT:    -6.802      3.102      7.640
REMARK INTER + INTRA:         -10.450
REMARK INTER:                  -9.540
REMARK INTRA:                  -0.910
REMARK UNBOUND:                -0.864
REMARK  Name = 
REMARK  8 active torsions:
REMARK  status: ('A' for Active; 'I' for Inactive)
REMARK    1  A    between atoms: C_1  and  C_2
REMARK    2  A    between atoms: C_2  and  O_3
REMARK    3  A    between atoms: O_3  and  N_4
REMARK    4  A    between atoms: C_5  and  C_21
REMARK    5  A    between atoms: N_6  and  C_7
REMARK    6  A    between atoms: C_7  and  C_8
REMARK    7  A    between atoms: C_11  and  C_12
REMARK    8  A    between atoms: C_12  and  N_13
REMARK                            x       y       z     vdW  Elec       q    Type
REMARK                         _______ _______ _______ _____ _____    ______ ____
ROOT
ATOM      1  N   UNL     1      45.828   7.962  11.920  0.00  0.00    +0.000 NA
ATOM      2  C   UNL     1      46.332   6.778  11.698  0.00  0.00    +0.000 C 
ATOM      3  N   UNL     1      47.598   6.459  12.129  0.00  0.00    +0.000 N 
ATOM      4  H   UNL     1      47.824   5.476  12.241  0.00  0.00    +0.000 HD
ENDROOT
BRANCH   2   5
ATOM      5  C   UNL     1      45.680   5.707  10.919  0.00  0.00    +0.000 A 
ATOM      6  C   UNL     1      45.891   5.546   9.556  0.00  0.00    +0.000 A 
ATOM      7  S   UNL     1      45.092   4.199   8.877  0.00  0.00    +0.000 S 
ATOM      8  C   UNL     1      44.465   3.746  10.388  0.00  0.00    +0.000 A 
ATOM      9  N   UNL     1      43.726   2.609  10.519  0.00  0.00    +0.000 NA
ATOM     10  C   UNL     1      43.317   2.379  11.722  0.00  0.00    +0.000 A 
ATOM     11  N   UNL     1      43.553   3.199  12.797  0.00  0.00    +0.000 N 
ATOM     12  C   UNL     1      44.273   4.368  12.705  0.00  0.00    +0.000 A 
ATOM     13  O   UNL     1      44.449   5.084  13.684  0.00  0.00    +0.000 OA
ATOM     14  C   UNL     1      44.815   4.639  11.382  0.00  0.00    +0.000 A 
ATOM     15  H   UNL     1      43.189   2.970  13.710  0.00  0.00    +0.000 HD
ENDBRANCH   2   5
BRANCH   1  16
ATOM     16  O   UNL     1      44.524   8.142  11.446  0.00  0.00    +0.000 OA
BRANCH  16  18
ATOM     17  C   UNL     1      45.324  10.335  11.936  0.00  0.00    +0.000 C 
ATOM     18  C   UNL     1      44.358   9.517  11.103  0.00  0.00    +0.000 C 
ENDBRANCH  16  18
ENDBRANCH   1  16
BRANCH   3  19
ATOM     19  C   UNL     1      48.284   7.307  13.087  0.00  0.00    +0.000 C 
BRANCH  19  20
ATOM     20  C   UNL     1      48.276   6.668  14.454  0.00  0.00    +0.000 A 
ATOM     21  C   UNL     1      48.937   7.280  15.527  0.00  0.00    +0.000 A 
ATOM     22  C   UNL     1      48.942   6.685  16.791  0.00  0.00    +0.000 A 
ATOM     23  C   UNL     1      48.292   5.463  17.011  0.00  0.00    +0.000 A 
ATOM     24  C   UNL     1      47.637   4.847  15.935  0.00  0.00    +0.000 A 
ATOM     25  C   UNL     1      47.632   5.439  14.667  0.00  0.00    +0.000 A 
BRANCH  23  26
ATOM     26  C   UNL     1      48.358   4.787  18.363  0.00  0.00    +0.000 C 
BRANCH  26  27
ATOM     27  N   UNL     1      49.563   3.955  18.588  0.00  0.00    +0.000 NA
ATOM     28  C   UNL     1      49.867   3.144  17.396  0.00  0.00    +0.000 C 
ATOM     29  C   UNL     1      51.193   2.387  17.511  0.00  0.00    +0.000 C 
ATOM     30  C   UNL     1      52.341   3.336  17.823  0.00  0.00    +0.000 C 
ATOM     31  C   UNL     1      52.019   4.116  19.087  0.00  0.00    +0.000 C 
ATOM     32  C   UNL     1      50.682   4.844  18.953  0.00  0.00    +0.000 C 
ENDBRANCH  26  27
ENDBRANCH  23  26
ENDBRANCH  19  20
ENDBRANCH   3  19
TORSDOF 7
ENDMDL
MODEL 6
REMARK VINA RESULT:    -6.679      2.864      4.535
REMARK INTER + INTRA:         -10.277
REMARK INTER:                  -9.193
REMARK INTRA:                  -1.084
REMARK UNBOUND:                -0.864
REMARK  Name = 
REMARK  8 active torsions:
REMARK  status: ('A' for Active; 'I' for Inactive)
REMARK    1  A    between atoms: C_1  and  C_2
REMARK    2  A    between atoms: C_2  and  O_3
REMARK    3  A    between atoms: O_3  and  N_4
REMARK    4  A    between atoms: C_5  and  C_21
REMARK    5  A    between atoms: N_6  and  C_7
REMARK    6  A    between atoms: C_7  and  C_8
REMARK    7  A    between atoms: C_11  and  C_12
REMARK    8  A    between atoms: C_12  and  N_13
REMARK                            x       y       z     vdW  Elec       q    Type
REMARK                         _______ _______ _______ _____ _____    ______ ____
ROOT
ATOM      1  N   UNL     1      48.646   6.486  17.692  0.00  0.00    +0.000 NA
ATOM      2  C   UNL     1      49.608   6.122  16.887  0.00  0.00    +0.000 C 
ATOM      3  N   UNL     1      49.564   6.437  15.549  0.00  0.00    +0.000 N 
ATOM      4  H   UNL     1      50.441   6.442  15.038  0.00  0.00    +0.000 HD
ENDROOT
BRANCH   2   5
ATOM      5  C   UNL     1      50.767   5.290  17.266  0.00  0.00    +0.000 A 
ATOM      6  C   UNL     1      51.947   5.838  17.751  0.00  0.00    +0.000 A 
ATOM      7  S   UNL     1      53.125   4.685  18.193  0.00  0.00    +0.000 S 
ATOM      8  C   UNL     1      52.089   3.400  17.796  0.00  0.00    +0.000 A 
ATOM      9  N   UNL     1      52.473   2.110  18.007  0.00  0.00    +0.000 NA
ATOM     10  C   UNL     1      51.588   1.233  17.668  0.00  0.00    +0.000 A 
ATOM     11  N   UNL     1      50.370   1.527  17.109  0.00  0.00    +0.000 N 
ATOM     12  C   UNL     1      49.953   2.814  16.857  0.00  0.00    +0.000 A 
ATOM     13  O   UNL     1      48.864   3.039  16.340  0.00  0.00    +0.000 OA
ATOM     14  C   UNL     1      50.886   3.845  17.284  0.00  0.00    +0.000 A 
ATOM     15  H   UNL     1      49.731   0.792  16.850  0.00  0.00    +0.000 HD
ENDBRANCH   2   5
BRANCH   1  16
ATOM     16  O   UNL     1      48.829   6.116  19.029  0.00  0.00    +0.000 OA
BRANCH  16  18
ATOM     17  C   UNL     1      47.375   6.120  20.919  0.00  0.00    +0.000 C 
ATOM     18  C   UNL     1      48.024   6.967  19.843  0.00  0.00    +0.000 C 
ENDBRANCH  16  18
ENDBRANCH   1  16
BRANCH   3  19
ATOM     19  C   UNL     1      48.619   7.424  15.057  0.00  0.00    +0.000 C 
BRANCH  19  20
ATOM     20  C   UNL     1      47.581   6.765  14.182  0.00  0.00    +0.000 A 
ATOM     21  C   UNL     1      47.325   5.393  14.296  0.00  0.00    +0.000 A 
ATOM     22  C   UNL     1      46.373   4.778  13.479  0.00  0.00    +0.000 A 
ATOM     23  C   UNL     1      45.661   5.518  12.525  0.00  0.00    +0.000 A 
ATOM     24  C   UNL     1      45.923   6.890  12.406  0.00  0.00    +0.000 A 
ATOM     25  C   UNL     1      46.877   7.509  13.221  0.00  0.00    +0.000 A 
BRANCH  23  26
ATOM     26  C   UNL     1      44.681   4.836  11.595  0.00  0.00    +0.000 C 
BRANCH  26  27
ATOM     27  N   UNL     1      45.300   4.055  10.500  0.00  0.00    +0.000 NA
ATOM     28  C   UNL     1      44.475   2.880  10.167  0.00  0.00    +0.000 C 
ATOM     29  C   UNL     1      44.979   2.125   8.934  0.00  0.00    +0.000 C 
ATOM     30  C   UNL     1      45.102   3.053   7.735  0.00  0.00    +0.000 C 
ATOM     31  C   UNL     1      46.004   4.223   8.095  0.00  0.00    +0.000 C 
ATOM     32  C   UNL     1      45.488   4.945   9.339  0.00  0.00    +0.000 C 
ENDBRANCH  26  27
ENDBRANCH  23  26
ENDBRANCH  19  20
ENDBRANCH   3  19
TORSDOF 7
ENDMDL
MODEL 7
REMARK VINA RESULT:    -6.456      2.782      4.145
REMARK INTER + INTRA:          -9.963
REMARK INTER:                  -9.416
REMARK INTRA:                  -0.547
REMARK UNBOUND:                -0.864
REMARK  Name = 
REMARK  8 active torsions:
REMARK  status: ('A' for Active; 'I' for Inactive)
REMARK    1  A    between atoms: C_1  and  C_2
REMARK    2  A    between atoms: C_2  and  O_3
REMARK    3  A    between atoms: O_3  and  N_4
REMARK    4  A    between atoms: C_5  and  C_21
REMARK    5  A    between atoms: N_6  and  C_7
REMARK    6  A    between atoms: C_7  and  C_8
REMARK    7  A    between atoms: C_11  and  C_12
REMARK    8  A    between atoms: C_12  and  N_13
REMARK                            x       y       z     vdW  Elec       q    Type
REMARK                         _______ _______ _______ _____ _____    ______ ____
ROOT
ATOM      1  N   UNL     1      49.285   5.082  16.309  0.00  0.00    +0.000 NA
ATOM      2  C   UNL     1      48.580   6.105  15.908  0.00  0.00    +0.000 C 
ATOM      3  N   UNL     1      47.555   5.945  15.005  0.00  0.00    +0.000 N 
ATOM      4  H   UNL     1      46.839   6.663  14.974  0.00  0.00    +0.000 HD
ENDROOT
BRANCH   2   5
ATOM      5  C   UNL     1      48.829   7.511  16.283  0.00  0.00    +0.000 A 
ATOM      6  C   UNL     1      49.460   8.407  15.430  0.00  0.00    +0.000 A 
ATOM      7  S   UNL     1      49.577   9.995  16.043  0.00  0.00    +0.000 S 
ATOM      8  C   UNL     1      48.748   9.563  17.460  0.00  0.00    +0.000 A 
ATOM      9  N   UNL     1      48.451  10.500  18.403  0.00  0.00    +0.000 NA
ATOM     10  C   UNL     1      47.813  10.039  19.426  0.00  0.00    +0.000 A 
ATOM     11  N   UNL     1      47.475   8.721  19.606  0.00  0.00    +0.000 N 
ATOM     12  C   UNL     1      47.778   7.738  18.692  0.00  0.00    +0.000 A 
ATOM     13  O   UNL     1      47.475   6.567  18.895  0.00  0.00    +0.000 OA
ATOM     14  C   UNL     1      48.437   8.217  17.488  0.00  0.00    +0.000 A 
ATOM     15  H   UNL     1      46.991   8.422  20.440  0.00  0.00    +0.000 HD
ENDBRANCH   2   5
BRANCH   1  16
ATOM     16  O   UNL     1      50.281   5.386  17.244  0.00  0.00    +0.000 OA
BRANCH  16  18
ATOM     17  C   UNL     1      51.743   3.780  18.230  0.00  0.00    +0.000 C 
ATOM     18  C   UNL     1      50.332   4.331  18.203  0.00  0.00    +0.000 C 
ENDBRANCH  16  18
ENDBRANCH   1  16
BRANCH   3  19
ATOM     19  C   UNL     1      47.040   4.621  14.705  0.00  0.00    +0.000 C 
BRANCH  19  20
ATOM     20  C   UNL     1      46.232   4.648  13.432  0.00  0.00    +0.000 A 
ATOM     21  C   UNL     1      45.250   3.677  13.194  0.00  0.00    +0.000 A 
ATOM     22  C   UNL     1      44.508   3.692  12.010  0.00  0.00    +0.000 A 
ATOM     23  C   UNL     1      44.735   4.672  11.035  0.00  0.00    +0.000 A 
ATOM     24  C   UNL     1      45.722   5.639  11.269  0.00  0.00    +0.000 A 
ATOM     25  C   UNL     1      46.468   5.626  12.453  0.00  0.00    +0.000 A 
BRANCH  23  26
ATOM     26  C   UNL     1      43.979   4.644   9.724  0.00  0.00    +0.000 C 
BRANCH  26  27
ATOM     27  N   UNL     1      44.526   3.718   8.706  0.00  0.00    +0.000 NA
ATOM     28  C   UNL     1      45.726   4.291   8.071  0.00  0.00    +0.000 C 
ATOM     29  C   UNL     1      46.428   3.311   7.127  0.00  0.00    +0.000 C 
ATOM     30  C   UNL     1      46.767   2.010   7.840  0.00  0.00    +0.000 C 
ATOM     31  C   UNL     1      45.499   1.418   8.436  0.00  0.00    +0.000 C 
ATOM     32  C   UNL     1      44.808   2.424   9.356  0.00  0.00    +0.000 C 
ENDBRANCH  26  27
ENDBRANCH  23  26
ENDBRANCH  19  20
ENDBRANCH   3  19
TORSDOF 7
ENDMDL
MODEL 8
REMARK VINA RESULT:    -6.261      2.945      4.058
REMARK INTER + INTRA:          -9.687
REMARK INTER:                  -9.352
REMARK INTRA:                  -0.335
REMARK UNBOUND:                -0.864
REMARK  Name = 
REMARK  8 active torsions:
REMARK  status: ('A' for Active; 'I' for Inactive)
REMARK    1  A    between atoms: C_1  and  C_2
REMARK    2  A    between atoms: C_2  and  O_3
REMARK    3  A    between atoms: O_3  and  N_4
REMARK    4  A    between atoms: C_5  and  C_21
REMARK    5  A    between atoms: N_6  and  C_7
REMARK    6  A    between atoms: C_7  and  C_8
REMARK    7  A    between atoms: C_11  and  C_12
REMARK    8  A    between atoms: C_12  and  N_13
REMARK                            x       y       z     vdW  Elec       q    Type
REMARK                         _______ _______ _______ _____ _____    ______ ____
ROOT
ATOM      1  N   UNL     1      50.020   5.843  16.309  0.00  0.00    +0.000 NA
ATOM      2  C   UNL     1      48.816   6.244  16.617  0.00  0.00    +0.000 C 
ATOM      3  N   UNL     1      47.717   5.757  15.949  0.00  0.00    +0.000 N 
ATOM      4  H   UNL     1      46.817   5.822  16.413  0.00  0.00    +0.000 HD
ENDROOT
BRANCH   2   5
ATOM      5  C   UNL     1      48.494   7.286  17.612  0.00  0.00    +0.000 A 
ATOM      6  C   UNL     1      48.380   8.628  17.273  0.00  0.00    +0.000 A 
ATOM      7  S   UNL     1      47.931   9.642  18.570  0.00  0.00    +0.000 S 
ATOM      8  C   UNL     1      47.825   8.323  19.632  0.00  0.00    +0.000 A 
ATOM      9  N   UNL     1      47.413   8.499  20.919  0.00  0.00    +0.000 NA
ATOM     10  C   UNL     1      47.371   7.413  21.615  0.00  0.00    +0.000 A 
ATOM     11  N   UNL     1      47.734   6.174  21.152  0.00  0.00    +0.000 N 
ATOM     12  C   UNL     1      48.179   5.954  19.868  0.00  0.00    +0.000 A 
ATOM     13  O   UNL     1      48.512   4.835  19.494  0.00  0.00    +0.000 OA
ATOM     14  C   UNL     1      48.181   7.136  19.020  0.00  0.00    +0.000 A 
ATOM     15  H   UNL     1      47.695   5.366  21.755  0.00  0.00    +0.000 HD
ENDBRANCH   2   5
BRANCH   1  16
ATOM     16  O   UNL     1      51.041   6.404  17.082  0.00  0.00    +0.000 OA
BRANCH  16  18
ATOM     17  C   UNL     1      51.382   7.690  15.103  0.00  0.00    +0.000 C 
ATOM     18  C   UNL     1      52.052   6.892  16.203  0.00  0.00    +0.000 C 
ENDBRANCH  16  18
ENDBRANCH   1  16
BRANCH   3  19
ATOM     19  C   UNL     1      47.833   4.582  15.104  0.00  0.00    +0.000 C 
BRANCH  19  20
ATOM     20  C   UNL     1      46.875   4.675  13.941  0.00  0.00    +0.000 A 
ATOM     21  C   UNL     1      46.587   5.915  13.357  0.00  0.00    +0.000 A 
ATOM     22  C   UNL     1      45.691   6.006  12.289  0.00  0.00    +0.000 A 
ATOM     23  C   UNL     1      45.058   4.862  11.785  0.00  0.00    +0.000 A 
ATOM     24  C   UNL     1      45.341   3.622  12.374  0.00  0.00    +0.000 A 
ATOM     25  C   UNL     1      46.236   3.527  13.445  0.00  0.00    +0.000 A 
BRANCH  23  26
ATOM     26  C   UNL     1      44.036   4.973  10.674  0.00  0.00    +0.000 C 
BRANCH  26  27
ATOM     27  N   UNL     1      44.305   4.126   9.490  0.00  0.00    +0.000 NA
ATOM     28  C   UNL     1      45.549   4.546   8.819  0.00  0.00    +0.000 C 
ATOM     29  C   UNL     1      45.964   3.606   7.685  0.00  0.00    +0.000 C 
ATOM     30  C   UNL     1      46.077   2.170   8.177  0.00  0.00    +0.000 C 
ATOM     31  C   UNL     1      44.761   1.751   8.812  0.00  0.00    +0.000 C 
ATOM     32  C   UNL     1      44.361   2.718   9.926  0.00  0.00    +0.000 C 
ENDBRANCH  26  27
ENDBRANCH  23  26
ENDBRANCH  19  20
ENDBRANCH   3  19
TORSDOF 7
ENDMDL
MODEL 9
REMARK VINA RESULT:    -6.076      3.334      5.704
REMARK INTER + INTRA:          -9.426
REMARK INTER:                  -8.060
REMARK INTRA:                  -1.366
REMARK UNBOUND:                -0.864
REMARK  Name = 
REMARK  8 active torsions:
REMARK  status: ('A' for Active; 'I' for Inactive)
REMARK    1  A    between atoms: C_1  and  C_2
REMARK    2  A    between atoms: C_2  and  O_3
REMARK    3  A    between atoms: O_3  and  N_4
REMARK    4  A    between atoms: C_5  and  C_21
REMARK    5  A    between atoms: N_6  and  C_7
REMARK    6  A    between atoms: C_7  and  C_8
REMARK    7  A    between atoms: C_11  and  C_12
REMARK    8  A    between atoms: C_12  and  N_13
REMARK                            x       y       z     vdW  Elec       q    Type
REMARK                         _______ _______ _______ _____ _____    ______ ____
ROOT
ATOM      1  N   UNL     1      50.184   6.840  18.466  0.00  0.00    +0.000 NA
ATOM      2  C   UNL     1      50.918   6.274  17.545  0.00  0.00    +0.000 C 
ATOM      3  N   UNL     1      50.828   6.667  16.231  0.00  0.00    +0.000 N 
ATOM      4  H   UNL     1      51.614   6.461  15.624  0.00  0.00    +0.000 HD
ENDROOT
BRANCH   2   5
ATOM      5  C   UNL     1      51.830   5.134  17.766  0.00  0.00    +0.000 A 
ATOM      6  C   UNL     1      53.128   5.300  18.232  0.00  0.00    +0.000 A 
ATOM      7  S   UNL     1      53.976   3.840  18.480  0.00  0.00    +0.000 S 
ATOM      8  C   UNL     1      52.627   2.920  18.018  0.00  0.00    +0.000 A 
ATOM      9  N   UNL     1      52.665   1.559  18.071  0.00  0.00    +0.000 NA
ATOM     10  C   UNL     1      51.571   0.983  17.699  0.00  0.00    +0.000 A 
ATOM     11  N   UNL     1      50.455   1.643  17.249  0.00  0.00    +0.000 N 
ATOM     12  C   UNL     1      50.382   3.014  17.156  0.00  0.00    +0.000 A 
ATOM     13  O   UNL     1      49.374   3.569  16.732  0.00  0.00    +0.000 OA
ATOM     14  C   UNL     1      51.567   3.715  17.628  0.00  0.00    +0.000 A 
ATOM     15  H   UNL     1      49.637   1.132  16.955  0.00  0.00    +0.000 HD
ENDBRANCH   2   5
BRANCH   1  16
ATOM     16  O   UNL     1      50.392   6.357  19.762  0.00  0.00    +0.000 OA
BRANCH  16  18
ATOM     17  C   UNL     1      48.832   4.633  20.294  0.00  0.00    +0.000 C 
ATOM     18  C   UNL     1      49.120   6.119  20.361  0.00  0.00    +0.000 C 
ENDBRANCH  16  18
ENDBRANCH   1  16
BRANCH   3  19
ATOM     19  C   UNL     1      50.152   7.903  15.878  0.00  0.00    +0.000 C 
BRANCH  19  20
ATOM     20  C   UNL     1      49.016   7.626  14.925  0.00  0.00    +0.000 A 
ATOM     21  C   UNL     1      48.548   6.319  14.740  0.00  0.00    +0.000 A 
ATOM     22  C   UNL     1      47.504   6.057  13.849  0.00  0.00    +0.000 A 
ATOM     23  C   UNL     1      46.909   7.094  13.118  0.00  0.00    +0.000 A 
ATOM     24  C   UNL     1      47.383   8.401  13.297  0.00  0.00    +0.000 A 
ATOM     25  C   UNL     1      48.429   8.667  14.187  0.00  0.00    +0.000 A 
BRANCH  23  26
ATOM     26  C   UNL     1      45.827   6.799  12.103  0.00  0.00    +0.000 C 
BRANCH  26  27
ATOM     27  N   UNL     1      45.332   5.403  12.104  0.00  0.00    +0.000 NA
ATOM     28  C   UNL     1      44.095   5.289  12.898  0.00  0.00    +0.000 C 
ATOM     29  C   UNL     1      43.449   3.905  12.801  0.00  0.00    +0.000 C 
ATOM     30  C   UNL     1      43.195   3.517  11.352  0.00  0.00    +0.000 C 
ATOM     31  C   UNL     1      44.500   3.592  10.576  0.00  0.00    +0.000 C 
ATOM     32  C   UNL     1      45.133   4.978  10.706  0.00  0.00    +0.000 C 
ENDBRANCH  26  27
ENDBRANCH  23  26
ENDBRANCH  19  20
ENDBRANCH   3  19
TORSDOF 7
ENDMDL
