MODEL 1
REMARK VINA RESULT:    -8.427      0.000      0.000
REMARK INTER + INTRA:         -12.812
REMARK INTER:                 -12.122
REMARK INTRA:                  -0.690
REMARK UNBOUND:                -0.690
REMARK  Name = 
REMARK  9 active torsions:
REMARK  status: ('A' for Active; 'I' for Inactive)
REMARK    1  A    between atoms: C_1  and  C_2
REMARK    2  A    between atoms: C_6  and  C_7
REMARK    3  A    between atoms: C_7  and  N_8
REMARK    4  A    between atoms: N_8  and  C_9
REMARK    5  A    between atoms: C_9  and  C_10
REMARK    6  A    between atoms: N_13  and  C_14
REMARK    7  A    between atoms: C_14  and  N_15
REMARK    8  A    between atoms: C_16  and  C_18
REMARK    9  A    between atoms: C_25  and  O_26
REMARK                            x       y       z     vdW  Elec       q    Type
REMARK                         _______ _______ _______ _____ _____    ______ ____
ROOT
ATOM      1  C   UNL     1      45.394   6.455  11.501  0.00  0.00    +0.000 C 
ATOM      2  C   UNL     1      46.654   6.905  12.242  0.00  0.00    +0.000 C 
ATOM      3  C   UNL     1      47.287   5.776  13.050  0.00  0.00    +0.000 C 
ATOM      4  N   UNL     1      46.331   5.171  13.994  0.00  0.00    +0.000 NA
ATOM      5  C   UNL     1      45.134   4.675  13.293  0.00  0.00    +0.000 C 
ATOM      6  C   UNL     1      44.442   5.784  12.500  0.00  0.00    +0.000 C 
ENDROOT
BRANCH   1   7
ATOM      7  C   UNL     1      45.729   5.546  10.295  0.00  0.00    +0.000 C 
BRANCH   7   8
ATOM      8  N   UNL     1      44.541   5.058   9.591  0.00  0.00    +0.000 NA
ATOM      9  H   UNL     1      43.704   5.370  10.086  0.00  0.00    +0.000 HD
BRANCH   8  10
ATOM     10  C   UNL     1      44.497   3.588   9.543  0.00  0.00    +0.000 C 
BRANCH  10  16
ATOM     11  C   UNL     1      46.813  -0.286   7.760  0.00  0.00    +0.000 C 
ATOM     12  C   UNL     1      46.504   1.167   7.619  0.00  0.00    +0.000 A 
ATOM     13  C   UNL     1      47.081   1.932   6.608  0.00  0.00    +0.000 A 
ATOM     14  C   UNL     1      46.787   3.291   6.542  0.00  0.00    +0.000 A 
ATOM     15  C   UNL     1      45.933   3.844   7.487  0.00  0.00    +0.000 A 
ATOM     16  C   UNL     1      45.391   3.017   8.467  0.00  0.00    +0.000 A 
ATOM     17  N   UNL     1      45.667   1.692   8.539  0.00  0.00    +0.000 NA
ENDBRANCH  10  16
ENDBRANCH   8  10
ENDBRANCH   7   8
ENDBRANCH   1   7
BRANCH   4  18
ATOM     18  C   UNL     1      46.944   4.063  14.721  0.00  0.00    +0.000 C 
BRANCH  18  19
ATOM     19  N   UNL     1      47.490   4.620  15.912  0.00  0.00    +0.000 N 
ATOM     20  C   UNL     1      47.201   4.147  17.159  0.00  0.00    +0.000 C 
ATOM     21  O   UNL     1      46.484   3.170  17.353  0.00  0.00    +0.000 OA
ATOM     22  H   UNL     1      47.989   5.489  15.788  0.00  0.00    +0.000 HD
BRANCH  20  23
ATOM     23  C   UNL     1      47.877   4.839  18.257  0.00  0.00    +0.000 A 
ATOM     24  C   UNL     1      47.170   5.704  19.080  0.00  0.00    +0.000 A 
ATOM     25  S   UNL     1      48.117   6.353  20.343  0.00  0.00    +0.000 S 
ATOM     26  C   UNL     1      49.502   5.534  19.793  0.00  0.00    +0.000 A 
ATOM     27  N   UNL     1      50.673   5.668  20.441  0.00  0.00    +0.000 NA
ATOM     28  C   UNL     1      51.663   4.978  19.867  0.00  0.00    +0.000 A 
ATOM     29  N   UNL     1      51.595   4.218  18.765  0.00  0.00    +0.000 NA
ATOM     30  C   UNL     1      50.402   4.122  18.175  0.00  0.00    +0.000 A 
ATOM     31  C   UNL     1      49.266   4.769  18.660  0.00  0.00    +0.000 A 
BRANCH  30  32
ATOM     32  O   UNL     1      50.397   3.327  17.067  0.00  0.00    +0.000 OA
ATOM     33  H   UNL     1      50.702   2.481  17.445  0.00  0.00    +0.000 HD
ENDBRANCH  30  32
ENDBRANCH  20  23
ENDBRANCH  18  19
ENDBRANCH   4  18
TORSDOF 8
ENDMDL
MODEL 2
REMARK VINA RESULT:    -8.249      1.997      3.023
REMARK INTER + INTRA:         -12.556
REMARK INTER:                 -12.133
REMARK INTRA:                  -0.423
REMARK UNBOUND:                -0.690
REMARK  Name = 
REMARK  9 active torsions:
REMARK  status: ('A' for Active; 'I' for Inactive)
REMARK    1  A    between atoms: C_1  and  C_2
REMARK    2  A    between atoms: C_6  and  C_7
REMARK    3  A    between atoms: C_7  and  N_8
REMARK    4  A    between atoms: N_8  and  C_9
REMARK    5  A    between atoms: C_9  and  C_10
REMARK    6  A    between atoms: N_13  and  C_14
REMARK    7  A    between atoms: C_14  and  N_15
REMARK    8  A    between atoms: C_16  and  C_18
REMARK    9  A    between atoms: C_25  and  O_26
REMARK                            x       y       z     vdW  Elec       q    Type
REMARK                         _______ _______ _______ _____ _____    ______ ____
ROOT
ATOM      1  C   UNL     1      43.212   4.567  11.840  0.00  0.00    +0.000 C 
ATOM      2  C   UNL     1      43.163   5.979  11.253  0.00  0.00    +0.000 C 
ATOM      3  C   UNL     1      44.515   6.682  11.319  0.00  0.00    +0.000 C 
ATOM      4  N   UNL     1      45.049   6.721  12.692  0.00  0.00    +0.000 NA
ATOM      5  C   UNL     1      45.163   5.365  13.257  0.00  0.00    +0.000 C 
ATOM      6  C   UNL     1      43.819   4.634  13.248  0.00  0.00    +0.000 C 
ENDROOT
BRANCH   1   7
ATOM      7  C   UNL     1      43.964   3.584  10.913  0.00  0.00    +0.000 C 
BRANCH   7   8
ATOM      8  N   UNL     1      43.620   3.744   9.497  0.00  0.00    +0.000 NA
ATOM      9  H   UNL     1      43.348   2.838   9.112  0.00  0.00    +0.000 HD
BRANCH   8  10
ATOM     10  C   UNL     1      44.762   4.230   8.707  0.00  0.00    +0.000 C 
BRANCH  10  16
ATOM     11  C   UNL     1      47.701   2.698   5.162  0.00  0.00    +0.000 C 
ATOM     12  C   UNL     1      46.984   2.369   6.430  0.00  0.00    +0.000 A 
ATOM     13  C   UNL     1      47.023   1.084   6.968  0.00  0.00    +0.000 A 
ATOM     14  C   UNL     1      46.309   0.822   8.133  0.00  0.00    +0.000 A 
ATOM     15  C   UNL     1      45.576   1.844   8.720  0.00  0.00    +0.000 A 
ATOM     16  C   UNL     1      45.586   3.104   8.127  0.00  0.00    +0.000 A 
ATOM     17  N   UNL     1      46.281   3.373   6.996  0.00  0.00    +0.000 NA
ENDBRANCH  10  16
ENDBRANCH   8  10
ENDBRANCH   7   8
ENDBRANCH   1   7
BRANCH   4  18
ATOM     18  C   UNL     1      46.364   7.356  12.724  0.00  0.00    +0.000 C 
BRANCH  18  19
ATOM     19  N   UNL     1      46.911   7.077  14.008  0.00  0.00    +0.000 N 
ATOM     20  C   UNL     1      48.126   6.481  14.189  0.00  0.00    +0.000 C 
ATOM     21  O   UNL     1      48.869   6.181  13.259  0.00  0.00    +0.000 OA
ATOM     22  H   UNL     1      46.277   7.209  14.782  0.00  0.00    +0.000 HD
BRANCH  20  23
ATOM     23  C   UNL     1      48.525   6.297  15.585  0.00  0.00    +0.000 A 
ATOM     24  C   UNL     1      49.151   7.325  16.275  0.00  0.00    +0.000 A 
ATOM     25  S   UNL     1      49.469   6.943  17.907  0.00  0.00    +0.000 S 
ATOM     26  C   UNL     1      48.825   5.381  17.718  0.00  0.00    +0.000 A 
ATOM     27  N   UNL     1      48.800   4.526  18.757  0.00  0.00    +0.000 NA
ATOM     28  C   UNL     1      48.282   3.336  18.434  0.00  0.00    +0.000 A 
ATOM     29  N   UNL     1      47.822   2.945  17.238  0.00  0.00    +0.000 NA
ATOM     30  C   UNL     1      47.869   3.844  16.253  0.00  0.00    +0.000 A 
ATOM     31  C   UNL     1      48.366   5.134  16.433  0.00  0.00    +0.000 A 
BRANCH  30  32
ATOM     32  O   UNL     1      47.377   3.388  15.066  0.00  0.00    +0.000 OA
ATOM     33  H   UNL     1      46.419   3.504  15.206  0.00  0.00    +0.000 HD
ENDBRANCH  30  32
ENDBRANCH  20  23
ENDBRANCH  18  19
ENDBRANCH   4  18
TORSDOF 8
ENDMDL
MODEL 3
REMARK VINA RESULT:    -7.562      2.114      3.209
REMARK INTER + INTRA:         -11.568
REMARK INTER:                 -10.491
REMARK INTRA:                  -1.077
REMARK UNBOUND:                -0.690
REMARK  Name = 
REMARK  9 active torsions:
REMARK  status: ('A' for Active; 'I' for Inactive)
REMARK    1  A    between atoms: C_1  and  C_2
REMARK    2  A    between atoms: C_6  and  C_7
REMARK    3  A    between atoms: C_7  and  N_8
REMARK    4  A    between atoms: N_8  and  C_9
REMARK    5  A    between atoms: C_9  and  C_10
REMARK    6  A    between atoms: N_13  and  C_14
REMARK    7  A    between atoms: C_14  and  N_15
REMARK    8  A    between atoms: C_16  and  C_18
REMARK    9  A    between atoms: C_25  and  O_26
REMARK                            x       y       z     vdW  Elec       q    Type
REMARK                         _______ _______ _______ _____ _____    ______ ____
ROOT
ATOM      1  C   UNL     1      46.645   5.471  12.262  0.00  0.00    +0.000 C 
ATOM      2  C   UNL     1      46.766   4.365  13.311  0.00  0.00    +0.000 C 
ATOM      3  C   UNL     1      46.942   4.918  14.721  0.00  0.00    +0.000 C 
ATOM      4  N   UNL     1      48.093   5.833  14.814  0.00  0.00    +0.000 NA
ATOM      5  C   UNL     1      47.968   6.943  13.853  0.00  0.00    +0.000 C 
ATOM      6  C   UNL     1      47.829   6.436  12.417  0.00  0.00    +0.000 C 
ENDROOT
BRANCH   1   7
ATOM      7  C   UNL     1      45.278   6.190  12.339  0.00  0.00    +0.000 C 
BRANCH   7   8
ATOM      8  N   UNL     1      44.686   6.451  11.023  0.00  0.00    +0.000 NA
ATOM      9  H   UNL     1      44.183   7.340  11.051  0.00  0.00    +0.000 HD
BRANCH   8  10
ATOM     10  C   UNL     1      43.719   5.412  10.641  0.00  0.00    +0.000 C 
BRANCH  10  16
ATOM     11  C   UNL     1      46.600   3.967   7.013  0.00  0.00    +0.000 C 
ATOM     12  C   UNL     1      45.734   3.572   8.163  0.00  0.00    +0.000 A 
ATOM     13  C   UNL     1      45.490   2.231   8.455  0.00  0.00    +0.000 A 
ATOM     14  C   UNL     1      44.647   1.918   9.517  0.00  0.00    +0.000 A 
ATOM     15  C   UNL     1      44.071   2.947  10.249  0.00  0.00    +0.000 A 
ATOM     16  C   UNL     1      44.363   4.263   9.901  0.00  0.00    +0.000 A 
ATOM     17  N   UNL     1      45.186   4.581   8.872  0.00  0.00    +0.000 NA
ENDBRANCH  10  16
ENDBRANCH   8  10
ENDBRANCH   7   8
ENDBRANCH   1   7
BRANCH   4  18
ATOM     18  C   UNL     1      48.214   6.387  16.160  0.00  0.00    +0.000 C 
BRANCH  18  19
ATOM     19  N   UNL     1      49.386   5.810  16.725  0.00  0.00    +0.000 N 
ATOM     20  C   UNL     1      49.358   4.741  17.573  0.00  0.00    +0.000 C 
ATOM     21  O   UNL     1      48.323   4.157  17.879  0.00  0.00    +0.000 OA
ATOM     22  H   UNL     1      50.234   6.337  16.581  0.00  0.00    +0.000 HD
BRANCH  20  23
ATOM     23  C   UNL     1      50.668   4.279  18.033  0.00  0.00    +0.000 A 
ATOM     24  C   UNL     1      51.479   5.113  18.790  0.00  0.00    +0.000 A 
ATOM     25  S   UNL     1      52.930   4.367  19.289  0.00  0.00    +0.000 S 
ATOM     26  C   UNL     1      52.534   2.933  18.467  0.00  0.00    +0.000 A 
ATOM     27  N   UNL     1      53.374   1.881  18.491  0.00  0.00    +0.000 NA
ATOM     28  C   UNL     1      52.924   0.845  17.778  0.00  0.00    +0.000 A 
ATOM     29  N   UNL     1      51.783   0.770  17.079  0.00  0.00    +0.000 NA
ATOM     30  C   UNL     1      50.993   1.844  17.102  0.00  0.00    +0.000 A 
ATOM     31  C   UNL     1      51.313   3.000  17.813  0.00  0.00    +0.000 A 
BRANCH  30  32
ATOM     32  O   UNL     1      49.844   1.701  16.380  0.00  0.00    +0.000 OA
ATOM     33  H   UNL     1      50.158   1.934  15.486  0.00  0.00    +0.000 HD
ENDBRANCH  30  32
ENDBRANCH  20  23
ENDBRANCH  18  19
ENDBRANCH   4  18
TORSDOF 8
ENDMDL
MODEL 4
REMARK VINA RESULT:    -7.489      3.659      8.698
REMARK INTER + INTRA:         -11.463
REMARK INTER:                 -10.043
REMARK INTRA:                  -1.419
REMARK UNBOUND:                -0.690
REMARK  Name = 
REMARK  9 active torsions:
REMARK  status: ('A' for Active; 'I' for Inactive)
REMARK    1  A    between atoms: C_1  and  C_2
REMARK    2  A    between atoms: C_6  and  C_7
REMARK    3  A    between atoms: C_7  and  N_8
REMARK    4  A    between atoms: N_8  and  C_9
REMARK    5  A    between atoms: C_9  and  C_10
REMARK    6  A    between atoms: N_13  and  C_14
REMARK    7  A    between atoms: C_14  and  N_15
REMARK    8  A    between atoms: C_16  and  C_18
REMARK    9  A    between atoms: C_25  and  O_26
REMARK                            x       y       z     vdW  Elec       q    Type
REMARK                         _______ _______ _______ _____ _____    ______ ____
ROOT
ATOM      1  C   UNL     1      50.238   8.441  13.219  0.00  0.00    +0.000 C 
ATOM      2  C   UNL     1      49.540   9.739  12.811  0.00  0.00    +0.000 C 
ATOM      3  C   UNL     1      48.027   9.666  12.993  0.00  0.00    +0.000 C 
ATOM      4  N   UNL     1      47.440   8.524  12.269  0.00  0.00    +0.000 NA
ATOM      5  C   UNL     1      48.056   7.254  12.691  0.00  0.00    +0.000 C 
ATOM      6  C   UNL     1      49.571   7.266  12.489  0.00  0.00    +0.000 C 
ENDROOT
BRANCH   1   7
ATOM      7  C   UNL     1      50.257   8.255  14.754  0.00  0.00    +0.000 C 
BRANCH   7   8
ATOM      8  N   UNL     1      50.648   6.905  15.169  0.00  0.00    +0.000 NA
ATOM      9  H   UNL     1      50.151   6.220  14.597  0.00  0.00    +0.000 HD
BRANCH   8  10
ATOM     10  C   UNL     1      50.296   6.639  16.573  0.00  0.00    +0.000 C 
BRANCH  10  16
ATOM     11  C   UNL     1      46.646   4.226  14.473  0.00  0.00    +0.000 C 
ATOM     12  C   UNL     1      47.448   4.464  15.709  0.00  0.00    +0.000 A 
ATOM     13  C   UNL     1      47.128   3.831  16.909  0.00  0.00    +0.000 A 
ATOM     14  C   UNL     1      47.887   4.115  18.041  0.00  0.00    +0.000 A 
ATOM     15  C   UNL     1      48.934   5.020  17.943  0.00  0.00    +0.000 A 
ATOM     16  C   UNL     1      49.197   5.612  16.710  0.00  0.00    +0.000 A 
ATOM     17  N   UNL     1      48.468   5.341  15.600  0.00  0.00    +0.000 NA
ENDBRANCH  10  16
ENDBRANCH   8  10
ENDBRANCH   7   8
ENDBRANCH   1   7
BRANCH   4  18
ATOM     18  C   UNL     1      45.999   8.447  12.496  0.00  0.00    +0.000 C 
BRANCH  18  19
ATOM     19  N   UNL     1      45.631   7.091  12.270  0.00  0.00    +0.000 N 
ATOM     20  C   UNL     1      44.472   6.725  11.649  0.00  0.00    +0.000 C 
ATOM     21  O   UNL     1      43.674   7.537  11.191  0.00  0.00    +0.000 OA
ATOM     22  H   UNL     1      46.211   6.407  12.733  0.00  0.00    +0.000 HD
BRANCH  20  23
ATOM     23  C   UNL     1      44.282   5.283  11.490  0.00  0.00    +0.000 A 
ATOM     24  C   UNL     1      43.640   4.548  12.477  0.00  0.00    +0.000 A 
ATOM     25  S   UNL     1      43.451   2.901  12.072  0.00  0.00    +0.000 S 
ATOM     26  C   UNL     1      44.264   3.119  10.595  0.00  0.00    +0.000 A 
ATOM     27  N   UNL     1      44.448   2.080   9.760  0.00  0.00    +0.000 NA
ATOM     28  C   UNL     1      45.123   2.417   8.657  0.00  0.00    +0.000 A 
ATOM     29  N   UNL     1      45.607   3.624   8.334  0.00  0.00    +0.000 NA
ATOM     30  C   UNL     1      45.384   4.612   9.202  0.00  0.00    +0.000 A 
ATOM     31  C   UNL     1      44.682   4.426  10.393  0.00  0.00    +0.000 A 
BRANCH  30  32
ATOM     32  O   UNL     1      45.893   5.816   8.812  0.00  0.00    +0.000 OA
ATOM     33  H   UNL     1      45.250   6.074   8.125  0.00  0.00    +0.000 HD
ENDBRANCH  30  32
ENDBRANCH  20  23
ENDBRANCH  18  19
ENDBRANCH   4  18
TORSDOF 8
ENDMDL
MODEL 5
REMARK VINA RESULT:    -7.275      2.382      3.554
REMARK INTER + INTRA:         -11.154
REMARK INTER:                  -9.914
REMARK INTRA:                  -1.241
REMARK UNBOUND:                -0.690
REMARK  Name = 
REMARK  9 active torsions:
REMARK  status: ('A' for Active; 'I' for Inactive)
REMARK    1  A    between atoms: C_1  and  C_2
REMARK    2  A    between atoms: C_6  and  C_7
REMARK    3  A    between atoms: C_7  and  N_8
REMARK    4  A    between atoms: N_8  and  C_9
REMARK    5  A    between atoms: C_9  and  C_10
REMARK    6  A    between atoms: N_13  and  C_14
REMARK    7  A    between atoms: C_14  and  N_15
REMARK    8  A    between atoms: C_16  and  C_18
REMARK    9  A    between atoms: C_25  and  O_26
REMARK                            x       y       z     vdW  Elec       q    Type
REMARK                         _______ _______ _______ _____ _____    ______ ____
ROOT
ATOM      1  C   UNL     1      46.867   7.150  11.699  0.00  0.00    +0.000 C 
ATOM      2  C   UNL     1      48.378   7.288  11.887  0.00  0.00    +0.000 C 
ATOM      3  C   UNL     1      48.755   7.639  13.323  0.00  0.00    +0.000 C 
ATOM      4  N   UNL     1      48.073   8.859  13.788  0.00  0.00    +0.000 NA
ATOM      5  C   UNL     1      46.610   8.726  13.674  0.00  0.00    +0.000 C 
ATOM      6  C   UNL     1      46.181   8.413  12.240  0.00  0.00    +0.000 C 
ENDROOT
BRANCH   1   7
ATOM      7  C   UNL     1      46.322   5.854  12.344  0.00  0.00    +0.000 C 
BRANCH   7   8
ATOM      8  N   UNL     1      44.859   5.767  12.323  0.00  0.00    +0.000 NA
ATOM      9  H   UNL     1      44.569   4.872  12.722  0.00  0.00    +0.000 HD
BRANCH   8  10
ATOM     10  C   UNL     1      44.326   5.828  10.954  0.00  0.00    +0.000 C 
BRANCH  10  16
ATOM     11  C   UNL     1      46.491   3.825   7.100  0.00  0.00    +0.000 C 
ATOM     12  C   UNL     1      45.649   3.620   8.315  0.00  0.00    +0.000 A 
ATOM     13  C   UNL     1      45.117   2.369   8.622  0.00  0.00    +0.000 A 
ATOM     14  C   UNL     1      44.309   2.240   9.748  0.00  0.00    +0.000 A 
ATOM     15  C   UNL     1      44.053   3.359  10.527  0.00  0.00    +0.000 A 
ATOM     16  C   UNL     1      44.621   4.577  10.160  0.00  0.00    +0.000 A 
ATOM     17  N   UNL     1      45.413   4.714   9.069  0.00  0.00    +0.000 NA
ENDBRANCH  10  16
ENDBRANCH   8  10
ENDBRANCH   7   8
ENDBRANCH   1   7
BRANCH   4  18
ATOM     18  C   UNL     1      48.411   9.149  15.179  0.00  0.00    +0.000 C 
BRANCH  18  19
ATOM     19  N   UNL     1      48.908   7.935  15.731  0.00  0.00    +0.000 N 
ATOM     20  C   UNL     1      48.828   7.631  17.059  0.00  0.00    +0.000 C 
ATOM     21  O   UNL     1      48.278   8.358  17.880  0.00  0.00    +0.000 OA
ATOM     22  H   UNL     1      49.462   7.374  15.101  0.00  0.00    +0.000 HD
BRANCH  20  23
ATOM     23  C   UNL     1      49.376   6.325  17.430  0.00  0.00    +0.000 A 
ATOM     24  C   UNL     1      50.466   6.240  18.285  0.00  0.00    +0.000 A 
ATOM     25  S   UNL     1      50.907   4.633  18.653  0.00  0.00    +0.000 S 
ATOM     26  C   UNL     1      49.687   4.014  17.643  0.00  0.00    +0.000 A 
ATOM     27  N   UNL     1      49.526   2.685  17.508  0.00  0.00    +0.000 NA
ATOM     28  C   UNL     1      48.540   2.368  16.662  0.00  0.00    +0.000 A 
ATOM     29  N   UNL     1      47.753   3.207  15.977  0.00  0.00    +0.000 NA
ATOM     30  C   UNL     1      47.960   4.512  16.162  0.00  0.00    +0.000 A 
ATOM     31  C   UNL     1      48.940   5.005  17.024  0.00  0.00    +0.000 A 
BRANCH  30  32
ATOM     32  O   UNL     1      47.121   5.312  15.444  0.00  0.00    +0.000 OA
ATOM     33  H   UNL     1      46.584   4.644  14.978  0.00  0.00    +0.000 HD
ENDBRANCH  30  32
ENDBRANCH  20  23
ENDBRANCH  18  19
ENDBRANCH   4  18
TORSDOF 8
ENDMDL
MODEL 6
REMARK VINA RESULT:    -7.086      3.519      5.518
REMARK INTER + INTRA:         -10.883
REMARK INTER:                  -9.995
REMARK INTRA:                  -0.888
REMARK UNBOUND:                -0.690
REMARK  Name = 
REMARK  9 active torsions:
REMARK  status: ('A' for Active; 'I' for Inactive)
REMARK    1  A    between atoms: C_1  and  C_2
REMARK    2  A    between atoms: C_6  and  C_7
REMARK    3  A    between atoms: C_7  and  N_8
REMARK    4  A    between atoms: N_8  and  C_9
REMARK    5  A    between atoms: C_9  and  C_10
REMARK    6  A    between atoms: N_13  and  C_14
REMARK    7  A    between atoms: C_14  and  N_15
REMARK    8  A    between atoms: C_16  and  C_18
REMARK    9  A    between atoms: C_25  and  O_26
REMARK                            x       y       z     vdW  Elec       q    Type
REMARK                         _______ _______ _______ _____ _____    ______ ____
ROOT
ATOM      1  C   UNL     1      46.243   7.739  11.938  0.00  0.00    +0.000 C 
ATOM      2  C   UNL     1      45.084   6.753  11.786  0.00  0.00    +0.000 C 
ATOM      3  C   UNL     1      45.029   5.742  12.927  0.00  0.00    +0.000 C 
ATOM      4  N   UNL     1      46.301   5.012  13.078  0.00  0.00    +0.000 NA
ATOM      5  C   UNL     1      47.424   5.942  13.288  0.00  0.00    +0.000 C 
ATOM      6  C   UNL     1      47.544   6.951  12.145  0.00  0.00    +0.000 C 
ENDROOT
BRANCH   1   7
ATOM      7  C   UNL     1      45.982   8.765  13.066  0.00  0.00    +0.000 C 
BRANCH   7   8
ATOM      8  N   UNL     1      44.854   9.658  12.787  0.00  0.00    +0.000 NA
ATOM      9  H   UNL     1      44.083   9.114  12.394  0.00  0.00    +0.000 HD
BRANCH   8  10
ATOM     10  C   UNL     1      45.205  10.693  11.802  0.00  0.00    +0.000 C 
BRANCH  10  16
ATOM     11  C   UNL     1      40.460  10.458  10.812  0.00  0.00    +0.000 C 
ATOM     12  C   UNL     1      41.824  10.839  10.341  0.00  0.00    +0.000 A 
ATOM     13  C   UNL     1      42.033  11.323   9.051  0.00  0.00    +0.000 A 
ATOM     14  C   UNL     1      43.330  11.631   8.651  0.00  0.00    +0.000 A 
ATOM     15  C   UNL     1      44.375  11.443   9.543  0.00  0.00    +0.000 A 
ATOM     16  C   UNL     1      44.090  10.958  10.818  0.00  0.00    +0.000 A 
ATOM     17  N   UNL     1      42.832  10.659  11.221  0.00  0.00    +0.000 NA
ENDBRANCH  10  16
ENDBRANCH   8  10
ENDBRANCH   7   8
ENDBRANCH   1   7
BRANCH   4  18
ATOM     18  C   UNL     1      46.240   4.085  14.205  0.00  0.00    +0.000 C 
BRANCH  18  19
ATOM     19  N   UNL     1      47.320   4.432  15.065  0.00  0.00    +0.000 N 
ATOM     20  C   UNL     1      47.387   4.044  16.372  0.00  0.00    +0.000 C 
ATOM     21  O   UNL     1      46.546   3.323  16.900  0.00  0.00    +0.000 OA
ATOM     22  H   UNL     1      47.963   5.113  14.692  0.00  0.00    +0.000 HD
BRANCH  20  23
ATOM     23  C   UNL     1      48.586   4.481  17.088  0.00  0.00    +0.000 A 
ATOM     24  C   UNL     1      48.652   5.757  17.631  0.00  0.00    +0.000 A 
ATOM     25  S   UNL     1      50.098   6.049  18.487  0.00  0.00    +0.000 S 
ATOM     26  C   UNL     1      50.692   4.501  18.112  0.00  0.00    +0.000 A 
ATOM     27  N   UNL     1      51.904   4.113  18.549  0.00  0.00    +0.000 NA
ATOM     28  C   UNL     1      52.227   2.880  18.148  0.00  0.00    +0.000 A 
ATOM     29  N   UNL     1      51.496   2.051  17.390  0.00  0.00    +0.000 NA
ATOM     30  C   UNL     1      50.302   2.495  16.996  0.00  0.00    +0.000 A 
ATOM     31  C   UNL     1      49.812   3.753  17.344  0.00  0.00    +0.000 A 
BRANCH  30  32
ATOM     32  O   UNL     1      49.604   1.602  16.237  0.00  0.00    +0.000 OA
ATOM     33  H   UNL     1      50.311   1.260  15.658  0.00  0.00    +0.000 HD
ENDBRANCH  30  32
ENDBRANCH  20  23
ENDBRANCH  18  19
ENDBRANCH   4  18
TORSDOF 8
ENDMDL
MODEL 7
REMARK VINA RESULT:    -7.004      3.669      9.646
REMARK INTER + INTRA:         -10.764
REMARK INTER:                  -9.763
REMARK INTRA:                  -1.001
REMARK UNBOUND:                -0.690
REMARK  Name = 
REMARK  9 active torsions:
REMARK  status: ('A' for Active; 'I' for Inactive)
REMARK    1  A    between atoms: C_1  and  C_2
REMARK    2  A    between atoms: C_6  and  C_7
REMARK    3  A    between atoms: C_7  and  N_8
REMARK    4  A    between atoms: N_8  and  C_9
REMARK    5  A    between atoms: C_9  and  C_10
REMARK    6  A    between atoms: N_13  and  C_14
REMARK    7  A    between atoms: C_14  and  N_15
REMARK    8  A    between atoms: C_16  and  C_18
REMARK    9  A    between atoms: C_25  and  O_26
REMARK                            x       y       z     vdW  Elec       q    Type
REMARK                         _______ _______ _______ _____ _____    ______ ____
ROOT
ATOM      1  C   UNL     1      49.125   3.133  18.119  0.00  0.00    +0.000 C 
ATOM      2  C   UNL     1      47.804   3.512  17.448  0.00  0.00    +0.000 C 
ATOM      3  C   UNL     1      47.993   4.531  16.329  0.00  0.00    +0.000 C 
ATOM      4  N   UNL     1      48.691   5.742  16.798  0.00  0.00    +0.000 NA
ATOM      5  C   UNL     1      49.995   5.405  17.394  0.00  0.00    +0.000 C 
ATOM      6  C   UNL     1      49.851   4.415  18.550  0.00  0.00    +0.000 C 
ENDROOT
BRANCH   1   7
ATOM      7  C   UNL     1      49.994   2.232  17.211  0.00  0.00    +0.000 C 
BRANCH   7   8
ATOM      8  N   UNL     1      50.958   1.417  17.955  0.00  0.00    +0.000 NA
ATOM      9  H   UNL     1      50.989   1.736  18.926  0.00  0.00    +0.000 HD
BRANCH   8  10
ATOM     10  C   UNL     1      52.318   1.542  17.410  0.00  0.00    +0.000 C 
BRANCH  10  16
ATOM     11  C   UNL     1      55.000   2.300  21.384  0.00  0.00    +0.000 C 
ATOM     12  C   UNL     1      54.453   2.858  20.111  0.00  0.00    +0.000 A 
ATOM     13  C   UNL     1      54.669   4.188  19.756  0.00  0.00    +0.000 A 
ATOM     14  C   UNL     1      54.108   4.667  18.576  0.00  0.00    +0.000 A 
ATOM     15  C   UNL     1      53.348   3.811  17.792  0.00  0.00    +0.000 A 
ATOM     16  C   UNL     1      53.178   2.493  18.209  0.00  0.00    +0.000 A 
ATOM     17  N   UNL     1      53.723   2.013  19.353  0.00  0.00    +0.000 NA
ENDBRANCH  10  16
ENDBRANCH   8  10
ENDBRANCH   7   8
ENDBRANCH   1   7
BRANCH   4  18
ATOM     18  C   UNL     1      48.903   6.681  15.700  0.00  0.00    +0.000 C 
BRANCH  18  19
ATOM     19  N   UNL     1      47.755   6.584  14.864  0.00  0.00    +0.000 N 
ATOM     20  C   UNL     1      47.828   6.367  13.518  0.00  0.00    +0.000 C 
ATOM     21  O   UNL     1      48.887   6.189  12.926  0.00  0.00    +0.000 OA
ATOM     22  H   UNL     1      46.883   6.837  15.303  0.00  0.00    +0.000 HD
BRANCH  20  23
ATOM     23  C   UNL     1      46.537   6.277  12.834  0.00  0.00    +0.000 A 
ATOM     24  C   UNL     1      45.931   7.419  12.329  0.00  0.00    +0.000 A 
ATOM     25  S   UNL     1      44.472   7.096  11.504  0.00  0.00    +0.000 S 
ATOM     26  C   UNL     1      44.590   5.434  11.844  0.00  0.00    +0.000 A 
ATOM     27  N   UNL     1      43.640   4.584  11.415  0.00  0.00    +0.000 NA
ATOM     28  C   UNL     1      43.872   3.321  11.785  0.00  0.00    +0.000 A 
ATOM     29  N   UNL     1      44.902   2.859  12.507  0.00  0.00    +0.000 NA
ATOM     30  C   UNL     1      45.812   3.754  12.895  0.00  0.00    +0.000 A 
ATOM     31  C   UNL     1      45.722   5.108  12.576  0.00  0.00    +0.000 A 
BRANCH  30  32
ATOM     32  O   UNL     1      46.838   3.220  13.618  0.00  0.00    +0.000 OA
ATOM     33  H   UNL     1      46.428   3.156  14.501  0.00  0.00    +0.000 HD
ENDBRANCH  30  32
ENDBRANCH  20  23
ENDBRANCH  18  19
ENDBRANCH   4  18
TORSDOF 8
ENDMDL
MODEL 8
REMARK VINA RESULT:    -6.941      2.647      4.259
REMARK INTER + INTRA:         -10.675
REMARK INTER:                  -9.276
REMARK INTRA:                  -1.399
REMARK UNBOUND:                -0.690
REMARK  Name = 
REMARK  9 active torsions:
REMARK  status: ('A' for Active; 'I' for Inactive)
REMARK    1  A    between atoms: C_1  and  C_2
REMARK    2  A    between atoms: C_6  and  C_7
REMARK    3  A    between atoms: C_7  and  N_8
REMARK    4  A    between atoms: N_8  and  C_9
REMARK    5  A    between atoms: C_9  and  C_10
REMARK    6  A    between atoms: N_13  and  C_14
REMARK    7  A    between atoms: C_14  and  N_15
REMARK    8  A    between atoms: C_16  and  C_18
REMARK    9  A    between atoms: C_25  and  O_26
REMARK                            x       y       z     vdW  Elec       q    Type
REMARK                         _______ _______ _______ _____ _____    ______ ____
ROOT
ATOM      1  C   UNL     1      47.278   7.572  12.275  0.00  0.00    +0.000 C 
ATOM      2  C   UNL     1      48.731   7.480  11.809  0.00  0.00    +0.000 C 
ATOM      3  C   UNL     1      49.719   7.563  12.969  0.00  0.00    +0.000 C 
ATOM      4  N   UNL     1      49.521   8.780  13.775  0.00  0.00    +0.000 NA
ATOM      5  C   UNL     1      48.141   8.859  14.287  0.00  0.00    +0.000 C 
ATOM      6  C   UNL     1      47.115   8.820  13.154  0.00  0.00    +0.000 C 
ENDROOT
BRANCH   1   7
ATOM      7  C   UNL     1      46.818   6.278  12.987  0.00  0.00    +0.000 C 
BRANCH   7   8
ATOM      8  N   UNL     1      45.389   6.272  13.312  0.00  0.00    +0.000 NA
ATOM      9  H   UNL     1      45.156   5.399  13.790  0.00  0.00    +0.000 HD
BRANCH   8  10
ATOM     10  C   UNL     1      44.552   6.345  12.104  0.00  0.00    +0.000 C 
BRANCH  10  16
ATOM     11  C   UNL     1      45.632   3.819   8.103  0.00  0.00    +0.000 C 
ATOM     12  C   UNL     1      44.991   3.824   9.452  0.00  0.00    +0.000 A 
ATOM     13  C   UNL     1      44.313   2.705   9.931  0.00  0.00    +0.000 A 
ATOM     14  C   UNL     1      43.703   2.774  11.181  0.00  0.00    +0.000 A 
ATOM     15  C   UNL     1      43.785   3.953  11.908  0.00  0.00    +0.000 A 
ATOM     16  C   UNL     1      44.482   5.029  11.366  0.00  0.00    +0.000 A 
ATOM     17  N   UNL     1      45.084   4.973  10.153  0.00  0.00    +0.000 NA
ENDBRANCH  10  16
ENDBRANCH   8  10
ENDBRANCH   7   8
ENDBRANCH   1   7
BRANCH   4  18
ATOM     18  C   UNL     1      50.445   8.814  14.906  0.00  0.00    +0.000 C 
BRANCH  18  19
ATOM     19  N   UNL     1      50.489   7.489  15.425  0.00  0.00    +0.000 N 
ATOM     20  C   UNL     1      50.914   7.196  16.689  0.00  0.00    +0.000 C 
ATOM     21  O   UNL     1      51.246   8.056  17.499  0.00  0.00    +0.000 OA
ATOM     22  H   UNL     1      50.330   6.758  14.748  0.00  0.00    +0.000 HD
BRANCH  20  23
ATOM     23  C   UNL     1      50.867   5.778  17.046  0.00  0.00    +0.000 A 
ATOM     24  C   UNL     1      52.025   5.110  17.419  0.00  0.00    +0.000 A 
ATOM     25  S   UNL     1      51.751   3.487  17.867  0.00  0.00    +0.000 S 
ATOM     26  C   UNL     1      50.090   3.622  17.528  0.00  0.00    +0.000 A 
ATOM     27  N   UNL     1      49.273   2.567  17.700  0.00  0.00    +0.000 NA
ATOM     28  C   UNL     1      48.007   2.835  17.368  0.00  0.00    +0.000 A 
ATOM     29  N   UNL     1      47.513   3.990  16.899  0.00  0.00    +0.000 NA
ATOM     30  C   UNL     1      48.376   4.997  16.758  0.00  0.00    +0.000 A 
ATOM     31  C   UNL     1      49.728   4.883  17.077  0.00  0.00    +0.000 A 
BRANCH  30  32
ATOM     32  O   UNL     1      47.810   6.146  16.287  0.00  0.00    +0.000 OA
ATOM     33  H   UNL     1      48.542   6.778  16.417  0.00  0.00    +0.000 HD
ENDBRANCH  30  32
ENDBRANCH  20  23
ENDBRANCH  18  19
ENDBRANCH   4  18
TORSDOF 8
ENDMDL
MODEL 9
REMARK VINA RESULT:    -6.930      3.995      8.843
REMARK INTER + INTRA:         -10.658
REMARK INTER:                  -8.826
REMARK INTRA:                  -1.831
REMARK UNBOUND:                -0.690
REMARK  Name = 
REMARK  9 active torsions:
REMARK  status: ('A' for Active; 'I' for Inactive)
REMARK    1  A    between atoms: C_1  and  C_2
REMARK    2  A    between atoms: C_6  and  C_7
REMARK    3  A    between atoms: C_7  and  N_8
REMARK    4  A    between atoms: N_8  and  C_9
REMARK    5  A    between atoms: C_9  and  C_10
REMARK    6  A    between atoms: N_13  and  C_14
REMARK    7  A    between atoms: C_14  and  N_15
REMARK    8  A    between atoms: C_16  and  C_18
REMARK    9  A    between atoms: C_25  and  O_26
REMARK                            x       y       z     vdW  Elec       q    Type
REMARK                         _______ _______ _______ _____ _____    ______ ____
ROOT
ATOM      1  C   UNL     1      50.596   7.505  17.979  0.00  0.00    +0.000 C 
ATOM      2  C   UNL     1      50.709   8.956  17.509  0.00  0.00    +0.000 C 
ATOM      3  C   UNL     1      49.552   9.364  16.602  0.00  0.00    +0.000 C 
ATOM      4  N   UNL     1      49.416   8.464  15.443  0.00  0.00    +0.000 NA
ATOM      5  C   UNL     1      49.245   7.065  15.874  0.00  0.00    +0.000 C 
ATOM      6  C   UNL     1      50.404   6.598  16.755  0.00  0.00    +0.000 C 
ENDROOT
BRANCH   1   7
ATOM      7  C   UNL     1      49.478   7.326  19.033  0.00  0.00    +0.000 C 
BRANCH   7   8
ATOM      8  N   UNL     1      49.685   6.167  19.906  0.00  0.00    +0.000 NA
ATOM      9  H   UNL     1      50.460   5.608  19.544  0.00  0.00    +0.000 HD
BRANCH   8  10
ATOM     10  C   UNL     1      48.501   5.296  19.950  0.00  0.00    +0.000 C 
BRANCH  10  16
ATOM     11  C   UNL     1      50.580   1.941  17.125  0.00  0.00    +0.000 C 
ATOM     12  C   UNL     1      49.389   2.805  17.382  0.00  0.00    +0.000 A 
ATOM     13  C   UNL     1      48.309   2.825  16.502  0.00  0.00    +0.000 A 
ATOM     14  C   UNL     1      47.240   3.674  16.770  0.00  0.00    +0.000 A 
ATOM     15  C   UNL     1      47.282   4.478  17.901  0.00  0.00    +0.000 A 
ATOM     16  C   UNL     1      48.394   4.402  18.736  0.00  0.00    +0.000 A 
ATOM     17  N   UNL     1      49.439   3.576  18.488  0.00  0.00    +0.000 NA
ENDBRANCH  10  16
ENDBRANCH   8  10
ENDBRANCH   7   8
ENDBRANCH   1   7
BRANCH   4  18
ATOM     18  C   UNL     1      48.275   8.845  14.616  0.00  0.00    +0.000 C 
BRANCH  18  19
ATOM     19  N   UNL     1      47.614   7.634  14.265  0.00  0.00    +0.000 N 
ATOM     20  C   UNL     1      46.908   7.477  13.107  0.00  0.00    +0.000 C 
ATOM     21  O   UNL     1      46.825   8.352  12.251  0.00  0.00    +0.000 OA
ATOM     22  H   UNL     1      47.572   6.941  14.997  0.00  0.00    +0.000 HD
BRANCH  20  23
ATOM     23  C   UNL     1      46.318   6.152  12.915  0.00  0.00    +0.000 A 
ATOM     24  C   UNL     1      46.999   5.016  13.331  0.00  0.00    +0.000 A 
ATOM     25  S   UNL     1      46.116   3.576  13.086  0.00  0.00    +0.000 S 
ATOM     26  C   UNL     1      44.827   4.429  12.376  0.00  0.00    +0.000 A 
ATOM     27  N   UNL     1      43.738   3.772  11.937  0.00  0.00    +0.000 NA
ATOM     28  C   UNL     1      42.831   4.586  11.387  0.00  0.00    +0.000 A 
ATOM     29  N   UNL     1      42.912   5.915  11.239  0.00  0.00    +0.000 NA
ATOM     30  C   UNL     1      44.016   6.505  11.703  0.00  0.00    +0.000 A 
ATOM     31  C   UNL     1      45.048   5.797  12.317  0.00  0.00    +0.000 A 
BRANCH  30  32
ATOM     32  O   UNL     1      44.032   7.858  11.531  0.00  0.00    +0.000 OA
ATOM     33  H   UNL     1      44.449   8.144  12.365  0.00  0.00    +0.000 HD
ENDBRANCH  30  32
ENDBRANCH  20  23
ENDBRANCH  18  19
ENDBRANCH   4  18
TORSDOF 8
ENDMDL
