MODEL 1
REMARK VINA RESULT:    -8.161      0.000      0.000
REMARK INTER + INTRA:         -12.438
REMARK INTER:                 -11.500
REMARK INTRA:                  -0.938
REMARK UNBOUND:                -0.938
REMARK  Name = 
REMARK  8 active torsions:
REMARK  status: ('A' for Active; 'I' for Inactive)
REMARK    1  A    between atoms: C_1  and  N_2
REMARK    2  A    between atoms: N_2  and  C_3
REMARK    3  A    between atoms: N_2  and  C_14
REMARK    4  A    between atoms: C_3  and  C_4
REMARK    5  A    between atoms: C_4  and  C_5
REMARK    6  A    between atoms: C_8  and  C_9
REMARK    7  A    between atoms: C_18  and  O_19
REMARK    8  A    between atoms: O_19  and  C_20
REMARK                            x       y       z     vdW  Elec       q    Type
REMARK                         _______ _______ _______ _____ _____    ______ ____
ROOT
ATOM      1  C   UNL     1      43.206   5.430  12.418  0.00  0.00    +0.000 C 
ATOM      2  N   UNL     1      44.461   4.772  12.042  0.00  0.00    +0.000 N 
ENDROOT
BRANCH   2   3
ATOM      3  C   UNL     1      45.648   5.413  12.465  0.00  0.00    +0.000 A 
ATOM      4  C   UNL     1      46.255   6.427  11.700  0.00  0.00    +0.000 A 
ATOM      5  C   UNL     1      47.453   7.043  12.086  0.00  0.00    +0.000 A 
ATOM      6  C   UNL     1      48.096   6.657  13.257  0.00  0.00    +0.000 A 
ATOM      7  C   UNL     1      47.532   5.656  14.036  0.00  0.00    +0.000 A 
ATOM      8  C   UNL     1      46.325   5.055  13.645  0.00  0.00    +0.000 A 
BRANCH   7   9
ATOM      9  O   UNL     1      48.056   5.210  15.225  0.00  0.00    +0.000 OA
BRANCH   9  10
ATOM     10  C   UNL     1      47.299   4.256  16.002  0.00  0.00    +0.000 C 
ATOM     11  C   UNL     1      47.209   4.509  17.525  0.00  0.00    +0.000 C 
ATOM     12  C   UNL     1      47.610   3.050  17.777  0.00  0.00    +0.000 C 
ATOM     13  C   UNL     1      48.060   2.945  16.315  0.00  0.00    +0.000 C 
ENDBRANCH   9  10
ENDBRANCH   7   9
ENDBRANCH   2   3
BRANCH   2  14
ATOM     14  C   UNL     1      44.488   3.295  11.886  0.00  0.00    +0.000 C 
BRANCH  14  15
ATOM     15  C   UNL     1      43.791   2.787  10.617  0.00  0.00    +0.000 C 
BRANCH  15  16
ATOM     16  C   UNL     1      44.660   2.731   9.382  0.00  0.00    +0.000 A 
ATOM     17  C   UNL     1      44.984   3.907   8.692  0.00  0.00    +0.000 A 
ATOM     18  C   UNL     1      45.891   3.873   7.627  0.00  0.00    +0.000 A 
ATOM     19  C   UNL     1      46.482   2.670   7.241  0.00  0.00    +0.000 A 
ATOM     20  C   UNL     1      46.126   1.486   7.895  0.00  0.00    +0.000 A 
ATOM     21  C   UNL     1      45.214   1.518   8.957  0.00  0.00    +0.000 A 
BRANCH  19  22
ATOM     22  C   UNL     1      47.480   2.696   6.136  0.00  0.00    +0.000 C 
ATOM     23  N   UNL     1      48.792   2.487   6.466  0.00  0.00    +0.000 N 
ATOM     24  O   UNL     1      47.154   2.941   4.984  0.00  0.00    +0.000 OA
ATOM     25  H   UNL     1      49.130   2.520   7.416  0.00  0.00    +0.000 HD
ATOM     26  H   UNL     1      49.465   2.616   5.721  0.00  0.00    +0.000 HD
ENDBRANCH  19  22
ENDBRANCH  15  16
ENDBRANCH  14  15
ENDBRANCH   2  14
TORSDOF 7
ENDMDL
MODEL 2
REMARK VINA RESULT:    -7.569      2.825      4.966
REMARK INTER + INTRA:         -11.605
REMARK INTER:                 -10.647
REMARK INTRA:                  -0.958
REMARK UNBOUND:                -0.938
REMARK  Name = 
REMARK  8 active torsions:
REMARK  status: ('A' for Active; 'I' for Inactive)
REMARK    1  A    between atoms: C_1  and  N_2
REMARK    2  A    between atoms: N_2  and  C_3
REMARK    3  A    between atoms: N_2  and  C_14
REMARK    4  A    between atoms: C_3  and  C_4
REMARK    5  A    between atoms: C_4  and  C_5
REMARK    6  A    between atoms: C_8  and  C_9
REMARK    7  A    between atoms: C_18  and  O_19
REMARK    8  A    between atoms: O_19  and  C_20
REMARK                            x       y       z     vdW  Elec       q    Type
REMARK                         _______ _______ _______ _____ _____    ______ ____
ROOT
ATOM      1  C   UNL     1      45.748   3.703  12.903  0.00  0.00    +0.000 C 
ATOM      2  N   UNL     1      44.857   4.764  12.422  0.00  0.00    +0.000 N 
ENDROOT
BRANCH   2   3
ATOM      3  C   UNL     1      45.455   6.027  12.214  0.00  0.00    +0.000 A 
ATOM      4  C   UNL     1      46.853   6.191  12.193  0.00  0.00    +0.000 A 
ATOM      5  C   UNL     1      47.460   7.444  12.028  0.00  0.00    +0.000 A 
ATOM      6  C   UNL     1      46.682   8.587  11.884  0.00  0.00    +0.000 A 
ATOM      7  C   UNL     1      45.300   8.468  11.904  0.00  0.00    +0.000 A 
ATOM      8  C   UNL     1      44.703   7.206  12.058  0.00  0.00    +0.000 A 
BRANCH   7   9
ATOM      9  O   UNL     1      44.429   9.518  11.742  0.00  0.00    +0.000 OA
BRANCH   9  10
ATOM     10  C   UNL     1      43.555   9.524  10.591  0.00  0.00    +0.000 C 
ATOM     11  C   UNL     1      43.818  10.607   9.519  0.00  0.00    +0.000 C 
ATOM     12  C   UNL     1      42.327  10.966   9.536  0.00  0.00    +0.000 C 
ATOM     13  C   UNL     1      42.176  10.178  10.843  0.00  0.00    +0.000 C 
ENDBRANCH   9  10
ENDBRANCH   7   9
ENDBRANCH   2   3
BRANCH   2  14
ATOM     14  C   UNL     1      43.686   4.403  11.583  0.00  0.00    +0.000 C 
BRANCH  14  15
ATOM     15  C   UNL     1      43.836   4.782  10.104  0.00  0.00    +0.000 C 
BRANCH  15  16
ATOM     16  C   UNL     1      44.840   3.962   9.327  0.00  0.00    +0.000 A 
ATOM     17  C   UNL     1      44.850   2.565   9.440  0.00  0.00    +0.000 A 
ATOM     18  C   UNL     1      45.689   1.797   8.625  0.00  0.00    +0.000 A 
ATOM     19  C   UNL     1      46.524   2.412   7.692  0.00  0.00    +0.000 A 
ATOM     20  C   UNL     1      46.553   3.808   7.608  0.00  0.00    +0.000 A 
ATOM     21  C   UNL     1      45.717   4.577   8.426  0.00  0.00    +0.000 A 
BRANCH  19  22
ATOM     22  C   UNL     1      47.359   1.548   6.814  0.00  0.00    +0.000 C 
ATOM     23  N   UNL     1      48.441   2.126   6.205  0.00  0.00    +0.000 N 
ATOM     24  O   UNL     1      47.069   0.380   6.601  0.00  0.00    +0.000 OA
ATOM     25  H   UNL     1      48.577   3.124   6.161  0.00  0.00    +0.000 HD
ATOM     26  H   UNL     1      48.931   1.553   5.529  0.00  0.00    +0.000 HD
ENDBRANCH  19  22
ENDBRANCH  15  16
ENDBRANCH  14  15
ENDBRANCH   2  14
TORSDOF 7
ENDMDL
MODEL 3
REMARK VINA RESULT:    -7.199      2.138      7.881
REMARK INTER + INTRA:         -11.084
REMARK INTER:                 -10.302
REMARK INTRA:                  -0.781
REMARK UNBOUND:                -0.938
REMARK  Name = 
REMARK  8 active torsions:
REMARK  status: ('A' for Active; 'I' for Inactive)
REMARK    1  A    between atoms: C_1  and  N_2
REMARK    2  A    between atoms: N_2  and  C_3
REMARK    3  A    between atoms: N_2  and  C_14
REMARK    4  A    between atoms: C_3  and  C_4
REMARK    5  A    between atoms: C_4  and  C_5
REMARK    6  A    between atoms: C_8  and  C_9
REMARK    7  A    between atoms: C_18  and  O_19
REMARK    8  A    between atoms: O_19  and  C_20
REMARK                            x       y       z     vdW  Elec       q    Type
REMARK                         _______ _______ _______ _____ _____    ______ ____
ROOT
ATOM      1  C   UNL     1      44.810   7.884  11.369  0.00  0.00    +0.000 C 
ATOM      2  N   UNL     1      45.652   6.689  11.494  0.00  0.00    +0.000 N 
ENDROOT
BRANCH   2   3
ATOM      3  C   UNL     1      45.182   5.529  10.838  0.00  0.00    +0.000 A 
ATOM      4  C   UNL     1      44.439   4.544  11.517  0.00  0.00    +0.000 A 
ATOM      5  C   UNL     1      44.001   3.369  10.890  0.00  0.00    +0.000 A 
ATOM      6  C   UNL     1      44.300   3.133   9.554  0.00  0.00    +0.000 A 
ATOM      7  C   UNL     1      45.035   4.077   8.851  0.00  0.00    +0.000 A 
ATOM      8  C   UNL     1      45.458   5.256   9.486  0.00  0.00    +0.000 A 
BRANCH   7   9
ATOM      9  O   UNL     1      45.366   3.970   7.522  0.00  0.00    +0.000 OA
BRANCH   9  10
ATOM     10  C   UNL     1      46.696   3.524   7.172  0.00  0.00    +0.000 C 
ATOM     11  C   UNL     1      46.970   3.249   5.676  0.00  0.00    +0.000 C 
ATOM     12  C   UNL     1      47.580   1.892   6.051  0.00  0.00    +0.000 C 
ATOM     13  C   UNL     1      46.953   2.023   7.444  0.00  0.00    +0.000 C 
ENDBRANCH   9  10
ENDBRANCH   7   9
ENDBRANCH   2   3
BRANCH   2  14
ATOM     14  C   UNL     1      47.120   6.849  11.654  0.00  0.00    +0.000 C 
BRANCH  14  15
ATOM     15  C   UNL     1      47.550   7.304  13.054  0.00  0.00    +0.000 C 
BRANCH  15  16
ATOM     16  C   UNL     1      47.672   6.202  14.082  0.00  0.00    +0.000 A 
ATOM     17  C   UNL     1      48.320   6.441  15.301  0.00  0.00    +0.000 A 
ATOM     18  C   UNL     1      48.321   5.465  16.303  0.00  0.00    +0.000 A 
ATOM     19  C   UNL     1      47.679   4.243  16.100  0.00  0.00    +0.000 A 
ATOM     20  C   UNL     1      47.073   3.980  14.867  0.00  0.00    +0.000 A 
ATOM     21  C   UNL     1      47.075   4.955  13.862  0.00  0.00    +0.000 A 
BRANCH  19  22
ATOM     22  C   UNL     1      47.665   3.258  17.215  0.00  0.00    +0.000 C 
ATOM     23  N   UNL     1      48.874   2.848  17.710  0.00  0.00    +0.000 N 
ATOM     24  O   UNL     1      46.621   2.792  17.646  0.00  0.00    +0.000 OA
ATOM     25  H   UNL     1      49.747   3.019  17.235  0.00  0.00    +0.000 HD
ATOM     26  H   UNL     1      48.847   2.100  18.392  0.00  0.00    +0.000 HD
ENDBRANCH  19  22
ENDBRANCH  15  16
ENDBRANCH  14  15
ENDBRANCH   2  14
TORSDOF 7
ENDMDL
MODEL 4
REMARK VINA RESULT:    -7.139      2.876      3.695
REMARK INTER + INTRA:         -10.999
REMARK INTER:                 -10.143
REMARK INTRA:                  -0.856
REMARK UNBOUND:                -0.938
REMARK  Name = 
REMARK  8 active torsions:
REMARK  status: ('A' for Active; 'I' for Inactive)
REMARK    1  A    between atoms: C_1  and  N_2
REMARK    2  A    between atoms: N_2  and  C_3
REMARK    3  A    between atoms: N_2  and  C_14
REMARK    4  A    between atoms: C_3  and  C_4
REMARK    5  A    between atoms: C_4  and  C_5
REMARK    6  A    between atoms: C_8  and  C_9
REMARK    7  A    between atoms: C_18  and  O_19
REMARK    8  A    between atoms: O_19  and  C_20
REMARK                            x       y       z     vdW  Elec       q    Type
REMARK                         _______ _______ _______ _____ _____    ______ ____
ROOT
ATOM      1  C   UNL     1      43.006   6.513  11.406  0.00  0.00    +0.000 C 
ATOM      2  N   UNL     1      44.391   6.030  11.413  0.00  0.00    +0.000 N 
ENDROOT
BRANCH   2   3
ATOM      3  C   UNL     1      45.374   6.975  11.785  0.00  0.00    +0.000 A 
ATOM      4  C   UNL     1      45.034   8.283  12.180  0.00  0.00    +0.000 A 
ATOM      5  C   UNL     1      46.000   9.242  12.512  0.00  0.00    +0.000 A 
ATOM      6  C   UNL     1      47.352   8.927  12.452  0.00  0.00    +0.000 A 
ATOM      7  C   UNL     1      47.729   7.649  12.063  0.00  0.00    +0.000 A 
ATOM      8  C   UNL     1      46.752   6.693  11.744  0.00  0.00    +0.000 A 
BRANCH   7   9
ATOM      9  O   UNL     1      49.030   7.211  11.995  0.00  0.00    +0.000 OA
BRANCH   9  10
ATOM     10  C   UNL     1      50.031   8.094  11.441  0.00  0.00    +0.000 C 
ATOM     11  C   UNL     1      51.187   7.434  10.654  0.00  0.00    +0.000 C 
ATOM     12  C   UNL     1      52.193   8.260  11.467  0.00  0.00    +0.000 C 
ATOM     13  C   UNL     1      51.078   8.590  12.466  0.00  0.00    +0.000 C 
ENDBRANCH   9  10
ENDBRANCH   7   9
ENDBRANCH   2   3
BRANCH   2  14
ATOM     14  C   UNL     1      44.659   4.598  11.705  0.00  0.00    +0.000 C 
BRANCH  14  15
ATOM     15  C   UNL     1      44.005   3.626  10.714  0.00  0.00    +0.000 C 
BRANCH  15  16
ATOM     16  C   UNL     1      44.840   3.282   9.501  0.00  0.00    +0.000 A 
ATOM     17  C   UNL     1      45.394   4.299   8.712  0.00  0.00    +0.000 A 
ATOM     18  C   UNL     1      46.271   3.983   7.669  0.00  0.00    +0.000 A 
ATOM     19  C   UNL     1      46.603   2.655   7.402  0.00  0.00    +0.000 A 
ATOM     20  C   UNL     1      46.016   1.633   8.155  0.00  0.00    +0.000 A 
ATOM     21  C   UNL     1      45.134   1.947   9.196  0.00  0.00    +0.000 A 
BRANCH  19  22
ATOM     22  C   UNL     1      47.580   2.376   6.315  0.00  0.00    +0.000 C 
ATOM     23  N   UNL     1      47.417   3.048   5.132  0.00  0.00    +0.000 N 
ATOM     24  O   UNL     1      48.467   1.546   6.447  0.00  0.00    +0.000 OA
ATOM     25  H   UNL     1      46.576   3.552   4.900  0.00  0.00    +0.000 HD
ATOM     26  H   UNL     1      48.023   2.765   4.372  0.00  0.00    +0.000 HD
ENDBRANCH  19  22
ENDBRANCH  15  16
ENDBRANCH  14  15
ENDBRANCH   2  14
TORSDOF 7
ENDMDL
MODEL 5
REMARK VINA RESULT:    -6.524      2.706      8.320
REMARK INTER + INTRA:         -10.131
REMARK INTER:                  -9.353
REMARK INTRA:                  -0.779
REMARK UNBOUND:                -0.938
REMARK  Name = 
REMARK  8 active torsions:
REMARK  status: ('A' for Active; 'I' for Inactive)
REMARK    1  A    between atoms: C_1  and  N_2
REMARK    2  A    between atoms: N_2  and  C_3
REMARK    3  A    between atoms: N_2  and  C_14
REMARK    4  A    between atoms: C_3  and  C_4
REMARK    5  A    between atoms: C_4  and  C_5
REMARK    6  A    between atoms: C_8  and  C_9
REMARK    7  A    between atoms: C_18  and  O_19
REMARK    8  A    between atoms: O_19  and  C_20
REMARK                            x       y       z     vdW  Elec       q    Type
REMARK                         _______ _______ _______ _____ _____    ______ ____
ROOT
ATOM      1  C   UNL     1      45.807   8.320  12.291  0.00  0.00    +0.000 C 
ATOM      2  N   UNL     1      45.897   6.932  12.757  0.00  0.00    +0.000 N 
ENDROOT
BRANCH   2   3
ATOM      3  C   UNL     1      44.969   6.028  12.192  0.00  0.00    +0.000 A 
ATOM      4  C   UNL     1      43.871   5.538  12.925  0.00  0.00    +0.000 A 
ATOM      5  C   UNL     1      42.967   4.609  12.392  0.00  0.00    +0.000 A 
ATOM      6  C   UNL     1      43.135   4.129  11.098  0.00  0.00    +0.000 A 
ATOM      7  C   UNL     1      44.208   4.583  10.345  0.00  0.00    +0.000 A 
ATOM      8  C   UNL     1      45.101   5.523  10.886  0.00  0.00    +0.000 A 
BRANCH   7   9
ATOM      9  O   UNL     1      44.461   4.205   9.048  0.00  0.00    +0.000 OA
BRANCH   9  10
ATOM     10  C   UNL     1      45.741   3.609   8.737  0.00  0.00    +0.000 C 
ATOM     11  C   UNL     1      46.202   3.674   7.263  0.00  0.00    +0.000 C 
ATOM     12  C   UNL     1      46.520   2.174   7.311  0.00  0.00    +0.000 C 
ATOM     13  C   UNL     1      45.709   2.068   8.608  0.00  0.00    +0.000 C 
ENDBRANCH   9  10
ENDBRANCH   7   9
ENDBRANCH   2   3
BRANCH   2  14
ATOM     14  C   UNL     1      47.212   6.396  13.192  0.00  0.00    +0.000 C 
BRANCH  14  15
ATOM     15  C   UNL     1      47.143   4.989  13.800  0.00  0.00    +0.000 C 
BRANCH  15  16
ATOM     16  C   UNL     1      47.602   4.884  15.237  0.00  0.00    +0.000 A 
ATOM     17  C   UNL     1      47.315   3.737  15.988  0.00  0.00    +0.000 A 
ATOM     18  C   UNL     1      47.849   3.583  17.272  0.00  0.00    +0.000 A 
ATOM     19  C   UNL     1      48.671   4.569  17.819  0.00  0.00    +0.000 A 
ATOM     20  C   UNL     1      48.921   5.738  17.092  0.00  0.00    +0.000 A 
ATOM     21  C   UNL     1      48.383   5.895  15.809  0.00  0.00    +0.000 A 
BRANCH  19  22
ATOM     22  C   UNL     1      49.255   4.334  19.167  0.00  0.00    +0.000 C 
ATOM     23  N   UNL     1      48.463   3.717  20.099  0.00  0.00    +0.000 N 
ATOM     24  O   UNL     1      50.379   4.717  19.455  0.00  0.00    +0.000 OA
ATOM     25  H   UNL     1      47.468   3.603  19.983  0.00  0.00    +0.000 HD
ATOM     26  H   UNL     1      48.838   3.664  21.038  0.00  0.00    +0.000 HD
ENDBRANCH  19  22
ENDBRANCH  15  16
ENDBRANCH  14  15
ENDBRANCH   2  14
TORSDOF 7
ENDMDL
MODEL 6
REMARK VINA RESULT:    -6.243      3.131      4.705
REMARK INTER + INTRA:          -9.736
REMARK INTER:                  -8.469
REMARK INTRA:                  -1.267
REMARK UNBOUND:                -0.938
REMARK  Name = 
REMARK  8 active torsions:
REMARK  status: ('A' for Active; 'I' for Inactive)
REMARK    1  A    between atoms: C_1  and  N_2
REMARK    2  A    between atoms: N_2  and  C_3
REMARK    3  A    between atoms: N_2  and  C_14
REMARK    4  A    between atoms: C_3  and  C_4
REMARK    5  A    between atoms: C_4  and  C_5
REMARK    6  A    between atoms: C_8  and  C_9
REMARK    7  A    between atoms: C_18  and  O_19
REMARK    8  A    between atoms: O_19  and  C_20
REMARK                            x       y       z     vdW  Elec       q    Type
REMARK                         _______ _______ _______ _____ _____    ______ ____
ROOT
ATOM      1  C   UNL     1      49.356   8.072  11.582  0.00  0.00    +0.000 C 
ATOM      2  N   UNL     1      48.233   8.009  12.523  0.00  0.00    +0.000 N 
ENDROOT
BRANCH   2   3
ATOM      3  C   UNL     1      48.576   7.962  13.894  0.00  0.00    +0.000 A 
ATOM      4  C   UNL     1      48.770   9.134  14.650  0.00  0.00    +0.000 A 
ATOM      5  C   UNL     1      49.149   9.104  15.999  0.00  0.00    +0.000 A 
ATOM      6  C   UNL     1      49.357   7.889  16.642  0.00  0.00    +0.000 A 
ATOM      7  C   UNL     1      49.180   6.711  15.930  0.00  0.00    +0.000 A 
ATOM      8  C   UNL     1      48.789   6.754  14.583  0.00  0.00    +0.000 A 
BRANCH   7   9
ATOM      9  O   UNL     1      49.327   5.453  16.464  0.00  0.00    +0.000 OA
BRANCH   9  10
ATOM     10  C   UNL     1      48.219   4.873  17.188  0.00  0.00    +0.000 C 
ATOM     11  C   UNL     1      48.545   3.700  18.141  0.00  0.00    +0.000 C 
ATOM     12  C   UNL     1      47.399   2.894  17.518  0.00  0.00    +0.000 C 
ATOM     13  C   UNL     1      47.359   3.893  16.356  0.00  0.00    +0.000 C 
ENDBRANCH   9  10
ENDBRANCH   7   9
ENDBRANCH   2   3
BRANCH   2  14
ATOM     14  C   UNL     1      46.939   8.636  12.152  0.00  0.00    +0.000 C 
BRANCH  14  15
ATOM     15  C   UNL     1      45.746   8.142  12.981  0.00  0.00    +0.000 C 
BRANCH  15  16
ATOM     16  C   UNL     1      45.191   6.796  12.577  0.00  0.00    +0.000 A 
ATOM     17  C   UNL     1      44.418   6.670  11.415  0.00  0.00    +0.000 A 
ATOM     18  C   UNL     1      44.014   5.406  10.969  0.00  0.00    +0.000 A 
ATOM     19  C   UNL     1      44.375   4.259  11.677  0.00  0.00    +0.000 A 
ATOM     20  C   UNL     1      45.106   4.383  12.863  0.00  0.00    +0.000 A 
ATOM     21  C   UNL     1      45.506   5.646  13.312  0.00  0.00    +0.000 A 
BRANCH  19  22
ATOM     22  C   UNL     1      43.964   2.936  11.133  0.00  0.00    +0.000 C 
ATOM     23  N   UNL     1      44.735   2.395  10.139  0.00  0.00    +0.000 N 
ATOM     24  O   UNL     1      42.952   2.371  11.520  0.00  0.00    +0.000 OA
ATOM     25  H   UNL     1      45.426   2.925   9.632  0.00  0.00    +0.000 HD
ATOM     26  H   UNL     1      44.379   1.551   9.709  0.00  0.00    +0.000 HD
ENDBRANCH  19  22
ENDBRANCH  15  16
ENDBRANCH  14  15
ENDBRANCH   2  14
TORSDOF 7
ENDMDL
MODEL 7
REMARK VINA RESULT:    -6.071      3.003      8.917
REMARK INTER + INTRA:          -9.493
REMARK INTER:                  -8.815
REMARK INTRA:                  -0.678
REMARK UNBOUND:                -0.938
REMARK  Name = 
REMARK  8 active torsions:
REMARK  status: ('A' for Active; 'I' for Inactive)
REMARK    1  A    between atoms: C_1  and  N_2
REMARK    2  A    between atoms: N_2  and  C_3
REMARK    3  A    between atoms: N_2  and  C_14
REMARK    4  A    between atoms: C_3  and  C_4
REMARK    5  A    between atoms: C_4  and  C_5
REMARK    6  A    between atoms: C_8  and  C_9
REMARK    7  A    between atoms: C_18  and  O_19
REMARK    8  A    between atoms: O_19  and  C_20
REMARK                            x       y       z     vdW  Elec       q    Type
REMARK                         _______ _______ _______ _____ _____    ______ ____
ROOT
ATOM      1  C   UNL     1      47.438   7.174  11.885  0.00  0.00    +0.000 C 
ATOM      2  N   UNL     1      46.608   6.359  12.777  0.00  0.00    +0.000 N 
ENDROOT
BRANCH   2   3
ATOM      3  C   UNL     1      45.438   5.808  12.205  0.00  0.00    +0.000 A 
ATOM      4  C   UNL     1      44.215   5.782  12.901  0.00  0.00    +0.000 A 
ATOM      5  C   UNL     1      43.057   5.203  12.363  0.00  0.00    +0.000 A 
ATOM      6  C   UNL     1      43.086   4.618  11.102  0.00  0.00    +0.000 A 
ATOM      7  C   UNL     1      44.274   4.620  10.386  0.00  0.00    +0.000 A 
ATOM      8  C   UNL     1      45.425   5.214  10.930  0.00  0.00    +0.000 A 
BRANCH   7   9
ATOM      9  O   UNL     1      44.419   4.101   9.122  0.00  0.00    +0.000 OA
BRANCH   9  10
ATOM     10  C   UNL     1      45.677   3.484   8.765  0.00  0.00    +0.000 C 
ATOM     11  C   UNL     1      46.074   3.522   7.271  0.00  0.00    +0.000 C 
ATOM     12  C   UNL     1      46.376   2.019   7.328  0.00  0.00    +0.000 C 
ATOM     13  C   UNL     1      45.621   1.942   8.660  0.00  0.00    +0.000 C 
ENDBRANCH   9  10
ENDBRANCH   7   9
ENDBRANCH   2   3
BRANCH   2  14
ATOM     14  C   UNL     1      47.253   5.614  13.889  0.00  0.00    +0.000 C 
BRANCH  14  15
ATOM     15  C   UNL     1      48.326   6.415  14.637  0.00  0.00    +0.000 C 
BRANCH  15  16
ATOM     16  C   UNL     1      48.498   6.059  16.096  0.00  0.00    +0.000 A 
ATOM     17  C   UNL     1      48.926   7.027  17.015  0.00  0.00    +0.000 A 
ATOM     18  C   UNL     1      48.961   6.735  18.382  0.00  0.00    +0.000 A 
ATOM     19  C   UNL     1      48.571   5.478  18.847  0.00  0.00    +0.000 A 
ATOM     20  C   UNL     1      48.189   4.493  17.930  0.00  0.00    +0.000 A 
ATOM     21  C   UNL     1      48.158   4.783  16.561  0.00  0.00    +0.000 A 
BRANCH  19  22
ATOM     22  C   UNL     1      48.577   5.235  20.315  0.00  0.00    +0.000 C 
ATOM     23  N   UNL     1      48.532   3.934  20.739  0.00  0.00    +0.000 N 
ATOM     24  O   UNL     1      48.573   6.157  21.118  0.00  0.00    +0.000 OA
ATOM     25  H   UNL     1      48.297   3.167  20.129  0.00  0.00    +0.000 HD
ATOM     26  H   UNL     1      48.428   3.793  21.736  0.00  0.00    +0.000 HD
ENDBRANCH  19  22
ENDBRANCH  15  16
ENDBRANCH  14  15
ENDBRANCH   2  14
TORSDOF 7
ENDMDL
MODEL 8
REMARK VINA RESULT:    -6.048      3.451      5.458
REMARK INTER + INTRA:          -9.461
REMARK INTER:                  -8.049
REMARK INTRA:                  -1.412
REMARK UNBOUND:                -0.938
REMARK  Name = 
REMARK  8 active torsions:
REMARK  status: ('A' for Active; 'I' for Inactive)
REMARK    1  A    between atoms: C_1  and  N_2
REMARK    2  A    between atoms: N_2  and  C_3
REMARK    3  A    between atoms: N_2  and  C_14
REMARK    4  A    between atoms: C_3  and  C_4
REMARK    5  A    between atoms: C_4  and  C_5
REMARK    6  A    between atoms: C_8  and  C_9
REMARK    7  A    between atoms: C_18  and  O_19
REMARK    8  A    between atoms: O_19  and  C_20
REMARK                            x       y       z     vdW  Elec       q    Type
REMARK                         _______ _______ _______ _____ _____    ______ ____
ROOT
ATOM      1  C   UNL     1      49.677  10.080  13.675  0.00  0.00    +0.000 C 
ATOM      2  N   UNL     1      49.590   8.659  14.026  0.00  0.00    +0.000 N 
ENDROOT
BRANCH   2   3
ATOM      3  C   UNL     1      49.147   8.372  15.338  0.00  0.00    +0.000 A 
ATOM      4  C   UNL     1      48.441   9.318  16.105  0.00  0.00    +0.000 A 
ATOM      5  C   UNL     1      48.031   9.062  17.421  0.00  0.00    +0.000 A 
ATOM      6  C   UNL     1      48.322   7.843  18.022  0.00  0.00    +0.000 A 
ATOM      7  C   UNL     1      49.021   6.886  17.300  0.00  0.00    +0.000 A 
ATOM      8  C   UNL     1      49.416   7.149  15.979  0.00  0.00    +0.000 A 
BRANCH   7   9
ATOM      9  O   UNL     1      49.340   5.637  17.775  0.00  0.00    +0.000 OA
BRANCH   9  10
ATOM     10  C   UNL     1      48.801   4.479  17.099  0.00  0.00    +0.000 C 
ATOM     11  C   UNL     1      47.262   4.383  16.996  0.00  0.00    +0.000 C 
ATOM     12  C   UNL     1      47.330   2.940  17.511  0.00  0.00    +0.000 C 
ATOM     13  C   UNL     1      48.774   3.195  17.961  0.00  0.00    +0.000 C 
ENDBRANCH   9  10
ENDBRANCH   7   9
ENDBRANCH   2   3
BRANCH   2  14
ATOM     14  C   UNL     1      49.299   7.664  12.962  0.00  0.00    +0.000 C 
BRANCH  14  15
ATOM     15  C   UNL     1      47.931   7.847  12.293  0.00  0.00    +0.000 C 
BRANCH  15  16
ATOM     16  C   UNL     1      47.072   6.605  12.232  0.00  0.00    +0.000 A 
ATOM     17  C   UNL     1      46.997   5.742  13.333  0.00  0.00    +0.000 A 
ATOM     18  C   UNL     1      46.104   4.665  13.326  0.00  0.00    +0.000 A 
ATOM     19  C   UNL     1      45.280   4.437  12.223  0.00  0.00    +0.000 A 
ATOM     20  C   UNL     1      45.385   5.266  11.102  0.00  0.00    +0.000 A 
ATOM     21  C   UNL     1      46.282   6.342  11.106  0.00  0.00    +0.000 A 
BRANCH  19  22
ATOM     22  C   UNL     1      44.312   3.308  12.286  0.00  0.00    +0.000 C 
ATOM     23  N   UNL     1      44.175   2.532  11.166  0.00  0.00    +0.000 N 
ATOM     24  O   UNL     1      43.627   3.106  13.277  0.00  0.00    +0.000 OA
ATOM     25  H   UNL     1      44.535   2.802  10.264  0.00  0.00    +0.000 HD
ATOM     26  H   UNL     1      43.436   1.840  11.191  0.00  0.00    +0.000 HD
ENDBRANCH  19  22
ENDBRANCH  15  16
ENDBRANCH  14  15
ENDBRANCH   2  14
TORSDOF 7
ENDMDL
MODEL 9
REMARK VINA RESULT:    -5.871      3.069      7.962
REMARK INTER + INTRA:          -9.212
REMARK INTER:                  -8.162
REMARK INTRA:                  -1.049
REMARK UNBOUND:                -0.938
REMARK  Name = 
REMARK  8 active torsions:
REMARK  status: ('A' for Active; 'I' for Inactive)
REMARK    1  A    between atoms: C_1  and  N_2
REMARK    2  A    between atoms: N_2  and  C_3
REMARK    3  A    between atoms: N_2  and  C_14
REMARK    4  A    between atoms: C_3  and  C_4
REMARK    5  A    between atoms: C_4  and  C_5
REMARK    6  A    between atoms: C_8  and  C_9
REMARK    7  A    between atoms: C_18  and  O_19
REMARK    8  A    between atoms: O_19  and  C_20
REMARK                            x       y       z     vdW  Elec       q    Type
REMARK                         _______ _______ _______ _____ _____    ______ ____
ROOT
ATOM      1  C   UNL     1      49.577   8.786  11.685  0.00  0.00    +0.000 C 
ATOM      2  N   UNL     1      48.478   8.826  12.655  0.00  0.00    +0.000 N 
ENDROOT
BRANCH   2   3
ATOM      3  C   UNL     1      47.243   8.300  12.215  0.00  0.00    +0.000 A 
ATOM      4  C   UNL     1      46.076   9.087  12.167  0.00  0.00    +0.000 A 
ATOM      5  C   UNL     1      44.836   8.568  11.772  0.00  0.00    +0.000 A 
ATOM      6  C   UNL     1      44.716   7.230  11.414  0.00  0.00    +0.000 A 
ATOM      7  C   UNL     1      45.842   6.420  11.453  0.00  0.00    +0.000 A 
ATOM      8  C   UNL     1      47.082   6.954  11.839  0.00  0.00    +0.000 A 
BRANCH   7   9
ATOM      9  O   UNL     1      45.855   5.093  11.095  0.00  0.00    +0.000 OA
BRANCH   9  10
ATOM     10  C   UNL     1      44.807   4.597  10.232  0.00  0.00    +0.000 C 
ATOM     11  C   UNL     1      44.415   3.110  10.392  0.00  0.00    +0.000 C 
ATOM     12  C   UNL     1      44.524   2.932   8.873  0.00  0.00    +0.000 C 
ATOM     13  C   UNL     1      45.272   4.268   8.793  0.00  0.00    +0.000 C 
ENDBRANCH   9  10
ENDBRANCH   7   9
ENDBRANCH   2   3
BRANCH   2  14
ATOM     14  C   UNL     1      48.788   8.748  14.106  0.00  0.00    +0.000 C 
BRANCH  14  15
ATOM     15  C   UNL     1      49.698   7.574  14.488  0.00  0.00    +0.000 C 
BRANCH  15  16
ATOM     16  C   UNL     1      49.088   6.565  15.434  0.00  0.00    +0.000 A 
ATOM     17  C   UNL     1      47.984   5.799  15.035  0.00  0.00    +0.000 A 
ATOM     18  C   UNL     1      47.500   4.777  15.858  0.00  0.00    +0.000 A 
ATOM     19  C   UNL     1      48.109   4.509  17.085  0.00  0.00    +0.000 A 
ATOM     20  C   UNL     1      49.180   5.302  17.509  0.00  0.00    +0.000 A 
ATOM     21  C   UNL     1      49.663   6.328  16.688  0.00  0.00    +0.000 A 
BRANCH  19  22
ATOM     22  C   UNL     1      47.588   3.378  17.899  0.00  0.00    +0.000 C 
ATOM     23  N   UNL     1      48.244   3.086  19.066  0.00  0.00    +0.000 N 
ATOM     24  O   UNL     1      46.643   2.700  17.525  0.00  0.00    +0.000 OA
ATOM     25  H   UNL     1      49.155   3.456  19.290  0.00  0.00    +0.000 HD
ATOM     26  H   UNL     1      47.943   2.249  19.549  0.00  0.00    +0.000 HD
ENDBRANCH  19  22
ENDBRANCH  15  16
ENDBRANCH  14  15
ENDBRANCH   2  14
TORSDOF 7
ENDMDL
