MODEL 1
REMARK VINA RESULT:    -7.543      0.000      0.000
REMARK INTER + INTRA:          -9.931
REMARK INTER:                  -9.307
REMARK INTRA:                  -0.624
REMARK UNBOUND:                -0.624
REMARK  Name = 
REMARK  4 active torsions:
REMARK  status: ('A' for Active; 'I' for Inactive)
REMARK    1  A    between atoms: C_5  and  O_6
REMARK    2  A    between atoms: O_6  and  C_7
REMARK    3  A    between atoms: C_7  and  C_8
REMARK    4  A    between atoms: C_12  and  C_13
REMARK                            x       y       z     vdW  Elec       q    Type
REMARK                         _______ _______ _______ _____ _____    ______ ____
ROOT
ATOM      1  C   UNL     1      45.410   5.253  12.185  0.00  0.00    +0.000 A 
ATOM      2  C   UNL     1      46.134   6.327  11.664  0.00  0.00    +0.000 A 
ATOM      3  C   UNL     1      47.297   6.754  12.294  0.00  0.00    +0.000 A 
ATOM      4  C   UNL     1      47.720   6.103  13.443  0.00  0.00    +0.000 A 
ATOM      5  C   UNL     1      46.975   5.033  13.934  0.00  0.00    +0.000 A 
ATOM      6  N   UNL     1      45.840   4.611  13.306  0.00  0.00    +0.000 NA
ENDROOT
BRANCH   5   7
ATOM      7  C   UNL     1      47.346   4.321  15.180  0.00  0.00    +0.000 A 
ATOM      8  C   UNL     1      47.293   4.936  16.421  0.00  0.00    +0.000 A 
ATOM      9  C   UNL     1      47.695   4.187  17.503  0.00  0.00    +0.000 A 
ATOM     10  N   UNL     1      48.123   2.917  17.408  0.00  0.00    +0.000 NA
ATOM     11  C   UNL     1      48.135   2.404  16.172  0.00  0.00    +0.000 A 
ATOM     12  N   UNL     1      47.767   3.037  15.049  0.00  0.00    +0.000 NA
ENDBRANCH   5   7
BRANCH   1  13
ATOM     13  C   UNL     1      44.083   4.828  11.555  0.00  0.00    +0.000 C 
ATOM     14  C   UNL     1      42.822   4.933  12.414  0.00  0.00    +0.000 C 
ATOM     15  C   UNL     1      43.034   5.895  11.295  0.00  0.00    +0.000 C 
BRANCH  13  16
ATOM     16  O   UNL     1      44.063   3.581  10.824  0.00  0.00    +0.000 OA
BRANCH  16  21
ATOM     17  C   UNL     1      46.006   3.965   7.697  0.00  0.00    +0.000 A 
ATOM     18  C   UNL     1      46.320   2.623   7.538  0.00  0.00    +0.000 A 
ATOM     19  N   UNL     1      45.937   1.664   8.400  0.00  0.00    +0.000 NA
ATOM     20  C   UNL     1      45.203   2.072   9.465  0.00  0.00    +0.000 A 
ATOM     21  C   UNL     1      44.833   3.390   9.714  0.00  0.00    +0.000 A 
ATOM     22  C   UNL     1      45.247   4.352   8.804  0.00  0.00    +0.000 A 
ENDBRANCH  16  21
ENDBRANCH  13  16
ENDBRANCH   1  13
TORSDOF 4
ENDMDL
MODEL 2
REMARK VINA RESULT:    -7.076      2.314      3.922
REMARK INTER + INTRA:          -9.354
REMARK INTER:                  -8.585
REMARK INTRA:                  -0.769
REMARK UNBOUND:                -0.624
REMARK  Name = 
REMARK  4 active torsions:
REMARK  status: ('A' for Active; 'I' for Inactive)
REMARK    1  A    between atoms: C_5  and  O_6
REMARK    2  A    between atoms: O_6  and  C_7
REMARK    3  A    between atoms: C_7  and  C_8
REMARK    4  A    between atoms: C_12  and  C_13
REMARK                            x       y       z     vdW  Elec       q    Type
REMARK                         _______ _______ _______ _____ _____    ______ ____
ROOT
ATOM      1  C   UNL     1      45.128   5.082  12.103  0.00  0.00    +0.000 A 
ATOM      2  C   UNL     1      45.608   4.107  12.978  0.00  0.00    +0.000 A 
ATOM      3  C   UNL     1      46.826   4.287  13.622  0.00  0.00    +0.000 A 
ATOM      4  C   UNL     1      47.553   5.442  13.380  0.00  0.00    +0.000 A 
ATOM      5  C   UNL     1      47.043   6.397  12.502  0.00  0.00    +0.000 A 
ATOM      6  N   UNL     1      45.842   6.220  11.881  0.00  0.00    +0.000 NA
ENDROOT
BRANCH   5   7
ATOM      7  C   UNL     1      47.788   7.633  12.164  0.00  0.00    +0.000 A 
ATOM      8  C   UNL     1      49.126   7.610  11.807  0.00  0.00    +0.000 A 
ATOM      9  C   UNL     1      49.721   8.824  11.549  0.00  0.00    +0.000 A 
ATOM     10  N   UNL     1      49.074   9.999  11.626  0.00  0.00    +0.000 NA
ATOM     11  C   UNL     1      47.784   9.924  11.973  0.00  0.00    +0.000 A 
ATOM     12  N   UNL     1      47.101   8.802  12.245  0.00  0.00    +0.000 NA
ENDBRANCH   5   7
BRANCH   1  13
ATOM     13  C   UNL     1      43.833   4.859  11.320  0.00  0.00    +0.000 C 
ATOM     14  C   UNL     1      42.510   5.061  12.061  0.00  0.00    +0.000 C 
ATOM     15  C   UNL     1      42.944   6.058  11.041  0.00  0.00    +0.000 C 
BRANCH  13  16
ATOM     16  O   UNL     1      43.747   3.671  10.501  0.00  0.00    +0.000 OA
BRANCH  16  21
ATOM     17  C   UNL     1      46.103   3.874   7.653  0.00  0.00    +0.000 A 
ATOM     18  C   UNL     1      46.404   2.521   7.597  0.00  0.00    +0.000 A 
ATOM     19  N   UNL     1      45.886   1.611   8.442  0.00  0.00    +0.000 NA
ATOM     20  C   UNL     1      45.025   2.080   9.377  0.00  0.00    +0.000 A 
ATOM     21  C   UNL     1      44.656   3.415   9.516  0.00  0.00    +0.000 A 
ATOM     22  C   UNL     1      45.211   4.326   8.628  0.00  0.00    +0.000 A 
ENDBRANCH  16  21
ENDBRANCH  13  16
ENDBRANCH   1  13
TORSDOF 4
ENDMDL
MODEL 3
REMARK VINA RESULT:    -6.921      1.764      6.658
REMARK INTER + INTRA:          -9.163
REMARK INTER:                  -8.541
REMARK INTRA:                  -0.622
REMARK UNBOUND:                -0.624
REMARK  Name = 
REMARK  4 active torsions:
REMARK  status: ('A' for Active; 'I' for Inactive)
REMARK    1  A    between atoms: C_5  and  O_6
REMARK    2  A    between atoms: O_6  and  C_7
REMARK    3  A    between atoms: C_7  and  C_8
REMARK    4  A    between atoms: C_12  and  C_13
REMARK                            x       y       z     vdW  Elec       q    Type
REMARK                         _______ _______ _______ _____ _____    ______ ____
ROOT
ATOM      1  C   UNL     1      45.381   6.120  11.731  0.00  0.00    +0.000 A 
ATOM      2  C   UNL     1      44.010   6.261  11.951  0.00  0.00    +0.000 A 
ATOM      3  C   UNL     1      43.104   5.531  11.191  0.00  0.00    +0.000 A 
ATOM      4  C   UNL     1      43.582   4.670  10.215  0.00  0.00    +0.000 A 
ATOM      5  C   UNL     1      44.957   4.551  10.024  0.00  0.00    +0.000 A 
ATOM      6  N   UNL     1      45.842   5.262  10.780  0.00  0.00    +0.000 NA
ENDROOT
BRANCH   5   7
ATOM      7  C   UNL     1      45.534   3.683   8.970  0.00  0.00    +0.000 A 
ATOM      8  C   UNL     1      45.506   2.301   9.059  0.00  0.00    +0.000 A 
ATOM      9  C   UNL     1      46.105   1.600   8.038  0.00  0.00    +0.000 A 
ATOM     10  N   UNL     1      46.699   2.186   6.985  0.00  0.00    +0.000 NA
ATOM     11  C   UNL     1      46.672   3.524   6.980  0.00  0.00    +0.000 A 
ATOM     12  N   UNL     1      46.120   4.308   7.916  0.00  0.00    +0.000 NA
ENDBRANCH   5   7
BRANCH   1  13
ATOM     13  C   UNL     1      46.386   6.981  12.498  0.00  0.00    +0.000 C 
ATOM     14  C   UNL     1      46.744   8.348  11.913  0.00  0.00    +0.000 C 
ATOM     15  C   UNL     1      45.895   8.268  13.136  0.00  0.00    +0.000 C 
BRANCH  13  16
ATOM     16  O   UNL     1      47.589   6.335  12.974  0.00  0.00    +0.000 OA
BRANCH  16  21
ATOM     17  C   UNL     1      48.385   5.553  16.504  0.00  0.00    +0.000 A 
ATOM     18  C   UNL     1      47.629   4.392  16.585  0.00  0.00    +0.000 A 
ATOM     19  N   UNL     1      46.899   3.909  15.563  0.00  0.00    +0.000 NA
ATOM     20  C   UNL     1      46.935   4.621  14.410  0.00  0.00    +0.000 A 
ATOM     21  C   UNL     1      47.661   5.794  14.225  0.00  0.00    +0.000 A 
ATOM     22  C   UNL     1      48.401   6.262  15.301  0.00  0.00    +0.000 A 
ENDBRANCH  16  21
ENDBRANCH  13  16
ENDBRANCH   1  13
TORSDOF 4
ENDMDL
MODEL 4
REMARK VINA RESULT:    -6.682      3.192      6.869
REMARK INTER + INTRA:          -8.869
REMARK INTER:                  -8.159
REMARK INTRA:                  -0.710
REMARK UNBOUND:                -0.624
REMARK  Name = 
REMARK  4 active torsions:
REMARK  status: ('A' for Active; 'I' for Inactive)
REMARK    1  A    between atoms: C_5  and  O_6
REMARK    2  A    between atoms: O_6  and  C_7
REMARK    3  A    between atoms: C_7  and  C_8
REMARK    4  A    between atoms: C_12  and  C_13
REMARK                            x       y       z     vdW  Elec       q    Type
REMARK                         _______ _______ _______ _____ _____    ______ ____
ROOT
ATOM      1  C   UNL     1      45.141   6.262  11.676  0.00  0.00    +0.000 A 
ATOM      2  C   UNL     1      43.818   6.118  12.096  0.00  0.00    +0.000 A 
ATOM      3  C   UNL     1      43.005   5.150  11.518  0.00  0.00    +0.000 A 
ATOM      4  C   UNL     1      43.526   4.338  10.522  0.00  0.00    +0.000 A 
ATOM      5  C   UNL     1      44.852   4.507  10.129  0.00  0.00    +0.000 A 
ATOM      6  N   UNL     1      45.648   5.452  10.707  0.00  0.00    +0.000 NA
ENDROOT
BRANCH   5   7
ATOM      7  C   UNL     1      45.460   3.704   9.041  0.00  0.00    +0.000 A 
ATOM      8  C   UNL     1      45.511   2.320   9.089  0.00  0.00    +0.000 A 
ATOM      9  C   UNL     1      46.131   1.685   8.039  0.00  0.00    +0.000 A 
ATOM     10  N   UNL     1      46.674   2.334   6.995  0.00  0.00    +0.000 NA
ATOM     11  C   UNL     1      46.572   3.668   7.031  0.00  0.00    +0.000 A 
ATOM     12  N   UNL     1      45.992   4.392   7.998  0.00  0.00    +0.000 NA
ENDBRANCH   5   7
BRANCH   1  13
ATOM     13  C   UNL     1      46.020   7.379  12.239  0.00  0.00    +0.000 C 
ATOM     14  C   UNL     1      47.077   6.998  13.277  0.00  0.00    +0.000 C 
ATOM     15  C   UNL     1      47.500   7.374  11.898  0.00  0.00    +0.000 C 
BRANCH  13  16
ATOM     16  O   UNL     1      45.364   8.600  12.650  0.00  0.00    +0.000 OA
BRANCH  16  21
ATOM     17  C   UNL     1      43.912  10.700   9.970  0.00  0.00    +0.000 A 
ATOM     18  C   UNL     1      44.839  11.729  10.053  0.00  0.00    +0.000 A 
ATOM     19  N   UNL     1      45.856  11.742  10.933  0.00  0.00    +0.000 NA
ATOM     20  C   UNL     1      45.947  10.672  11.761  0.00  0.00    +0.000 A 
ATOM     21  C   UNL     1      45.072   9.590  11.758  0.00  0.00    +0.000 A 
ATOM     22  C   UNL     1      44.035   9.612  10.837  0.00  0.00    +0.000 A 
ENDBRANCH  16  21
ENDBRANCH  13  16
ENDBRANCH   1  13
TORSDOF 4
ENDMDL
MODEL 5
REMARK VINA RESULT:    -6.239      2.119      6.789
REMARK INTER + INTRA:          -8.322
REMARK INTER:                  -7.792
REMARK INTRA:                  -0.530
REMARK UNBOUND:                -0.624
REMARK  Name = 
REMARK  4 active torsions:
REMARK  status: ('A' for Active; 'I' for Inactive)
REMARK    1  A    between atoms: C_5  and  O_6
REMARK    2  A    between atoms: O_6  and  C_7
REMARK    3  A    between atoms: C_7  and  C_8
REMARK    4  A    between atoms: C_12  and  C_13
REMARK                            x       y       z     vdW  Elec       q    Type
REMARK                         _______ _______ _______ _____ _____    ______ ____
ROOT
ATOM      1  C   UNL     1      46.818   7.158  12.978  0.00  0.00    +0.000 A 
ATOM      2  C   UNL     1      46.080   8.342  12.952  0.00  0.00    +0.000 A 
ATOM      3  C   UNL     1      44.973   8.455  12.119  0.00  0.00    +0.000 A 
ATOM      4  C   UNL     1      44.619   7.380  11.318  0.00  0.00    +0.000 A 
ATOM      5  C   UNL     1      45.376   6.211  11.372  0.00  0.00    +0.000 A 
ATOM      6  N   UNL     1      46.455   6.103  12.198  0.00  0.00    +0.000 NA
ENDROOT
BRANCH   5   7
ATOM      7  C   UNL     1      45.080   5.041  10.512  0.00  0.00    +0.000 A 
ATOM      8  C   UNL     1      44.474   3.898  11.008  0.00  0.00    +0.000 A 
ATOM      9  C   UNL     1      44.283   2.862  10.124  0.00  0.00    +0.000 A 
ATOM     10  N   UNL     1      44.648   2.912   8.832  0.00  0.00    +0.000 NA
ATOM     11  C   UNL     1      45.221   4.057   8.439  0.00  0.00    +0.000 A 
ATOM     12  N   UNL     1      45.457   5.128   9.210  0.00  0.00    +0.000 NA
ENDBRANCH   5   7
BRANCH   1  13
ATOM     13  C   UNL     1      48.089   7.050  13.822  0.00  0.00    +0.000 C 
ATOM     14  C   UNL     1      49.337   7.782  13.325  0.00  0.00    +0.000 C 
ATOM     15  C   UNL     1      48.603   8.299  14.515  0.00  0.00    +0.000 C 
BRANCH  13  16
ATOM     16  O   UNL     1      48.461   5.737  14.298  0.00  0.00    +0.000 OA
BRANCH  16  21
ATOM     17  C   UNL     1      48.234   5.172  17.950  0.00  0.00    +0.000 A 
ATOM     18  C   UNL     1      47.282   4.165  17.897  0.00  0.00    +0.000 A 
ATOM     19  N   UNL     1      46.741   3.714  16.750  0.00  0.00    +0.000 NA
ATOM     20  C   UNL     1      47.181   4.298  15.609  0.00  0.00    +0.000 A 
ATOM     21  C   UNL     1      48.133   5.312  15.553  0.00  0.00    +0.000 A 
ATOM     22  C   UNL     1      48.667   5.752  16.756  0.00  0.00    +0.000 A 
ENDBRANCH  16  21
ENDBRANCH  13  16
ENDBRANCH   1  13
TORSDOF 4
ENDMDL
MODEL 6
REMARK VINA RESULT:    -6.236      2.468      3.085
REMARK INTER + INTRA:          -8.318
REMARK INTER:                  -7.784
REMARK INTRA:                  -0.534
REMARK UNBOUND:                -0.624
REMARK  Name = 
REMARK  4 active torsions:
REMARK  status: ('A' for Active; 'I' for Inactive)
REMARK    1  A    between atoms: C_5  and  O_6
REMARK    2  A    between atoms: O_6  and  C_7
REMARK    3  A    between atoms: C_7  and  C_8
REMARK    4  A    between atoms: C_12  and  C_13
REMARK                            x       y       z     vdW  Elec       q    Type
REMARK                         _______ _______ _______ _____ _____    ______ ____
ROOT
ATOM      1  C   UNL     1      44.841   6.756  12.093  0.00  0.00    +0.000 A 
ATOM      2  C   UNL     1      44.392   7.904  11.439  0.00  0.00    +0.000 A 
ATOM      3  C   UNL     1      45.039   9.117  11.638  0.00  0.00    +0.000 A 
ATOM      4  C   UNL     1      46.129   9.169  12.493  0.00  0.00    +0.000 A 
ATOM      5  C   UNL     1      46.553   8.003  13.128  0.00  0.00    +0.000 A 
ATOM      6  N   UNL     1      45.920   6.813  12.921  0.00  0.00    +0.000 NA
ENDROOT
BRANCH   5   7
ATOM      7  C   UNL     1      47.682   7.994  14.088  0.00  0.00    +0.000 A 
ATOM      8  C   UNL     1      48.186   9.161  14.641  0.00  0.00    +0.000 A 
ATOM      9  C   UNL     1      49.259   9.032  15.492  0.00  0.00    +0.000 A 
ATOM     10  N   UNL     1      49.822   7.853  15.803  0.00  0.00    +0.000 NA
ATOM     11  C   UNL     1      49.266   6.780  15.227  0.00  0.00    +0.000 A 
ATOM     12  N   UNL     1      48.223   6.785  14.385  0.00  0.00    +0.000 NA
ENDBRANCH   5   7
BRANCH   1  13
ATOM     13  C   UNL     1      44.086   5.433  11.954  0.00  0.00    +0.000 C 
ATOM     14  C   UNL     1      43.082   5.069  13.049  0.00  0.00    +0.000 C 
ATOM     15  C   UNL     1      42.589   5.480  11.703  0.00  0.00    +0.000 C 
BRANCH  13  16
ATOM     16  O   UNL     1      44.856   4.262  11.601  0.00  0.00    +0.000 OA
BRANCH  16  21
ATOM     17  C   UNL     1      45.040   2.397   8.408  0.00  0.00    +0.000 A 
ATOM     18  C   UNL     1      45.531   3.443   7.640  0.00  0.00    +0.000 A 
ATOM     19  N   UNL     1      45.770   4.674   8.129  0.00  0.00    +0.000 NA
ATOM     20  C   UNL     1      45.508   4.859   9.446  0.00  0.00    +0.000 A 
ATOM     21  C   UNL     1      45.017   3.877  10.302  0.00  0.00    +0.000 A 
ATOM     22  C   UNL     1      44.782   2.620   9.762  0.00  0.00    +0.000 A 
ENDBRANCH  16  21
ENDBRANCH  13  16
ENDBRANCH   1  13
TORSDOF 4
ENDMDL
MODEL 7
REMARK VINA RESULT:    -5.891      3.098      7.407
REMARK INTER + INTRA:          -7.893
REMARK INTER:                  -7.726
REMARK INTRA:                  -0.167
REMARK UNBOUND:                -0.624
REMARK  Name = 
REMARK  4 active torsions:
REMARK  status: ('A' for Active; 'I' for Inactive)
REMARK    1  A    between atoms: C_5  and  O_6
REMARK    2  A    between atoms: O_6  and  C_7
REMARK    3  A    between atoms: C_7  and  C_8
REMARK    4  A    between atoms: C_12  and  C_13
REMARK                            x       y       z     vdW  Elec       q    Type
REMARK                         _______ _______ _______ _____ _____    ______ ____
ROOT
ATOM      1  C   UNL     1      47.596   5.159  15.167  0.00  0.00    +0.000 A 
ATOM      2  C   UNL     1      48.229   6.326  14.737  0.00  0.00    +0.000 A 
ATOM      3  C   UNL     1      47.868   6.909  13.528  0.00  0.00    +0.000 A 
ATOM      4  C   UNL     1      46.878   6.315  12.761  0.00  0.00    +0.000 A 
ATOM      5  C   UNL     1      46.264   5.152  13.221  0.00  0.00    +0.000 A 
ATOM      6  N   UNL     1      46.615   4.589  14.413  0.00  0.00    +0.000 NA
ENDROOT
BRANCH   5   7
ATOM      7  C   UNL     1      45.231   4.440  12.432  0.00  0.00    +0.000 A 
ATOM      8  C   UNL     1      44.946   4.780  11.119  0.00  0.00    +0.000 A 
ATOM      9  C   UNL     1      43.942   4.073  10.499  0.00  0.00    +0.000 A 
ATOM     10  N   UNL     1      43.246   3.092  11.097  0.00  0.00    +0.000 NA
ATOM     11  C   UNL     1      43.593   2.830  12.363  0.00  0.00    +0.000 A 
ATOM     12  N   UNL     1      44.551   3.450  13.066  0.00  0.00    +0.000 NA
ENDBRANCH   5   7
BRANCH   1  13
ATOM     13  C   UNL     1      48.042   4.456  16.450  0.00  0.00    +0.000 C 
ATOM     14  C   UNL     1      46.977   3.722  17.266  0.00  0.00    +0.000 C 
ATOM     15  C   UNL     1      47.987   2.940  16.498  0.00  0.00    +0.000 C 
BRANCH  13  16
ATOM     16  O   UNL     1      48.909   5.191  17.343  0.00  0.00    +0.000 OA
BRANCH  16  21
ATOM     17  C   UNL     1      52.212   3.675  18.050  0.00  0.00    +0.000 A 
ATOM     18  C   UNL     1      52.977   4.712  17.536  0.00  0.00    +0.000 A 
ATOM     19  N   UNL     1      52.450   5.819  16.982  0.00  0.00    +0.000 NA
ATOM     20  C   UNL     1      51.097   5.889  16.951  0.00  0.00    +0.000 A 
ATOM     21  C   UNL     1      50.240   4.908  17.441  0.00  0.00    +0.000 A 
ATOM     22  C   UNL     1      50.820   3.779  18.004  0.00  0.00    +0.000 A 
ENDBRANCH  16  21
ENDBRANCH  13  16
ENDBRANCH   1  13
TORSDOF 4
ENDMDL
MODEL 8
REMARK VINA RESULT:    -5.794      3.286      6.368
REMARK INTER + INTRA:          -7.773
REMARK INTER:                  -7.228
REMARK INTRA:                  -0.544
REMARK UNBOUND:                -0.624
REMARK  Name = 
REMARK  4 active torsions:
REMARK  status: ('A' for Active; 'I' for Inactive)
REMARK    1  A    between atoms: C_5  and  O_6
REMARK    2  A    between atoms: O_6  and  C_7
REMARK    3  A    between atoms: C_7  and  C_8
REMARK    4  A    between atoms: C_12  and  C_13
REMARK                            x       y       z     vdW  Elec       q    Type
REMARK                         _______ _______ _______ _____ _____    ______ ____
ROOT
ATOM      1  C   UNL     1      47.980   6.736  13.310  0.00  0.00    +0.000 A 
ATOM      2  C   UNL     1      48.312   6.322  14.601  0.00  0.00    +0.000 A 
ATOM      3  C   UNL     1      47.653   5.242  15.177  0.00  0.00    +0.000 A 
ATOM      4  C   UNL     1      46.666   4.590  14.454  0.00  0.00    +0.000 A 
ATOM      5  C   UNL     1      46.362   5.027  13.166  0.00  0.00    +0.000 A 
ATOM      6  N   UNL     1      47.019   6.081  12.602  0.00  0.00    +0.000 NA
ENDROOT
BRANCH   5   7
ATOM      7  C   UNL     1      45.289   4.405  12.355  0.00  0.00    +0.000 A 
ATOM      8  C   UNL     1      44.985   4.845  11.077  0.00  0.00    +0.000 A 
ATOM      9  C   UNL     1      43.945   4.215  10.434  0.00  0.00    +0.000 A 
ATOM     10  N   UNL     1      43.233   3.213  10.979  0.00  0.00    +0.000 NA
ATOM     11  C   UNL     1      43.602   2.851  12.214  0.00  0.00    +0.000 A 
ATOM     12  N   UNL     1      44.595   3.391  12.934  0.00  0.00    +0.000 NA
ENDBRANCH   5   7
BRANCH   1  13
ATOM     13  C   UNL     1      48.632   7.976  12.697  0.00  0.00    +0.000 C 
ATOM     14  C   UNL     1      50.161   8.034  12.665  0.00  0.00    +0.000 C 
ATOM     15  C   UNL     1      49.404   7.818  11.399  0.00  0.00    +0.000 C 
BRANCH  13  16
ATOM     16  O   UNL     1      48.113   9.266  13.093  0.00  0.00    +0.000 OA
BRANCH  16  21
ATOM     17  C   UNL     1      44.682   9.926  11.869  0.00  0.00    +0.000 A 
ATOM     18  C   UNL     1      44.982  11.088  11.172  0.00  0.00    +0.000 A 
ATOM     19  N   UNL     1      46.214  11.625  11.120  0.00  0.00    +0.000 NA
ATOM     20  C   UNL     1      47.187  10.963  11.793  0.00  0.00    +0.000 A 
ATOM     21  C   UNL     1      46.992   9.791  12.519  0.00  0.00    +0.000 A 
ATOM     22  C   UNL     1      45.707   9.267  12.551  0.00  0.00    +0.000 A 
ENDBRANCH  16  21
ENDBRANCH  13  16
ENDBRANCH   1  13
TORSDOF 4
ENDMDL
MODEL 9
REMARK VINA RESULT:    -5.733      2.807      7.031
REMARK INTER + INTRA:          -7.697
REMARK INTER:                  -7.029
REMARK INTRA:                  -0.668
REMARK UNBOUND:                -0.624
REMARK  Name = 
REMARK  4 active torsions:
REMARK  status: ('A' for Active; 'I' for Inactive)
REMARK    1  A    between atoms: C_5  and  O_6
REMARK    2  A    between atoms: O_6  and  C_7
REMARK    3  A    between atoms: C_7  and  C_8
REMARK    4  A    between atoms: C_12  and  C_13
REMARK                            x       y       z     vdW  Elec       q    Type
REMARK                         _______ _______ _______ _____ _____    ______ ____
ROOT
ATOM      1  C   UNL     1      47.282   7.649  12.368  0.00  0.00    +0.000 A 
ATOM      2  C   UNL     1      46.584   8.853  12.269  0.00  0.00    +0.000 A 
ATOM      3  C   UNL     1      45.257   8.857  11.857  0.00  0.00    +0.000 A 
ATOM      4  C   UNL     1      44.643   7.654  11.545  0.00  0.00    +0.000 A 
ATOM      5  C   UNL     1      45.368   6.469  11.658  0.00  0.00    +0.000 A 
ATOM      6  N   UNL     1      46.668   6.470  12.072  0.00  0.00    +0.000 NA
ENDROOT
BRANCH   5   7
ATOM      7  C   UNL     1      44.789   5.153  11.298  0.00  0.00    +0.000 A 
ATOM      8  C   UNL     1      44.957   4.595  10.042  0.00  0.00    +0.000 A 
ATOM      9  C   UNL     1      44.343   3.385   9.812  0.00  0.00    +0.000 A 
ATOM     10  N   UNL     1      43.608   2.740  10.733  0.00  0.00    +0.000 NA
ATOM     11  C   UNL     1      43.505   3.351  11.920  0.00  0.00    +0.000 A 
ATOM     12  N   UNL     1      44.058   4.525  12.255  0.00  0.00    +0.000 NA
ENDBRANCH   5   7
BRANCH   1  13
ATOM     13  C   UNL     1      48.767   7.636  12.734  0.00  0.00    +0.000 C 
ATOM     14  C   UNL     1      49.776   7.432  11.602  0.00  0.00    +0.000 C 
ATOM     15  C   UNL     1      49.642   8.774  12.239  0.00  0.00    +0.000 C 
BRANCH  13  16
ATOM     16  O   UNL     1      49.163   6.845  13.877  0.00  0.00    +0.000 OA
BRANCH  16  21
ATOM     17  C   UNL     1      48.477   8.803  16.944  0.00  0.00    +0.000 A 
ATOM     18  C   UNL     1      48.533   7.737  17.830  0.00  0.00    +0.000 A 
ATOM     19  N   UNL     1      48.763   6.467  17.449  0.00  0.00    +0.000 NA
ATOM     20  C   UNL     1      48.949   6.262  16.122  0.00  0.00    +0.000 A 
ATOM     21  C   UNL     1      48.915   7.260  15.153  0.00  0.00    +0.000 A 
ATOM     22  C   UNL     1      48.674   8.558  15.583  0.00  0.00    +0.000 A 
ENDBRANCH  16  21
ENDBRANCH  13  16
ENDBRANCH   1  13
TORSDOF 4
ENDMDL
