MODEL 1
REMARK VINA RESULT:    -8.992      0.000      0.000
REMARK INTER + INTRA:         -13.098
REMARK INTER:                 -12.146
REMARK INTRA:                  -0.952
REMARK UNBOUND:                -0.952
REMARK  Name = 
REMARK  6 active torsions:
REMARK  status: ('A' for Active; 'I' for Inactive)
REMARK    1  A    between atoms: C_2  and  C_4
REMARK    2  A    between atoms: N_8  and  C_9
REMARK    3  A    between atoms: C_9  and  C_10
REMARK    4  A    between atoms: C_10  and  C_11
REMARK    5  A    between atoms: C_16  and  O_17
REMARK    6  A    between atoms: O_17  and  C_18
REMARK                            x       y       z     vdW  Elec       q    Type
REMARK                         _______ _______ _______ _____ _____    ______ ____
ROOT
ATOM      1  C   UNL     1      43.376   4.522  11.187  0.00  0.00    +0.000 C 
ENDROOT
BRANCH   1   6
ATOM      2  C   UNL     1      46.477   2.519   7.716  0.00  0.00    +0.000 A 
ATOM      3  C   UNL     1      45.636   1.882   8.620  0.00  0.00    +0.000 A 
ATOM      4  C   UNL     1      44.723   2.643   9.352  0.00  0.00    +0.000 A 
ATOM      5  C   UNL     1      44.683   4.025   9.186  0.00  0.00    +0.000 A 
ATOM      6  N   UNL     1      43.751   4.837   9.816  0.00  0.00    +0.000 N 
ATOM      7  N   UNL     1      45.519   4.656   8.339  0.00  0.00    +0.000 NA
ATOM      8  C   UNL     1      46.398   3.900   7.628  0.00  0.00    +0.000 A 
ATOM      9  H   UNL     1      44.036   5.798   9.639  0.00  0.00    +0.000 HD
BRANCH   2  11
ATOM     10  N   UNL     1      48.532   2.482   6.426  0.00  0.00    +0.000 N 
ATOM     11  C   UNL     1      47.435   1.790   6.860  0.00  0.00    +0.000 C 
ATOM     12  O   UNL     1      47.278   0.610   6.581  0.00  0.00    +0.000 OA
ATOM     13  H   UNL     1      49.237   1.946   5.936  0.00  0.00    +0.000 HD
ATOM     14  H   UNL     1      48.821   3.360   6.837  0.00  0.00    +0.000 HD
ENDBRANCH   2  11
ENDBRANCH   1   6
BRANCH   1  15
ATOM     15  C   UNL     1      43.655   5.711  12.114  0.00  0.00    +0.000 C 
BRANCH  15  16
ATOM     16  C   UNL     1      45.070   5.649  12.642  0.00  0.00    +0.000 A 
ATOM     17  C   UNL     1      45.933   6.741  12.487  0.00  0.00    +0.000 A 
ATOM     18  C   UNL     1      47.210   6.697  13.033  0.00  0.00    +0.000 A 
ATOM     19  F   UNL     1      48.025   7.750  12.885  0.00  0.00    +0.000 F 
ATOM     20  C   UNL     1      47.650   5.586  13.743  0.00  0.00    +0.000 A 
ATOM     21  C   UNL     1      46.795   4.499  13.915  0.00  0.00    +0.000 A 
ATOM     22  C   UNL     1      45.515   4.523  13.356  0.00  0.00    +0.000 A 
BRANCH  21  23
ATOM     23  O   UNL     1      47.306   3.447  14.634  0.00  0.00    +0.000 OA
BRANCH  23  24
ATOM     24  C   UNL     1      47.968   3.728  15.887  0.00  0.00    +0.000 C 
ATOM     25  C   UNL     1      48.514   2.513  16.682  0.00  0.00    +0.000 C 
ATOM     26  C   UNL     1      48.004   3.189  17.965  0.00  0.00    +0.000 C 
ATOM     27  C   UNL     1      47.017   3.977  17.086  0.00  0.00    +0.000 C 
ENDBRANCH  23  24
ENDBRANCH  21  23
ENDBRANCH  15  16
ENDBRANCH   1  15
TORSDOF 6
ENDMDL
MODEL 2
REMARK VINA RESULT:    -8.552      2.077      3.563
REMARK INTER + INTRA:         -12.504
REMARK INTER:                 -11.523
REMARK INTRA:                  -0.980
REMARK UNBOUND:                -0.952
REMARK  Name = 
REMARK  6 active torsions:
REMARK  status: ('A' for Active; 'I' for Inactive)
REMARK    1  A    between atoms: C_2  and  C_4
REMARK    2  A    between atoms: N_8  and  C_9
REMARK    3  A    between atoms: C_9  and  C_10
REMARK    4  A    between atoms: C_10  and  C_11
REMARK    5  A    between atoms: C_16  and  O_17
REMARK    6  A    between atoms: O_17  and  C_18
REMARK                            x       y       z     vdW  Elec       q    Type
REMARK                         _______ _______ _______ _____ _____    ______ ____
ROOT
ATOM      1  C   UNL     1      43.227   4.477  11.144  0.00  0.00    +0.000 C 
ENDROOT
BRANCH   1   6
ATOM      2  C   UNL     1      46.421   2.494   7.745  0.00  0.00    +0.000 A 
ATOM      3  C   UNL     1      45.554   1.852   8.622  0.00  0.00    +0.000 A 
ATOM      4  C   UNL     1      44.623   2.608   9.333  0.00  0.00    +0.000 A 
ATOM      5  C   UNL     1      44.588   3.992   9.176  0.00  0.00    +0.000 A 
ATOM      6  N   UNL     1      43.639   4.800   9.786  0.00  0.00    +0.000 N 
ATOM      7  N   UNL     1      45.447   4.628   8.356  0.00  0.00    +0.000 NA
ATOM      8  C   UNL     1      46.345   3.876   7.664  0.00  0.00    +0.000 A 
ATOM      9  H   UNL     1      43.930   5.763   9.622  0.00  0.00    +0.000 HD
BRANCH   2  11
ATOM     10  N   UNL     1      48.491   2.475   6.481  0.00  0.00    +0.000 N 
ATOM     11  C   UNL     1      47.401   1.770   6.911  0.00  0.00    +0.000 C 
ATOM     12  O   UNL     1      47.268   0.583   6.648  0.00  0.00    +0.000 OA
ATOM     13  H   UNL     1      49.211   1.945   6.006  0.00  0.00    +0.000 HD
ATOM     14  H   UNL     1      48.760   3.364   6.882  0.00  0.00    +0.000 HD
ENDBRANCH   2  11
ENDBRANCH   1   6
BRANCH   1  15
ATOM     15  C   UNL     1      43.422   5.681  12.073  0.00  0.00    +0.000 C 
BRANCH  15  16
ATOM     16  C   UNL     1      44.816   5.679  12.655  0.00  0.00    +0.000 A 
ATOM     17  C   UNL     1      45.382   4.491  13.135  0.00  0.00    +0.000 A 
ATOM     18  C   UNL     1      46.689   4.489  13.609  0.00  0.00    +0.000 A 
ATOM     19  F   UNL     1      47.223   3.346  14.060  0.00  0.00    +0.000 F 
ATOM     20  C   UNL     1      47.455   5.648  13.608  0.00  0.00    +0.000 A 
ATOM     21  C   UNL     1      46.907   6.833  13.119  0.00  0.00    +0.000 A 
ATOM     22  C   UNL     1      45.588   6.853  12.657  0.00  0.00    +0.000 A 
BRANCH  21  23
ATOM     23  O   UNL     1      47.733   7.929  13.149  0.00  0.00    +0.000 OA
BRANCH  23  24
ATOM     24  C   UNL     1      48.514   8.232  11.971  0.00  0.00    +0.000 C 
ATOM     25  C   UNL     1      50.008   7.814  11.993  0.00  0.00    +0.000 C 
ATOM     26  C   UNL     1      50.339   9.154  11.316  0.00  0.00    +0.000 C 
ATOM     27  C   UNL     1      49.013   9.697  11.878  0.00  0.00    +0.000 C 
ENDBRANCH  23  24
ENDBRANCH  21  23
ENDBRANCH  15  16
ENDBRANCH   1  15
TORSDOF 6
ENDMDL
MODEL 3
REMARK VINA RESULT:    -7.761      2.455      3.374
REMARK INTER + INTRA:         -11.435
REMARK INTER:                 -10.867
REMARK INTRA:                  -0.569
REMARK UNBOUND:                -0.952
REMARK  Name = 
REMARK  6 active torsions:
REMARK  status: ('A' for Active; 'I' for Inactive)
REMARK    1  A    between atoms: C_2  and  C_4
REMARK    2  A    between atoms: N_8  and  C_9
REMARK    3  A    between atoms: C_9  and  C_10
REMARK    4  A    between atoms: C_10  and  C_11
REMARK    5  A    between atoms: C_16  and  O_17
REMARK    6  A    between atoms: O_17  and  C_18
REMARK                            x       y       z     vdW  Elec       q    Type
REMARK                         _______ _______ _______ _____ _____    ______ ____
ROOT
ATOM      1  C   UNL     1      43.484   4.644  11.209  0.00  0.00    +0.000 C 
ENDROOT
BRANCH   1   6
ATOM      2  C   UNL     1      46.404   2.355   7.757  0.00  0.00    +0.000 A 
ATOM      3  C   UNL     1      45.543   1.797   8.695  0.00  0.00    +0.000 A 
ATOM      4  C   UNL     1      44.689   2.632   9.415  0.00  0.00    +0.000 A 
ATOM      5  C   UNL     1      44.725   4.009   9.206  0.00  0.00    +0.000 A 
ATOM      6  N   UNL     1      43.852   4.893   9.823  0.00  0.00    +0.000 N 
ATOM      7  N   UNL     1      45.582   4.563   8.326  0.00  0.00    +0.000 NA
ATOM      8  C   UNL     1      46.403   3.736   7.626  0.00  0.00    +0.000 A 
ATOM      9  H   UNL     1      44.190   5.830   9.610  0.00  0.00    +0.000 HD
BRANCH   2  11
ATOM     10  N   UNL     1      48.443   2.151   6.459  0.00  0.00    +0.000 N 
ATOM     11  C   UNL     1      47.303   1.545   6.911  0.00  0.00    +0.000 C 
ATOM     12  O   UNL     1      47.062   0.374   6.656  0.00  0.00    +0.000 OA
ATOM     13  H   UNL     1      49.106   1.558   5.976  0.00  0.00    +0.000 HD
ATOM     14  H   UNL     1      48.796   3.014   6.852  0.00  0.00    +0.000 HD
ENDBRANCH   2  11
ENDBRANCH   1   6
BRANCH   1  15
ATOM     15  C   UNL     1      44.728   4.369  12.062  0.00  0.00    +0.000 C 
BRANCH  15  16
ATOM     16  C   UNL     1      45.473   5.653  12.340  0.00  0.00    +0.000 A 
ATOM     17  C   UNL     1      44.782   6.869  12.426  0.00  0.00    +0.000 A 
ATOM     18  C   UNL     1      45.470   8.034  12.746  0.00  0.00    +0.000 A 
ATOM     19  F   UNL     1      44.798   9.190  12.833  0.00  0.00    +0.000 F 
ATOM     20  C   UNL     1      46.837   8.017  12.994  0.00  0.00    +0.000 A 
ATOM     21  C   UNL     1      47.531   6.811  12.925  0.00  0.00    +0.000 A 
ATOM     22  C   UNL     1      46.856   5.635  12.585  0.00  0.00    +0.000 A 
BRANCH  21  23
ATOM     23  O   UNL     1      48.877   6.881  13.189  0.00  0.00    +0.000 OA
BRANCH  23  24
ATOM     24  C   UNL     1      49.617   8.014  12.682  0.00  0.00    +0.000 C 
ATOM     25  C   UNL     1      50.422   7.800  11.373  0.00  0.00    +0.000 C 
ATOM     26  C   UNL     1      51.558   8.625  11.997  0.00  0.00    +0.000 C 
ATOM     27  C   UNL     1      50.980   8.267  13.378  0.00  0.00    +0.000 C 
ENDBRANCH  23  24
ENDBRANCH  21  23
ENDBRANCH  15  16
ENDBRANCH   1  15
TORSDOF 6
ENDMDL
MODEL 4
REMARK VINA RESULT:    -7.649      3.565      8.052
REMARK INTER + INTRA:         -11.284
REMARK INTER:                 -10.511
REMARK INTRA:                  -0.773
REMARK UNBOUND:                -0.952
REMARK  Name = 
REMARK  6 active torsions:
REMARK  status: ('A' for Active; 'I' for Inactive)
REMARK    1  A    between atoms: C_2  and  C_4
REMARK    2  A    between atoms: N_8  and  C_9
REMARK    3  A    between atoms: C_9  and  C_10
REMARK    4  A    between atoms: C_10  and  C_11
REMARK    5  A    between atoms: C_16  and  O_17
REMARK    6  A    between atoms: O_17  and  C_18
REMARK                            x       y       z     vdW  Elec       q    Type
REMARK                         _______ _______ _______ _____ _____    ______ ____
ROOT
ATOM      1  C   UNL     1      45.832   6.258  12.942  0.00  0.00    +0.000 C 
ENDROOT
BRANCH   1   6
ATOM      2  C   UNL     1      48.503   4.396  16.826  0.00  0.00    +0.000 A 
ATOM      3  C   UNL     1      47.491   3.799  16.083  0.00  0.00    +0.000 A 
ATOM      4  C   UNL     1      47.030   4.432  14.929  0.00  0.00    +0.000 A 
ATOM      5  C   UNL     1      47.570   5.658  14.548  0.00  0.00    +0.000 A 
ATOM      6  N   UNL     1      47.222   6.307  13.372  0.00  0.00    +0.000 N 
ATOM      7  N   UNL     1      48.526   6.263  15.280  0.00  0.00    +0.000 NA
ATOM      8  C   UNL     1      48.969   5.630  16.399  0.00  0.00    +0.000 A 
ATOM      9  H   UNL     1      47.645   7.233  13.415  0.00  0.00    +0.000 HD
BRANCH   2  11
ATOM     10  N   UNL     1      48.218   3.318  18.980  0.00  0.00    +0.000 N 
ATOM     11  C   UNL     1      49.090   3.774  18.029  0.00  0.00    +0.000 C 
ATOM     12  O   UNL     1      50.298   3.635  18.157  0.00  0.00    +0.000 OA
ATOM     13  H   UNL     1      48.622   2.794  19.746  0.00  0.00    +0.000 HD
ATOM     14  H   UNL     1      47.232   3.184  18.798  0.00  0.00    +0.000 HD
ENDBRANCH   2  11
ENDBRANCH   1   6
BRANCH   1  15
ATOM     15  C   UNL     1      45.723   6.469  11.428  0.00  0.00    +0.000 C 
BRANCH  15  16
ATOM     16  C   UNL     1      45.270   5.198  10.749  0.00  0.00    +0.000 A 
ATOM     17  C   UNL     1      44.508   4.253  11.448  0.00  0.00    +0.000 A 
ATOM     18  C   UNL     1      44.043   3.117  10.794  0.00  0.00    +0.000 A 
ATOM     19  F   UNL     1      43.309   2.224  11.471  0.00  0.00    +0.000 F 
ATOM     20  C   UNL     1      44.311   2.904   9.448  0.00  0.00    +0.000 A 
ATOM     21  C   UNL     1      45.056   3.844   8.739  0.00  0.00    +0.000 A 
ATOM     22  C   UNL     1      45.546   4.980   9.389  0.00  0.00    +0.000 A 
BRANCH  21  23
ATOM     23  O   UNL     1      45.270   3.557   7.413  0.00  0.00    +0.000 OA
BRANCH  23  24
ATOM     24  C   UNL     1      46.630   3.362   6.964  0.00  0.00    +0.000 C 
ATOM     25  C   UNL     1      46.829   2.968   5.477  0.00  0.00    +0.000 C 
ATOM     26  C   UNL     1      47.913   1.980   5.937  0.00  0.00    +0.000 C 
ATOM     27  C   UNL     1      47.243   1.984   7.323  0.00  0.00    +0.000 C 
ENDBRANCH  23  24
ENDBRANCH  21  23
ENDBRANCH  15  16
ENDBRANCH   1  15
TORSDOF 6
ENDMDL
MODEL 5
REMARK VINA RESULT:    -7.614      2.900      4.734
REMARK INTER + INTRA:         -11.238
REMARK INTER:                 -10.487
REMARK INTRA:                  -0.751
REMARK UNBOUND:                -0.952
REMARK  Name = 
REMARK  6 active torsions:
REMARK  status: ('A' for Active; 'I' for Inactive)
REMARK    1  A    between atoms: C_2  and  C_4
REMARK    2  A    between atoms: N_8  and  C_9
REMARK    3  A    between atoms: C_9  and  C_10
REMARK    4  A    between atoms: C_10  and  C_11
REMARK    5  A    between atoms: C_16  and  O_17
REMARK    6  A    between atoms: O_17  and  C_18
REMARK                            x       y       z     vdW  Elec       q    Type
REMARK                         _______ _______ _______ _____ _____    ______ ____
ROOT
ATOM      1  C   UNL     1      43.909   4.821  11.313  0.00  0.00    +0.000 C 
ENDROOT
BRANCH   1   6
ATOM      2  C   UNL     1      46.564   2.514   7.665  0.00  0.00    +0.000 A 
ATOM      3  C   UNL     1      45.724   1.966   8.627  0.00  0.00    +0.000 A 
ATOM      4  C   UNL     1      44.941   2.814   9.410  0.00  0.00    +0.000 A 
ATOM      5  C   UNL     1      45.027   4.193   9.236  0.00  0.00    +0.000 A 
ATOM      6  N   UNL     1      44.222   5.095   9.918  0.00  0.00    +0.000 N 
ATOM      7  N   UNL     1      45.864   4.737   8.331  0.00  0.00    +0.000 NA
ATOM      8  C   UNL     1      46.616   3.896   7.571  0.00  0.00    +0.000 A 
ATOM      9  H   UNL     1      44.589   6.023   9.715  0.00  0.00    +0.000 HD
BRANCH   2  11
ATOM     10  N   UNL     1      48.480   2.293   6.194  0.00  0.00    +0.000 N 
ATOM     11  C   UNL     1      47.387   1.692   6.755  0.00  0.00    +0.000 C 
ATOM     12  O   UNL     1      47.128   0.517   6.540  0.00  0.00    +0.000 OA
ATOM     13  H   UNL     1      49.099   1.693   5.663  0.00  0.00    +0.000 HD
ATOM     14  H   UNL     1      48.864   3.162   6.540  0.00  0.00    +0.000 HD
ENDBRANCH   2  11
ENDBRANCH   1   6
BRANCH   1  15
ATOM     15  C   UNL     1      45.180   4.836  12.170  0.00  0.00    +0.000 C 
BRANCH  15  16
ATOM     16  C   UNL     1      45.767   6.228  12.221  0.00  0.00    +0.000 A 
ATOM     17  C   UNL     1      47.106   6.446  11.871  0.00  0.00    +0.000 A 
ATOM     18  C   UNL     1      47.616   7.740  11.860  0.00  0.00    +0.000 A 
ATOM     19  F   UNL     1      48.896   7.938  11.518  0.00  0.00    +0.000 F 
ATOM     20  C   UNL     1      46.817   8.830  12.181  0.00  0.00    +0.000 A 
ATOM     21  C   UNL     1      45.480   8.625  12.517  0.00  0.00    +0.000 A 
ATOM     22  C   UNL     1      44.959   7.329  12.551  0.00  0.00    +0.000 A 
BRANCH  21  23
ATOM     23  O   UNL     1      44.760   9.757  12.815  0.00  0.00    +0.000 OA
BRANCH  23  24
ATOM     24  C   UNL     1      43.980  10.370  11.765  0.00  0.00    +0.000 C 
ATOM     25  C   UNL     1      43.962   9.650  10.391  0.00  0.00    +0.000 C 
ATOM     26  C   UNL     1      44.074  11.031   9.725  0.00  0.00    +0.000 C 
ATOM     27  C   UNL     1      44.676  11.552  11.041  0.00  0.00    +0.000 C 
ENDBRANCH  23  24
ENDBRANCH  21  23
ENDBRANCH  15  16
ENDBRANCH   1  15
TORSDOF 6
ENDMDL
MODEL 6
REMARK VINA RESULT:    -7.029      4.046      8.430
REMARK INTER + INTRA:         -10.447
REMARK INTER:                  -9.907
REMARK INTRA:                  -0.539
REMARK UNBOUND:                -0.952
REMARK  Name = 
REMARK  6 active torsions:
REMARK  status: ('A' for Active; 'I' for Inactive)
REMARK    1  A    between atoms: C_2  and  C_4
REMARK    2  A    between atoms: N_8  and  C_9
REMARK    3  A    between atoms: C_9  and  C_10
REMARK    4  A    between atoms: C_10  and  C_11
REMARK    5  A    between atoms: C_16  and  O_17
REMARK    6  A    between atoms: O_17  and  C_18
REMARK                            x       y       z     vdW  Elec       q    Type
REMARK                         _______ _______ _______ _____ _____    ______ ____
ROOT
ATOM      1  C   UNL     1      47.265   4.753  13.788  0.00  0.00    +0.000 C 
ENDROOT
BRANCH   1   6
ATOM      2  C   UNL     1      48.543   4.355  18.676  0.00  0.00    +0.000 A 
ATOM      3  C   UNL     1      48.866   5.346  17.757  0.00  0.00    +0.000 A 
ATOM      4  C   UNL     1      48.238   5.349  16.511  0.00  0.00    +0.000 A 
ATOM      5  C   UNL     1      47.319   4.351  16.195  0.00  0.00    +0.000 A 
ATOM      6  N   UNL     1      46.596   4.334  15.011  0.00  0.00    +0.000 N 
ATOM      7  N   UNL     1      47.027   3.365  17.065  0.00  0.00    +0.000 NA
ATOM      8  C   UNL     1      47.641   3.379  18.278  0.00  0.00    +0.000 A 
ATOM      9  H   UNL     1      46.119   3.435  14.975  0.00  0.00    +0.000 HD
BRANCH   2  11
ATOM     10  N   UNL     1      50.476   4.395  20.141  0.00  0.00    +0.000 N 
ATOM     11  C   UNL     1      49.115   4.304  20.036  0.00  0.00    +0.000 C 
ATOM     12  O   UNL     1      48.406   4.223  21.028  0.00  0.00    +0.000 OA
ATOM     13  H   UNL     1      50.851   4.472  21.078  0.00  0.00    +0.000 HD
ATOM     14  H   UNL     1      51.063   4.714  19.381  0.00  0.00    +0.000 HD
ENDBRANCH   2  11
ENDBRANCH   1   6
BRANCH   1  15
ATOM     15  C   UNL     1      46.468   5.856  13.082  0.00  0.00    +0.000 C 
BRANCH  15  16
ATOM     16  C   UNL     1      45.241   5.278  12.417  0.00  0.00    +0.000 A 
ATOM     17  C   UNL     1      44.008   5.937  12.507  0.00  0.00    +0.000 A 
ATOM     18  C   UNL     1      42.901   5.429  11.837  0.00  0.00    +0.000 A 
ATOM     19  F   UNL     1      41.729   6.071  11.925  0.00  0.00    +0.000 F 
ATOM     20  C   UNL     1      42.995   4.278  11.065  0.00  0.00    +0.000 A 
ATOM     21  C   UNL     1      44.220   3.622  10.957  0.00  0.00    +0.000 A 
ATOM     22  C   UNL     1      45.336   4.111  11.640  0.00  0.00    +0.000 A 
BRANCH  21  23
ATOM     23  O   UNL     1      44.226   2.496  10.170  0.00  0.00    +0.000 OA
BRANCH  23  24
ATOM     24  C   UNL     1      44.588   2.633   8.778  0.00  0.00    +0.000 C 
ATOM     25  C   UNL     1      45.975   2.080   8.356  0.00  0.00    +0.000 C 
ATOM     26  C   UNL     1      46.146   3.327   7.474  0.00  0.00    +0.000 C 
ATOM     27  C   UNL     1      45.119   4.033   8.377  0.00  0.00    +0.000 C 
ENDBRANCH  23  24
ENDBRANCH  21  23
ENDBRANCH  15  16
ENDBRANCH   1  15
TORSDOF 6
ENDMDL
MODEL 7
REMARK VINA RESULT:    -6.791      3.929      7.340
REMARK INTER + INTRA:         -10.125
REMARK INTER:                  -9.311
REMARK INTRA:                  -0.813
REMARK UNBOUND:                -0.952
REMARK  Name = 
REMARK  6 active torsions:
REMARK  status: ('A' for Active; 'I' for Inactive)
REMARK    1  A    between atoms: C_2  and  C_4
REMARK    2  A    between atoms: N_8  and  C_9
REMARK    3  A    between atoms: C_9  and  C_10
REMARK    4  A    between atoms: C_10  and  C_11
REMARK    5  A    between atoms: C_16  and  O_17
REMARK    6  A    between atoms: O_17  and  C_18
REMARK                            x       y       z     vdW  Elec       q    Type
REMARK                         _______ _______ _______ _____ _____    ______ ____
ROOT
ATOM      1  C   UNL     1      47.305   5.400  13.443  0.00  0.00    +0.000 C 
ENDROOT
BRANCH   1   6
ATOM      2  C   UNL     1      46.428  10.189  12.036  0.00  0.00    +0.000 A 
ATOM      3  C   UNL     1      45.616   9.068  11.908  0.00  0.00    +0.000 A 
ATOM      4  C   UNL     1      45.986   7.884  12.546  0.00  0.00    +0.000 A 
ATOM      5  C   UNL     1      47.168   7.832  13.280  0.00  0.00    +0.000 A 
ATOM      6  N   UNL     1      47.560   6.717  14.008  0.00  0.00    +0.000 N 
ATOM      7  N   UNL     1      47.981   8.902  13.380  0.00  0.00    +0.000 NA
ATOM      8  C   UNL     1      47.604  10.051  12.758  0.00  0.00    +0.000 A 
ATOM      9  H   UNL     1      48.514   6.894  14.320  0.00  0.00    +0.000 HD
BRANCH   2  11
ATOM     10  N   UNL     1      45.315  12.338  12.193  0.00  0.00    +0.000 N 
ATOM     11  C   UNL     1      46.090  11.497  11.442  0.00  0.00    +0.000 C 
ATOM     12  O   UNL     1      46.512  11.833  10.345  0.00  0.00    +0.000 OA
ATOM     13  H   UNL     1      45.182  13.273  11.827  0.00  0.00    +0.000 HD
ATOM     14  H   UNL     1      45.165  12.204  13.184  0.00  0.00    +0.000 HD
ENDBRANCH   2  11
ENDBRANCH   1   6
BRANCH   1  15
ATOM     15  C   UNL     1      46.043   4.781  14.054  0.00  0.00    +0.000 C 
BRANCH  15  16
ATOM     16  C   UNL     1      45.037   4.458  12.974  0.00  0.00    +0.000 A 
ATOM     17  C   UNL     1      43.813   5.136  12.919  0.00  0.00    +0.000 A 
ATOM     18  C   UNL     1      42.923   4.876  11.884  0.00  0.00    +0.000 A 
ATOM     19  F   UNL     1      41.757   5.536  11.838  0.00  0.00    +0.000 F 
ATOM     20  C   UNL     1      43.228   3.957  10.888  0.00  0.00    +0.000 A 
ATOM     21  C   UNL     1      44.449   3.287  10.924  0.00  0.00    +0.000 A 
ATOM     22  C   UNL     1      45.345   3.525  11.970  0.00  0.00    +0.000 A 
BRANCH  21  23
ATOM     23  O   UNL     1      44.674   2.401   9.899  0.00  0.00    +0.000 OA
BRANCH  23  24
ATOM     24  C   UNL     1      44.926   2.929   8.578  0.00  0.00    +0.000 C 
ATOM     25  C   UNL     1      46.114   2.315   7.791  0.00  0.00    +0.000 C 
ATOM     26  C   UNL     1      46.469   3.735   7.321  0.00  0.00    +0.000 C 
ATOM     27  C   UNL     1      45.709   4.267   8.549  0.00  0.00    +0.000 C 
ENDBRANCH  23  24
ENDBRANCH  21  23
ENDBRANCH  15  16
ENDBRANCH   1  15
TORSDOF 6
ENDMDL
MODEL 8
REMARK VINA RESULT:    -6.613      4.140      7.599
REMARK INTER + INTRA:          -9.885
REMARK INTER:                  -9.223
REMARK INTRA:                  -0.662
REMARK UNBOUND:                -0.952
REMARK  Name = 
REMARK  6 active torsions:
REMARK  status: ('A' for Active; 'I' for Inactive)
REMARK    1  A    between atoms: C_2  and  C_4
REMARK    2  A    between atoms: N_8  and  C_9
REMARK    3  A    between atoms: C_9  and  C_10
REMARK    4  A    between atoms: C_10  and  C_11
REMARK    5  A    between atoms: C_16  and  O_17
REMARK    6  A    between atoms: O_17  and  C_18
REMARK                            x       y       z     vdW  Elec       q    Type
REMARK                         _______ _______ _______ _____ _____    ______ ____
ROOT
ATOM      1  C   UNL     1      45.825   6.459  12.906  0.00  0.00    +0.000 C 
ENDROOT
BRANCH   1   6
ATOM      2  C   UNL     1      50.501   8.408  12.763  0.00  0.00    +0.000 A 
ATOM      3  C   UNL     1      49.848   7.610  11.831  0.00  0.00    +0.000 A 
ATOM      4  C   UNL     1      48.487   7.351  11.992  0.00  0.00    +0.000 A 
ATOM      5  C   UNL     1      47.807   7.872  13.090  0.00  0.00    +0.000 A 
ATOM      6  N   UNL     1      46.440   7.726  13.274  0.00  0.00    +0.000 N 
ATOM      7  N   UNL     1      48.439   8.616  14.019  0.00  0.00    +0.000 NA
ATOM      8  C   UNL     1      49.764   8.866  13.845  0.00  0.00    +0.000 A 
ATOM      9  H   UNL     1      46.235   8.068  14.212  0.00  0.00    +0.000 HD
BRANCH   2  11
ATOM     10  N   UNL     1      52.558   8.449  11.478  0.00  0.00    +0.000 N 
ATOM     11  C   UNL     1      51.925   8.780  12.644  0.00  0.00    +0.000 C 
ATOM     12  O   UNL     1      52.506   9.390  13.531  0.00  0.00    +0.000 OA
ATOM     13  H   UNL     1      53.498   8.805  11.360  0.00  0.00    +0.000 HD
ATOM     14  H   UNL     1      52.057   8.182  10.641  0.00  0.00    +0.000 HD
ENDBRANCH   2  11
ENDBRANCH   1   6
BRANCH   1  15
ATOM     15  C   UNL     1      45.120   6.569  11.549  0.00  0.00    +0.000 C 
BRANCH  15  16
ATOM     16  C   UNL     1      44.827   5.196  10.993  0.00  0.00    +0.000 A 
ATOM     17  C   UNL     1      44.152   4.245  11.770  0.00  0.00    +0.000 A 
ATOM     18  C   UNL     1      43.831   3.007  11.225  0.00  0.00    +0.000 A 
ATOM     19  F   UNL     1      43.180   2.108  11.975  0.00  0.00    +0.000 F 
ATOM     20  C   UNL     1      44.159   2.694   9.912  0.00  0.00    +0.000 A 
ATOM     21  C   UNL     1      44.817   3.637   9.125  0.00  0.00    +0.000 A 
ATOM     22  C   UNL     1      45.163   4.878   9.666  0.00  0.00    +0.000 A 
BRANCH  21  23
ATOM     23  O   UNL     1      45.098   3.248   7.838  0.00  0.00    +0.000 OA
BRANCH  23  24
ATOM     24  C   UNL     1      46.483   3.142   7.441  0.00  0.00    +0.000 C 
ATOM     25  C   UNL     1      46.784   3.201   5.920  0.00  0.00    +0.000 C 
ATOM     26  C   UNL     1      47.814   2.080   6.133  0.00  0.00    +0.000 C 
ATOM     27  C   UNL     1      47.045   1.697   7.410  0.00  0.00    +0.000 C 
ENDBRANCH  23  24
ENDBRANCH  21  23
ENDBRANCH  15  16
ENDBRANCH   1  15
TORSDOF 6
ENDMDL
MODEL 9
REMARK VINA RESULT:    -6.427      3.409      5.525
REMARK INTER + INTRA:          -9.633
REMARK INTER:                  -8.801
REMARK INTRA:                  -0.832
REMARK UNBOUND:                -0.952
REMARK  Name = 
REMARK  6 active torsions:
REMARK  status: ('A' for Active; 'I' for Inactive)
REMARK    1  A    between atoms: C_2  and  C_4
REMARK    2  A    between atoms: N_8  and  C_9
REMARK    3  A    between atoms: C_9  and  C_10
REMARK    4  A    between atoms: C_10  and  C_11
REMARK    5  A    between atoms: C_16  and  O_17
REMARK    6  A    between atoms: O_17  and  C_18
REMARK                            x       y       z     vdW  Elec       q    Type
REMARK                         _______ _______ _______ _____ _____    ______ ____
ROOT
ATOM      1  C   UNL     1      48.575   6.614  14.422  0.00  0.00    +0.000 C 
ENDROOT
BRANCH   1   6
ATOM      2  C   UNL     1      44.809   4.886  11.504  0.00  0.00    +0.000 A 
ATOM      3  C   UNL     1      45.555   4.220  12.469  0.00  0.00    +0.000 A 
ATOM      4  C   UNL     1      46.414   4.951  13.289  0.00  0.00    +0.000 A 
ATOM      5  C   UNL     1      46.532   6.329  13.117  0.00  0.00    +0.000 A 
ATOM      6  N   UNL     1      47.302   7.133  13.945  0.00  0.00    +0.000 N 
ATOM      7  N   UNL     1      45.841   6.979  12.160  0.00  0.00    +0.000 NA
ATOM      8  C   UNL     1      45.003   6.253  11.373  0.00  0.00    +0.000 A 
ATOM      9  H   UNL     1      47.327   8.055  13.513  0.00  0.00    +0.000 HD
BRANCH   2  11
ATOM     10  N   UNL     1      43.840   4.551   9.305  0.00  0.00    +0.000 N 
ATOM     11  C   UNL     1      43.836   4.203  10.629  0.00  0.00    +0.000 C 
ATOM     12  O   UNL     1      43.085   3.338  11.055  0.00  0.00    +0.000 OA
ATOM     13  H   UNL     1      43.250   4.000   8.694  0.00  0.00    +0.000 HD
ATOM     14  H   UNL     1      44.601   5.061   8.877  0.00  0.00    +0.000 HD
ENDBRANCH   2  11
ENDBRANCH   1   6
BRANCH   1  15
ATOM     15  C   UNL     1      48.745   6.879  15.922  0.00  0.00    +0.000 C 
BRANCH  15  16
ATOM     16  C   UNL     1      48.804   5.577  16.686  0.00  0.00    +0.000 A 
ATOM     17  C   UNL     1      47.672   4.757  16.778  0.00  0.00    +0.000 A 
ATOM     18  C   UNL     1      47.756   3.532  17.429  0.00  0.00    +0.000 A 
ATOM     19  F   UNL     1      46.668   2.753  17.506  0.00  0.00    +0.000 F 
ATOM     20  C   UNL     1      48.951   3.095  17.985  0.00  0.00    +0.000 A 
ATOM     21  C   UNL     1      50.087   3.896  17.887  0.00  0.00    +0.000 A 
ATOM     22  C   UNL     1      50.012   5.138  17.253  0.00  0.00    +0.000 A 
BRANCH  21  23
ATOM     23  O   UNL     1      51.227   3.386  18.459  0.00  0.00    +0.000 OA
BRANCH  23  24
ATOM     24  C   UNL     1      52.120   2.607  17.633  0.00  0.00    +0.000 C 
ATOM     25  C   UNL     1      51.895   1.072  17.609  0.00  0.00    +0.000 C 
ATOM     26  C   UNL     1      53.422   0.900  17.654  0.00  0.00    +0.000 C 
ATOM     27  C   UNL     1      53.503   2.309  18.268  0.00  0.00    +0.000 C 
ENDBRANCH  23  24
ENDBRANCH  21  23
ENDBRANCH  15  16
ENDBRANCH   1  15
TORSDOF 6
ENDMDL
