MODEL 1
REMARK VINA RESULT:    -8.375      0.000      0.000
REMARK INTER + INTRA:         -14.703
REMARK INTER:                 -13.026
REMARK INTRA:                  -1.677
REMARK UNBOUND:                -1.677
REMARK  Name = 
REMARK  10 active torsions:
REMARK  status: ('A' for Active; 'I' for Inactive)
REMARK    1  A    between atoms: C_2  and  C_23
REMARK    2  A    between atoms: N_3  and  C_4
REMARK    3  A    between atoms: C_4  and  C_5
REMARK    4  A    between atoms: C_8  and  C_9
REMARK    5  A    between atoms: C_9  and  N_10
REMARK    6  A    between atoms: N_10  and  C_11
REMARK    7  A    between atoms: N_10  and  C_14
REMARK    8  A    between atoms: C_11  and  C_12
REMARK    9  A    between atoms: C_12  and  O_13
REMARK   10  A    between atoms: C_14  and  C_15
REMARK                            x       y       z     vdW  Elec       q    Type
REMARK                         _______ _______ _______ _____ _____    ______ ____
ROOT
ATOM      1  C   UNL     1      46.768   7.860  12.883  0.00  0.00    +0.000 A 
ATOM      2  C   UNL     1      47.304   6.895  12.035  0.00  0.00    +0.000 A 
ATOM      3  C   UNL     1      46.445   6.162  11.214  0.00  0.00    +0.000 A 
ATOM      4  C   UNL     1      45.067   6.387  11.265  0.00  0.00    +0.000 A 
ATOM      5  C   UNL     1      44.624   7.376  12.134  0.00  0.00    +0.000 A 
ATOM      6  N   UNL     1      45.434   8.107  12.939  0.00  0.00    +0.000 NA
ENDROOT
BRANCH   1   7
ATOM      7  C   UNL     1      47.660   8.605  13.855  0.00  0.00    +0.000 C 
BRANCH   7  10
ATOM      8  O   UNL     1      50.069   7.191  14.257  0.00  0.00    +0.000 OA
ATOM      9  C   UNL     1      49.168   7.084  15.080  0.00  0.00    +0.000 C 
ATOM     10  N   UNL     1      47.996   7.788  15.000  0.00  0.00    +0.000 N 
ATOM     11  H   UNL     1      47.279   7.670  15.701  0.00  0.00    +0.000 HD
BRANCH   9  12
ATOM     12  C   UNL     1      49.289   6.216  16.257  0.00  0.00    +0.000 A 
ATOM     13  C   UNL     1      50.274   6.432  17.209  0.00  0.00    +0.000 A 
ATOM     14  S   UNL     1      50.190   5.343  18.524  0.00  0.00    +0.000 S 
ATOM     15  C   UNL     1      48.871   4.516  17.832  0.00  0.00    +0.000 A 
ATOM     16  N   UNL     1      48.297   3.453  18.457  0.00  0.00    +0.000 NA
ATOM     17  C   UNL     1      47.328   2.909  17.799  0.00  0.00    +0.000 A 
ATOM     18  N   UNL     1      46.890   3.322  16.566  0.00  0.00    +0.000 N 
ATOM     19  C   UNL     1      47.445   4.383  15.890  0.00  0.00    +0.000 A 
ATOM     20  O   UNL     1      47.042   4.705  14.779  0.00  0.00    +0.000 OA
ATOM     21  C   UNL     1      48.511   5.055  16.611  0.00  0.00    +0.000 A 
ATOM     22  H   UNL     1      46.138   2.841  16.095  0.00  0.00    +0.000 HD
ENDBRANCH   9  12
ENDBRANCH   7  10
ENDBRANCH   1   7
BRANCH   4  23
ATOM     23  C   UNL     1      44.102   5.501  10.513  0.00  0.00    +0.000 C 
BRANCH  23  24
ATOM     24  N   UNL     1      44.583   4.137  10.187  0.00  0.00    +0.000 NA
BRANCH  24  25
ATOM     25  C   UNL     1      43.781   3.125  10.923  0.00  0.00    +0.000 C 
BRANCH  25  26
ATOM     26  C   UNL     1      43.964   3.116  12.453  0.00  0.00    +0.000 C 
BRANCH  26  27
ATOM     27  O   UNL     1      45.333   2.907  12.789  0.00  0.00    +0.000 OA
ATOM     28  H   UNL     1      45.388   2.861  13.759  0.00  0.00    +0.000 HD
ENDBRANCH  26  27
ENDBRANCH  25  26
ENDBRANCH  24  25
BRANCH  24  29
ATOM     29  C   UNL     1      44.453   3.908   8.725  0.00  0.00    +0.000 C 
BRANCH  29  30
ATOM     30  C   UNL     1      45.508   3.022   8.111  0.00  0.00    +0.000 A 
ATOM     31  C   UNL     1      46.464   3.516   7.219  0.00  0.00    +0.000 A 
ATOM     32  C   UNL     1      47.467   2.674   6.746  0.00  0.00    +0.000 A 
ATOM     33  C   UNL     1      47.478   1.357   7.177  0.00  0.00    +0.000 A 
ATOM     34  N   UNL     1      46.565   0.838   8.025  0.00  0.00    +0.000 NA
ATOM     35  C   UNL     1      45.607   1.680   8.473  0.00  0.00    +0.000 A 
ENDBRANCH  29  30
ENDBRANCH  24  29
ENDBRANCH  23  24
ENDBRANCH   4  23
TORSDOF 10
ENDMDL
MODEL 2
REMARK VINA RESULT:    -7.493      2.698      3.777
REMARK INTER + INTRA:         -13.331
REMARK INTER:                 -12.399
REMARK INTRA:                  -0.932
REMARK UNBOUND:                -1.677
REMARK  Name = 
REMARK  10 active torsions:
REMARK  status: ('A' for Active; 'I' for Inactive)
REMARK    1  A    between atoms: C_2  and  C_23
REMARK    2  A    between atoms: N_3  and  C_4
REMARK    3  A    between atoms: C_4  and  C_5
REMARK    4  A    between atoms: C_8  and  C_9
REMARK    5  A    between atoms: C_9  and  N_10
REMARK    6  A    between atoms: N_10  and  C_11
REMARK    7  A    between atoms: N_10  and  C_14
REMARK    8  A    between atoms: C_11  and  C_12
REMARK    9  A    between atoms: C_12  and  O_13
REMARK   10  A    between atoms: C_14  and  C_15
REMARK                            x       y       z     vdW  Elec       q    Type
REMARK                         _______ _______ _______ _____ _____    ______ ____
ROOT
ATOM      1  C   UNL     1      47.146   4.714  14.763  0.00  0.00    +0.000 A 
ATOM      2  C   UNL     1      47.170   5.969  14.159  0.00  0.00    +0.000 A 
ATOM      3  C   UNL     1      46.561   6.135  12.915  0.00  0.00    +0.000 A 
ATOM      4  C   UNL     1      45.954   5.046  12.282  0.00  0.00    +0.000 A 
ATOM      5  C   UNL     1      45.969   3.835  12.964  0.00  0.00    +0.000 A 
ATOM      6  N   UNL     1      46.550   3.646  14.174  0.00  0.00    +0.000 NA
ENDROOT
BRANCH   1   7
ATOM      7  C   UNL     1      47.880   4.477  16.067  0.00  0.00    +0.000 C 
BRANCH   7  10
ATOM      8  O   UNL     1      49.833   6.169  17.202  0.00  0.00    +0.000 OA
ATOM      9  C   UNL     1      48.667   6.279  17.558  0.00  0.00    +0.000 C 
ATOM     10  N   UNL     1      47.646   5.549  17.009  0.00  0.00    +0.000 N 
ATOM     11  H   UNL     1      46.697   5.673  17.333  0.00  0.00    +0.000 HD
BRANCH   9  12
ATOM     12  C   UNL     1      48.255   7.245  18.583  0.00  0.00    +0.000 A 
ATOM     13  C   UNL     1      48.055   6.852  19.898  0.00  0.00    +0.000 A 
ATOM     14  S   UNL     1      47.640   8.148  20.933  0.00  0.00    +0.000 S 
ATOM     15  C   UNL     1      47.661   9.262  19.643  0.00  0.00    +0.000 A 
ATOM     16  N   UNL     1      47.389  10.580  19.844  0.00  0.00    +0.000 NA
ATOM     17  C   UNL     1      47.413  11.296  18.769  0.00  0.00    +0.000 A 
ATOM     18  N   UNL     1      47.670  10.813  17.511  0.00  0.00    +0.000 N 
ATOM     19  C   UNL     1      47.938   9.488  17.257  0.00  0.00    +0.000 A 
ATOM     20  O   UNL     1      48.137   9.091  16.115  0.00  0.00    +0.000 OA
ATOM     21  C   UNL     1      47.966   8.650  18.442  0.00  0.00    +0.000 A 
ATOM     22  H   UNL     1      47.655  11.424  16.708  0.00  0.00    +0.000 HD
ENDBRANCH   9  12
ENDBRANCH   7  10
ENDBRANCH   1   7
BRANCH   4  23
ATOM     23  C   UNL     1      45.431   5.155  10.869  0.00  0.00    +0.000 C 
BRANCH  23  24
ATOM     24  N   UNL     1      44.535   4.063  10.417  0.00  0.00    +0.000 NA
BRANCH  24  25
ATOM     25  C   UNL     1      43.165   4.273  10.955  0.00  0.00    +0.000 C 
BRANCH  25  26
ATOM     26  C   UNL     1      42.857   5.700  11.449  0.00  0.00    +0.000 C 
BRANCH  26  27
ATOM     27  O   UNL     1      42.528   5.686  12.836  0.00  0.00    +0.000 OA
ATOM     28  H   UNL     1      42.917   4.880  13.217  0.00  0.00    +0.000 HD
ENDBRANCH  26  27
ENDBRANCH  25  26
ENDBRANCH  24  25
BRANCH  24  29
ATOM     29  C   UNL     1      44.491   4.050   8.932  0.00  0.00    +0.000 C 
BRANCH  29  30
ATOM     30  C   UNL     1      45.465   3.113   8.262  0.00  0.00    +0.000 A 
ATOM     31  C   UNL     1      46.376   3.556   7.299  0.00  0.00    +0.000 A 
ATOM     32  C   UNL     1      47.310   2.667   6.772  0.00  0.00    +0.000 A 
ATOM     33  C   UNL     1      47.299   1.357   7.224  0.00  0.00    +0.000 A 
ATOM     34  N   UNL     1      46.427   0.887   8.140  0.00  0.00    +0.000 NA
ATOM     35  C   UNL     1      45.536   1.774   8.639  0.00  0.00    +0.000 A 
ENDBRANCH  29  30
ENDBRANCH  24  29
ENDBRANCH  23  24
ENDBRANCH   4  23
TORSDOF 10
ENDMDL
MODEL 3
REMARK VINA RESULT:    -7.428      1.920      2.260
REMARK INTER + INTRA:         -13.230
REMARK INTER:                 -12.096
REMARK INTRA:                  -1.134
REMARK UNBOUND:                -1.677
REMARK  Name = 
REMARK  10 active torsions:
REMARK  status: ('A' for Active; 'I' for Inactive)
REMARK    1  A    between atoms: C_2  and  C_23
REMARK    2  A    between atoms: N_3  and  C_4
REMARK    3  A    between atoms: C_4  and  C_5
REMARK    4  A    between atoms: C_8  and  C_9
REMARK    5  A    between atoms: C_9  and  N_10
REMARK    6  A    between atoms: N_10  and  C_11
REMARK    7  A    between atoms: N_10  and  C_14
REMARK    8  A    between atoms: C_11  and  C_12
REMARK    9  A    between atoms: C_12  and  O_13
REMARK   10  A    between atoms: C_14  and  C_15
REMARK                            x       y       z     vdW  Elec       q    Type
REMARK                         _______ _______ _______ _____ _____    ______ ____
ROOT
ATOM      1  C   UNL     1      47.630   7.257  14.057  0.00  0.00    +0.000 A 
ATOM      2  C   UNL     1      46.884   8.133  13.273  0.00  0.00    +0.000 A 
ATOM      3  C   UNL     1      46.243   7.645  12.134  0.00  0.00    +0.000 A 
ATOM      4  C   UNL     1      46.369   6.298  11.782  0.00  0.00    +0.000 A 
ATOM      5  C   UNL     1      47.124   5.496  12.628  0.00  0.00    +0.000 A 
ATOM      6  N   UNL     1      47.755   5.942  13.743  0.00  0.00    +0.000 NA
ENDROOT
BRANCH   1   7
ATOM      7  C   UNL     1      48.416   7.772  15.245  0.00  0.00    +0.000 C 
BRANCH   7  10
ATOM      8  O   UNL     1      48.434   6.442  17.734  0.00  0.00    +0.000 OA
ATOM      9  C   UNL     1      49.355   6.256  16.950  0.00  0.00    +0.000 C 
ATOM     10  N   UNL     1      49.391   6.804  15.695  0.00  0.00    +0.000 N 
ATOM     11  H   UNL     1      50.172   6.622  15.081  0.00  0.00    +0.000 HD
BRANCH   9  12
ATOM     12  C   UNL     1      50.490   5.384  17.277  0.00  0.00    +0.000 A 
ATOM     13  C   UNL     1      51.714   5.913  17.656  0.00  0.00    +0.000 A 
ATOM     14  S   UNL     1      52.872   4.718  18.050  0.00  0.00    +0.000 S 
ATOM     15  C   UNL     1      51.788   3.459  17.672  0.00  0.00    +0.000 A 
ATOM     16  N   UNL     1      52.151   2.153  17.794  0.00  0.00    +0.000 NA
ATOM     17  C   UNL     1      51.236   1.313  17.442  0.00  0.00    +0.000 A 
ATOM     18  N   UNL     1      49.996   1.658  16.966  0.00  0.00    +0.000 N 
ATOM     19  C   UNL     1      49.588   2.962  16.814  0.00  0.00    +0.000 A 
ATOM     20  O   UNL     1      48.482   3.229  16.361  0.00  0.00    +0.000 OA
ATOM     21  C   UNL     1      50.568   3.945  17.239  0.00  0.00    +0.000 A 
ATOM     22  H   UNL     1      49.332   0.950  16.690  0.00  0.00    +0.000 HD
ENDBRANCH   9  12
ENDBRANCH   7  10
ENDBRANCH   1   7
BRANCH   4  23
ATOM     23  C   UNL     1      45.824   5.778  10.473  0.00  0.00    +0.000 C 
BRANCH  23  24
ATOM     24  N   UNL     1      45.045   4.519  10.543  0.00  0.00    +0.000 NA
BRANCH  24  25
ATOM     25  C   UNL     1      43.871   4.696  11.438  0.00  0.00    +0.000 C 
BRANCH  25  26
ATOM     26  C   UNL     1      43.550   3.503  12.359  0.00  0.00    +0.000 C 
BRANCH  26  27
ATOM     27  O   UNL     1      42.873   2.482  11.633  0.00  0.00    +0.000 OA
ATOM     28  H   UNL     1      41.924   2.693  11.654  0.00  0.00    +0.000 HD
ENDBRANCH  26  27
ENDBRANCH  25  26
ENDBRANCH  24  25
BRANCH  24  29
ATOM     29  C   UNL     1      44.580   4.154   9.180  0.00  0.00    +0.000 C 
BRANCH  29  30
ATOM     30  C   UNL     1      45.471   3.200   8.425  0.00  0.00    +0.000 A 
ATOM     31  C   UNL     1      46.342   3.636   7.422  0.00  0.00    +0.000 A 
ATOM     32  C   UNL     1      47.204   2.727   6.813  0.00  0.00    +0.000 A 
ATOM     33  C   UNL     1      47.164   1.405   7.225  0.00  0.00    +0.000 A 
ATOM     34  N   UNL     1      46.329   0.942   8.179  0.00  0.00    +0.000 NA
ATOM     35  C   UNL     1      45.508   1.848   8.757  0.00  0.00    +0.000 A 
ENDBRANCH  29  30
ENDBRANCH  24  29
ENDBRANCH  23  24
ENDBRANCH   4  23
TORSDOF 10
ENDMDL
MODEL 4
REMARK VINA RESULT:    -7.293      1.888      2.433
REMARK INTER + INTRA:         -13.021
REMARK INTER:                 -11.826
REMARK INTRA:                  -1.195
REMARK UNBOUND:                -1.677
REMARK  Name = 
REMARK  10 active torsions:
REMARK  status: ('A' for Active; 'I' for Inactive)
REMARK    1  A    between atoms: C_2  and  C_23
REMARK    2  A    between atoms: N_3  and  C_4
REMARK    3  A    between atoms: C_4  and  C_5
REMARK    4  A    between atoms: C_8  and  C_9
REMARK    5  A    between atoms: C_9  and  N_10
REMARK    6  A    between atoms: N_10  and  C_11
REMARK    7  A    between atoms: N_10  and  C_14
REMARK    8  A    between atoms: C_11  and  C_12
REMARK    9  A    between atoms: C_12  and  O_13
REMARK   10  A    between atoms: C_14  and  C_15
REMARK                            x       y       z     vdW  Elec       q    Type
REMARK                         _______ _______ _______ _____ _____    ______ ____
ROOT
ATOM      1  C   UNL     1      47.420   7.766  13.545  0.00  0.00    +0.000 A 
ATOM      2  C   UNL     1      47.801   6.644  12.814  0.00  0.00    +0.000 A 
ATOM      3  C   UNL     1      46.942   6.151  11.831  0.00  0.00    +0.000 A 
ATOM      4  C   UNL     1      45.710   6.770  11.604  0.00  0.00    +0.000 A 
ATOM      5  C   UNL     1      45.418   7.890  12.374  0.00  0.00    +0.000 A 
ATOM      6  N   UNL     1      46.234   8.393  13.332  0.00  0.00    +0.000 NA
ENDROOT
BRANCH   1   7
ATOM      7  C   UNL     1      48.284   8.270  14.683  0.00  0.00    +0.000 C 
BRANCH   7  10
ATOM      8  O   UNL     1      50.400   6.626  15.570  0.00  0.00    +0.000 OA
ATOM      9  C   UNL     1      49.313   6.556  16.129  0.00  0.00    +0.000 C 
ATOM     10  N   UNL     1      48.255   7.365  15.811  0.00  0.00    +0.000 N 
ATOM     11  H   UNL     1      47.376   7.273  16.299  0.00  0.00    +0.000 HD
BRANCH   9  12
ATOM     12  C   UNL     1      49.064   5.618  17.231  0.00  0.00    +0.000 A 
ATOM     13  C   UNL     1      48.556   4.350  16.991  0.00  0.00    +0.000 A 
ATOM     14  S   UNL     1      48.404   3.406  18.407  0.00  0.00    +0.000 S 
ATOM     15  C   UNL     1      48.961   4.683  19.389  0.00  0.00    +0.000 A 
ATOM     16  N   UNL     1      49.077   4.538  20.737  0.00  0.00    +0.000 NA
ATOM     17  C   UNL     1      49.483   5.600  21.351  0.00  0.00    +0.000 A 
ATOM     18  N   UNL     1      49.768   6.797  20.743  0.00  0.00    +0.000 N 
ATOM     19  C   UNL     1      49.655   6.994  19.387  0.00  0.00    +0.000 A 
ATOM     20  O   UNL     1      49.894   8.085  18.885  0.00  0.00    +0.000 OA
ATOM     21  C   UNL     1      49.244   5.814  18.647  0.00  0.00    +0.000 A 
ATOM     22  H   UNL     1      50.063   7.595  21.284  0.00  0.00    +0.000 HD
ENDBRANCH   9  12
ENDBRANCH   7  10
ENDBRANCH   1   7
BRANCH   4  23
ATOM     23  C   UNL     1      44.693   6.166  10.665  0.00  0.00    +0.000 C 
BRANCH  23  24
ATOM     24  N   UNL     1      44.658   4.685  10.603  0.00  0.00    +0.000 NA
BRANCH  24  25
ATOM     25  C   UNL     1      43.693   4.157  11.605  0.00  0.00    +0.000 C 
BRANCH  25  26
ATOM     26  C   UNL     1      42.535   5.104  11.975  0.00  0.00    +0.000 C 
BRANCH  26  27
ATOM     27  O   UNL     1      42.569   5.410  13.367  0.00  0.00    +0.000 OA
ATOM     28  H   UNL     1      43.121   6.204  13.474  0.00  0.00    +0.000 HD
ENDBRANCH  26  27
ENDBRANCH  25  26
ENDBRANCH  24  25
BRANCH  24  29
ATOM     29  C   UNL     1      44.244   4.261   9.242  0.00  0.00    +0.000 C 
BRANCH  29  30
ATOM     30  C   UNL     1      45.199   3.335   8.532  0.00  0.00    +0.000 A 
ATOM     31  C   UNL     1      46.098   3.797   7.566  0.00  0.00    +0.000 A 
ATOM     32  C   UNL     1      47.017   2.916   7.000  0.00  0.00    +0.000 A 
ATOM     33  C   UNL     1      47.004   1.594   7.418  0.00  0.00    +0.000 A 
ATOM     34  N   UNL     1      46.143   1.107   8.336  0.00  0.00    +0.000 NA
ATOM     35  C   UNL     1      45.267   1.986   8.872  0.00  0.00    +0.000 A 
ENDBRANCH  29  30
ENDBRANCH  24  29
ENDBRANCH  23  24
ENDBRANCH   4  23
TORSDOF 10
ENDMDL
MODEL 5
REMARK VINA RESULT:    -7.211      2.801      3.545
REMARK INTER + INTRA:         -12.893
REMARK INTER:                 -12.177
REMARK INTRA:                  -0.716
REMARK UNBOUND:                -1.677
REMARK  Name = 
REMARK  10 active torsions:
REMARK  status: ('A' for Active; 'I' for Inactive)
REMARK    1  A    between atoms: C_2  and  C_23
REMARK    2  A    between atoms: N_3  and  C_4
REMARK    3  A    between atoms: C_4  and  C_5
REMARK    4  A    between atoms: C_8  and  C_9
REMARK    5  A    between atoms: C_9  and  N_10
REMARK    6  A    between atoms: N_10  and  C_11
REMARK    7  A    between atoms: N_10  and  C_14
REMARK    8  A    between atoms: C_11  and  C_12
REMARK    9  A    between atoms: C_12  and  O_13
REMARK   10  A    between atoms: C_14  and  C_15
REMARK                            x       y       z     vdW  Elec       q    Type
REMARK                         _______ _______ _______ _____ _____    ______ ____
ROOT
ATOM      1  C   UNL     1      48.025   6.001  15.082  0.00  0.00    +0.000 A 
ATOM      2  C   UNL     1      47.766   6.595  13.849  0.00  0.00    +0.000 A 
ATOM      3  C   UNL     1      46.980   5.912  12.920  0.00  0.00    +0.000 A 
ATOM      4  C   UNL     1      46.481   4.643  13.224  0.00  0.00    +0.000 A 
ATOM      5  C   UNL     1      46.781   4.134  14.481  0.00  0.00    +0.000 A 
ATOM      6  N   UNL     1      47.538   4.776  15.405  0.00  0.00    +0.000 NA
ENDROOT
BRANCH   1   7
ATOM      7  C   UNL     1      48.952   6.672  16.075  0.00  0.00    +0.000 C 
BRANCH   7  10
ATOM      8  O   UNL     1      49.344   5.880  18.755  0.00  0.00    +0.000 OA
ATOM      9  C   UNL     1      50.116   5.478  17.895  0.00  0.00    +0.000 C 
ATOM     10  N   UNL     1      49.959   5.755  16.562  0.00  0.00    +0.000 N 
ATOM     11  H   UNL     1      50.621   5.403  15.885  0.00  0.00    +0.000 HD
BRANCH   9  12
ATOM     12  C   UNL     1      51.263   4.621  18.217  0.00  0.00    +0.000 A 
ATOM     13  C   UNL     1      52.380   5.130  18.863  0.00  0.00    +0.000 A 
ATOM     14  S   UNL     1      53.565   3.944  19.194  0.00  0.00    +0.000 S 
ATOM     15  C   UNL     1      52.646   2.728  18.433  0.00  0.00    +0.000 A 
ATOM     16  N   UNL     1      53.093   1.444  18.363  0.00  0.00    +0.000 NA
ATOM     17  C   UNL     1      52.303   0.641  17.731  0.00  0.00    +0.000 A 
ATOM     18  N   UNL     1      51.115   1.006  17.151  0.00  0.00    +0.000 N 
ATOM     19  C   UNL     1      50.628   2.291  17.185  0.00  0.00    +0.000 A 
ATOM     20  O   UNL     1      49.574   2.583  16.632  0.00  0.00    +0.000 OA
ATOM     21  C   UNL     1      51.460   3.223  17.924  0.00  0.00    +0.000 A 
ATOM     22  H   UNL     1      50.552   0.332  16.654  0.00  0.00    +0.000 HD
ENDBRANCH   9  12
ENDBRANCH   7  10
ENDBRANCH   1   7
BRANCH   4  23
ATOM     23  C   UNL     1      45.767   3.814  12.182  0.00  0.00    +0.000 C 
BRANCH  23  24
ATOM     24  N   UNL     1      44.299   3.682  12.344  0.00  0.00    +0.000 NA
BRANCH  24  25
ATOM     25  C   UNL     1      43.712   4.989  12.742  0.00  0.00    +0.000 C 
BRANCH  25  26
ATOM     26  C   UNL     1      42.544   5.487  11.869  0.00  0.00    +0.000 C 
BRANCH  26  27
ATOM     27  O   UNL     1      42.908   6.683  11.185  0.00  0.00    +0.000 OA
ATOM     28  H   UNL     1      42.145   6.950  10.644  0.00  0.00    +0.000 HD
ENDBRANCH  26  27
ENDBRANCH  25  26
ENDBRANCH  24  25
BRANCH  24  29
ATOM     29  C   UNL     1      43.702   3.239  11.058  0.00  0.00    +0.000 C 
BRANCH  29  30
ATOM     30  C   UNL     1      44.625   3.281   9.866  0.00  0.00    +0.000 A 
ATOM     31  C   UNL     1      45.121   2.117   9.272  0.00  0.00    +0.000 A 
ATOM     32  C   UNL     1      45.902   2.208   8.123  0.00  0.00    +0.000 A 
ATOM     33  C   UNL     1      46.167   3.465   7.605  0.00  0.00    +0.000 A 
ATOM     34  N   UNL     1      45.720   4.613   8.157  0.00  0.00    +0.000 NA
ATOM     35  C   UNL     1      44.959   4.494   9.268  0.00  0.00    +0.000 A 
ENDBRANCH  29  30
ENDBRANCH  24  29
ENDBRANCH  23  24
ENDBRANCH   4  23
TORSDOF 10
ENDMDL
MODEL 6
REMARK VINA RESULT:    -7.017      1.794      2.085
REMARK INTER + INTRA:         -12.591
REMARK INTER:                 -11.572
REMARK INTRA:                  -1.020
REMARK UNBOUND:                -1.677
REMARK  Name = 
REMARK  10 active torsions:
REMARK  status: ('A' for Active; 'I' for Inactive)
REMARK    1  A    between atoms: C_2  and  C_23
REMARK    2  A    between atoms: N_3  and  C_4
REMARK    3  A    between atoms: C_4  and  C_5
REMARK    4  A    between atoms: C_8  and  C_9
REMARK    5  A    between atoms: C_9  and  N_10
REMARK    6  A    between atoms: N_10  and  C_11
REMARK    7  A    between atoms: N_10  and  C_14
REMARK    8  A    between atoms: C_11  and  C_12
REMARK    9  A    between atoms: C_12  and  O_13
REMARK   10  A    between atoms: C_14  and  C_15
REMARK                            x       y       z     vdW  Elec       q    Type
REMARK                         _______ _______ _______ _____ _____    ______ ____
ROOT
ATOM      1  C   UNL     1      47.316   7.941  13.469  0.00  0.00    +0.000 A 
ATOM      2  C   UNL     1      46.391   8.589  12.654  0.00  0.00    +0.000 A 
ATOM      3  C   UNL     1      45.777   7.874  11.624  0.00  0.00    +0.000 A 
ATOM      4  C   UNL     1      46.106   6.533  11.410  0.00  0.00    +0.000 A 
ATOM      5  C   UNL     1      47.031   5.966  12.279  0.00  0.00    +0.000 A 
ATOM      6  N   UNL     1      47.641   6.635  13.289  0.00  0.00    +0.000 NA
ENDROOT
BRANCH   1   7
ATOM      7  C   UNL     1      48.070   8.711  14.533  0.00  0.00    +0.000 C 
BRANCH   7  10
ATOM      8  O   UNL     1      49.170   9.639  16.961  0.00  0.00    +0.000 OA
ATOM      9  C   UNL     1      48.611   8.550  16.935  0.00  0.00    +0.000 C 
ATOM     10  N   UNL     1      47.989   8.056  15.820  0.00  0.00    +0.000 N 
ATOM     11  H   UNL     1      47.539   7.152  15.844  0.00  0.00    +0.000 HD
BRANCH   9  12
ATOM     12  C   UNL     1      48.521   7.694  18.124  0.00  0.00    +0.000 A 
ATOM     13  C   UNL     1      48.209   8.224  19.367  0.00  0.00    +0.000 A 
ATOM     14  S   UNL     1      48.096   7.041  20.595  0.00  0.00    +0.000 S 
ATOM     15  C   UNL     1      48.516   5.793  19.513  0.00  0.00    +0.000 A 
ATOM     16  N   UNL     1      48.602   4.499  19.926  0.00  0.00    +0.000 NA
ATOM     17  C   UNL     1      48.959   3.670  19.002  0.00  0.00    +0.000 A 
ATOM     18  N   UNL     1      49.253   4.018  17.708  0.00  0.00    +0.000 N 
ATOM     19  C   UNL     1      49.192   5.312  17.247  0.00  0.00    +0.000 A 
ATOM     20  O   UNL     1      49.488   5.586  16.090  0.00  0.00    +0.000 OA
ATOM     21  C   UNL     1      48.751   6.276  18.239  0.00  0.00    +0.000 A 
ATOM     22  H   UNL     1      49.545   3.323  17.038  0.00  0.00    +0.000 HD
ENDBRANCH   9  12
ENDBRANCH   7  10
ENDBRANCH   1   7
BRANCH   4  23
ATOM     23  C   UNL     1      45.583   5.781  10.209  0.00  0.00    +0.000 C 
BRANCH  23  24
ATOM     24  N   UNL     1      44.667   4.650  10.492  0.00  0.00    +0.000 NA
BRANCH  24  25
ATOM     25  C   UNL     1      43.509   5.123  11.296  0.00  0.00    +0.000 C 
BRANCH  25  26
ATOM     26  C   UNL     1      43.411   4.549  12.723  0.00  0.00    +0.000 C 
BRANCH  26  27
ATOM     27  O   UNL     1      42.841   5.509  13.608  0.00  0.00    +0.000 OA
ATOM     28  H   UNL     1      43.577   5.969  14.048  0.00  0.00    +0.000 HD
ENDBRANCH  26  27
ENDBRANCH  25  26
ENDBRANCH  24  25
BRANCH  24  29
ATOM     29  C   UNL     1      44.183   4.079   9.210  0.00  0.00    +0.000 C 
BRANCH  29  30
ATOM     30  C   UNL     1      45.169   3.208   8.473  0.00  0.00    +0.000 A 
ATOM     31  C   UNL     1      45.997   3.714   7.467  0.00  0.00    +0.000 A 
ATOM     32  C   UNL     1      46.949   2.887   6.876  0.00  0.00    +0.000 A 
ATOM     33  C   UNL     1      47.041   1.574   7.310  0.00  0.00    +0.000 A 
ATOM     34  N   UNL     1      46.251   1.045   8.267  0.00  0.00    +0.000 NA
ATOM     35  C   UNL     1      45.340   1.872   8.827  0.00  0.00    +0.000 A 
ENDBRANCH  29  30
ENDBRANCH  24  29
ENDBRANCH  23  24
ENDBRANCH   4  23
TORSDOF 10
ENDMDL
MODEL 7
REMARK VINA RESULT:    -6.656      2.204      3.683
REMARK INTER + INTRA:         -12.031
REMARK INTER:                 -11.244
REMARK INTRA:                  -0.786
REMARK UNBOUND:                -1.677
REMARK  Name = 
REMARK  10 active torsions:
REMARK  status: ('A' for Active; 'I' for Inactive)
REMARK    1  A    between atoms: C_2  and  C_23
REMARK    2  A    between atoms: N_3  and  C_4
REMARK    3  A    between atoms: C_4  and  C_5
REMARK    4  A    between atoms: C_8  and  C_9
REMARK    5  A    between atoms: C_9  and  N_10
REMARK    6  A    between atoms: N_10  and  C_11
REMARK    7  A    between atoms: N_10  and  C_14
REMARK    8  A    between atoms: C_11  and  C_12
REMARK    9  A    between atoms: C_12  and  O_13
REMARK   10  A    between atoms: C_14  and  C_15
REMARK                            x       y       z     vdW  Elec       q    Type
REMARK                         _______ _______ _______ _____ _____    ______ ____
ROOT
ATOM      1  C   UNL     1      47.164   4.738  14.835  0.00  0.00    +0.000 A 
ATOM      2  C   UNL     1      47.217   6.046  14.362  0.00  0.00    +0.000 A 
ATOM      3  C   UNL     1      46.699   6.332  13.098  0.00  0.00    +0.000 A 
ATOM      4  C   UNL     1      46.155   5.309  12.317  0.00  0.00    +0.000 A 
ATOM      5  C   UNL     1      46.135   4.036  12.874  0.00  0.00    +0.000 A 
ATOM      6  N   UNL     1      46.627   3.730  14.100  0.00  0.00    +0.000 NA
ENDROOT
BRANCH   1   7
ATOM      7  C   UNL     1      47.802   4.376  16.160  0.00  0.00    +0.000 C 
BRANCH   7  10
ATOM      8  O   UNL     1      50.524   4.525  16.891  0.00  0.00    +0.000 OA
ATOM      9  C   UNL     1      49.787   5.471  17.136  0.00  0.00    +0.000 C 
ATOM     10  N   UNL     1      48.472   5.512  16.754  0.00  0.00    +0.000 N 
ATOM     11  H   UNL     1      47.899   6.314  16.977  0.00  0.00    +0.000 HD
BRANCH   9  12
ATOM     12  C   UNL     1      50.267   6.673  17.828  0.00  0.00    +0.000 A 
ATOM     13  C   UNL     1      50.169   6.793  19.207  0.00  0.00    +0.000 A 
ATOM     14  S   UNL     1      50.846   8.243  19.806  0.00  0.00    +0.000 S 
ATOM     15  C   UNL     1      51.238   8.778  18.237  0.00  0.00    +0.000 A 
ATOM     16  N   UNL     1      51.854   9.974  18.032  0.00  0.00    +0.000 NA
ATOM     17  C   UNL     1      52.061  10.258  16.788  0.00  0.00    +0.000 A 
ATOM     18  N   UNL     1      51.694   9.464  15.732  0.00  0.00    +0.000 N 
ATOM     19  C   UNL     1      51.061   8.254  15.888  0.00  0.00    +0.000 A 
ATOM     20  O   UNL     1      50.726   7.585  14.918  0.00  0.00    +0.000 OA
ATOM     21  C   UNL     1      50.846   7.870  17.272  0.00  0.00    +0.000 A 
ATOM     22  H   UNL     1      51.868   9.753  14.781  0.00  0.00    +0.000 HD
ENDBRANCH   9  12
ENDBRANCH   7  10
ENDBRANCH   1   7
BRANCH   4  23
ATOM     23  C   UNL     1      45.737   5.555  10.887  0.00  0.00    +0.000 C 
BRANCH  23  24
ATOM     24  N   UNL     1      45.006   4.451  10.219  0.00  0.00    +0.000 NA
BRANCH  24  25
ATOM     25  C   UNL     1      43.548   4.574  10.484  0.00  0.00    +0.000 C 
BRANCH  25  26
ATOM     26  C   UNL     1      43.044   3.881  11.764  0.00  0.00    +0.000 C 
BRANCH  26  27
ATOM     27  O   UNL     1      42.796   2.499  11.517  0.00  0.00    +0.000 OA
ATOM     28  H   UNL     1      41.834   2.364  11.573  0.00  0.00    +0.000 HD
ENDBRANCH  26  27
ENDBRANCH  25  26
ENDBRANCH  24  25
BRANCH  24  29
ATOM     29  C   UNL     1      45.253   4.515   8.756  0.00  0.00    +0.000 C 
BRANCH  29  30
ATOM     30  C   UNL     1      45.862   3.277   8.147  0.00  0.00    +0.000 A 
ATOM     31  C   UNL     1      46.750   3.341   7.069  0.00  0.00    +0.000 A 
ATOM     32  C   UNL     1      47.349   2.176   6.597  0.00  0.00    +0.000 A 
ATOM     33  C   UNL     1      47.036   0.978   7.218  0.00  0.00    +0.000 A 
ATOM     34  N   UNL     1      46.173   0.871   8.251  0.00  0.00    +0.000 NA
ATOM     35  C   UNL     1      45.612   2.020   8.691  0.00  0.00    +0.000 A 
ENDBRANCH  29  30
ENDBRANCH  24  29
ENDBRANCH  23  24
ENDBRANCH   4  23
TORSDOF 10
ENDMDL
MODEL 8
REMARK VINA RESULT:    -6.560      3.095      4.166
REMARK INTER + INTRA:         -11.880
REMARK INTER:                 -10.985
REMARK INTRA:                  -0.895
REMARK UNBOUND:                -1.677
REMARK  Name = 
REMARK  10 active torsions:
REMARK  status: ('A' for Active; 'I' for Inactive)
REMARK    1  A    between atoms: C_2  and  C_23
REMARK    2  A    between atoms: N_3  and  C_4
REMARK    3  A    between atoms: C_4  and  C_5
REMARK    4  A    between atoms: C_8  and  C_9
REMARK    5  A    between atoms: C_9  and  N_10
REMARK    6  A    between atoms: N_10  and  C_11
REMARK    7  A    between atoms: N_10  and  C_14
REMARK    8  A    between atoms: C_11  and  C_12
REMARK    9  A    between atoms: C_12  and  O_13
REMARK   10  A    between atoms: C_14  and  C_15
REMARK                            x       y       z     vdW  Elec       q    Type
REMARK                         _______ _______ _______ _____ _____    ______ ____
ROOT
ATOM      1  C   UNL     1      47.807   5.408  15.230  0.00  0.00    +0.000 A 
ATOM      2  C   UNL     1      47.084   4.246  14.975  0.00  0.00    +0.000 A 
ATOM      3  C   UNL     1      46.426   4.111  13.751  0.00  0.00    +0.000 A 
ATOM      4  C   UNL     1      46.482   5.142  12.809  0.00  0.00    +0.000 A 
ATOM      5  C   UNL     1      47.235   6.260  13.145  0.00  0.00    +0.000 A 
ATOM      6  N   UNL     1      47.888   6.417  14.324  0.00  0.00    +0.000 NA
ENDROOT
BRANCH   1   7
ATOM      7  C   UNL     1      48.453   5.627  16.582  0.00  0.00    +0.000 C 
BRANCH   7  10
ATOM      8  O   UNL     1      48.544   3.198  18.014  0.00  0.00    +0.000 OA
ATOM      9  C   UNL     1      49.575   3.644  17.530  0.00  0.00    +0.000 C 
ATOM     10  N   UNL     1      49.610   4.778  16.761  0.00  0.00    +0.000 N 
ATOM     11  H   UNL     1      50.484   5.111  16.380  0.00  0.00    +0.000 HD
BRANCH   9  12
ATOM     12  C   UNL     1      50.869   2.971  17.697  0.00  0.00    +0.000 A 
ATOM     13  C   UNL     1      51.048   1.655  17.299  0.00  0.00    +0.000 A 
ATOM     14  S   UNL     1      52.647   1.094  17.529  0.00  0.00    +0.000 S 
ATOM     15  C   UNL     1      53.130   2.575  18.219  0.00  0.00    +0.000 A 
ATOM     16  N   UNL     1      54.408   2.773  18.643  0.00  0.00    +0.000 NA
ATOM     17  C   UNL     1      54.618   3.934  19.171  0.00  0.00    +0.000 A 
ATOM     18  N   UNL     1      53.665   4.908  19.327  0.00  0.00    +0.000 N 
ATOM     19  C   UNL     1      52.360   4.750  18.924  0.00  0.00    +0.000 A 
ATOM     20  O   UNL     1      51.531   5.635  19.105  0.00  0.00    +0.000 OA
ATOM     21  C   UNL     1      52.085   3.477  18.284  0.00  0.00    +0.000 A 
ATOM     22  H   UNL     1      53.890   5.788  19.765  0.00  0.00    +0.000 HD
ENDBRANCH   9  12
ENDBRANCH   7  10
ENDBRANCH   1   7
BRANCH   4  23
ATOM     23  C   UNL     1      45.651   5.095  11.549  0.00  0.00    +0.000 C 
BRANCH  23  24
ATOM     24  N   UNL     1      44.444   4.233  11.593  0.00  0.00    +0.000 NA
BRANCH  24  25
ATOM     25  C   UNL     1      43.385   4.883  12.409  0.00  0.00    +0.000 C 
BRANCH  25  26
ATOM     26  C   UNL     1      42.348   5.706  11.621  0.00  0.00    +0.000 C 
BRANCH  26  27
ATOM     27  O   UNL     1      42.859   7.004  11.332  0.00  0.00    +0.000 OA
ATOM     28  H   UNL     1      42.096   7.592  11.200  0.00  0.00    +0.000 HD
ENDBRANCH  26  27
ENDBRANCH  25  26
ENDBRANCH  24  25
BRANCH  24  29
ATOM     29  C   UNL     1      43.946   4.019  10.210  0.00  0.00    +0.000 C 
BRANCH  29  30
ATOM     30  C   UNL     1      44.967   3.510   9.224  0.00  0.00    +0.000 A 
ATOM     31  C   UNL     1      45.336   2.163   9.169  0.00  0.00    +0.000 A 
ATOM     32  C   UNL     1      46.220   1.729   8.185  0.00  0.00    +0.000 A 
ATOM     33  C   UNL     1      46.713   2.661   7.286  0.00  0.00    +0.000 A 
ATOM     34  N   UNL     1      46.392   3.972   7.314  0.00  0.00    +0.000 NA
ATOM     35  C   UNL     1      45.527   4.363   8.276  0.00  0.00    +0.000 A 
ENDBRANCH  29  30
ENDBRANCH  24  29
ENDBRANCH  23  24
ENDBRANCH   4  23
TORSDOF 10
ENDMDL
MODEL 9
REMARK VINA RESULT:    -6.397      3.495      5.148
REMARK INTER + INTRA:         -11.626
REMARK INTER:                 -10.280
REMARK INTRA:                  -1.346
REMARK UNBOUND:                -1.677
REMARK  Name = 
REMARK  10 active torsions:
REMARK  status: ('A' for Active; 'I' for Inactive)
REMARK    1  A    between atoms: C_2  and  C_23
REMARK    2  A    between atoms: N_3  and  C_4
REMARK    3  A    between atoms: C_4  and  C_5
REMARK    4  A    between atoms: C_8  and  C_9
REMARK    5  A    between atoms: C_9  and  N_10
REMARK    6  A    between atoms: N_10  and  C_11
REMARK    7  A    between atoms: N_10  and  C_14
REMARK    8  A    between atoms: C_11  and  C_12
REMARK    9  A    between atoms: C_12  and  O_13
REMARK   10  A    between atoms: C_14  and  C_15
REMARK                            x       y       z     vdW  Elec       q    Type
REMARK                         _______ _______ _______ _____ _____    ______ ____
ROOT
ATOM      1  C   UNL     1      48.093   4.979  15.924  0.00  0.00    +0.000 A 
ATOM      2  C   UNL     1      47.117   4.362  15.144  0.00  0.00    +0.000 A 
ATOM      3  C   UNL     1      46.760   4.940  13.925  0.00  0.00    +0.000 A 
ATOM      4  C   UNL     1      47.364   6.130  13.510  0.00  0.00    +0.000 A 
ATOM      5  C   UNL     1      48.334   6.667  14.348  0.00  0.00    +0.000 A 
ATOM      6  N   UNL     1      48.704   6.127  15.535  0.00  0.00    +0.000 NA
ENDROOT
BRANCH   1   7
ATOM      7  C   UNL     1      48.435   4.432  17.295  0.00  0.00    +0.000 C 
BRANCH   7  10
ATOM      8  O   UNL     1      50.164   4.637  19.516  0.00  0.00    +0.000 OA
ATOM      9  C   UNL     1      50.594   4.184  18.463  0.00  0.00    +0.000 C 
ATOM     10  N   UNL     1      49.808   3.984  17.359  0.00  0.00    +0.000 N 
ATOM     11  H   UNL     1      50.206   3.608  16.510  0.00  0.00    +0.000 HD
BRANCH   9  12
ATOM     12  C   UNL     1      51.994   3.773  18.308  0.00  0.00    +0.000 A 
ATOM     13  C   UNL     1      53.033   4.657  18.557  0.00  0.00    +0.000 A 
ATOM     14  S   UNL     1      54.579   3.950  18.375  0.00  0.00    +0.000 S 
ATOM     15  C   UNL     1      53.905   2.458  17.904  0.00  0.00    +0.000 A 
ATOM     16  N   UNL     1      54.694   1.392  17.597  0.00  0.00    +0.000 NA
ATOM     17  C   UNL     1      54.043   0.338  17.228  0.00  0.00    +0.000 A 
ATOM     18  N   UNL     1      52.677   0.258  17.123  0.00  0.00    +0.000 N 
ATOM     19  C   UNL     1      51.840   1.310  17.411  0.00  0.00    +0.000 A 
ATOM     20  O   UNL     1      50.627   1.207  17.279  0.00  0.00    +0.000 OA
ATOM     21  C   UNL     1      52.524   2.504  17.873  0.00  0.00    +0.000 A 
ATOM     22  H   UNL     1      52.231  -0.591  16.810  0.00  0.00    +0.000 HD
ENDBRANCH   9  12
ENDBRANCH   7  10
ENDBRANCH   1   7
BRANCH   4  23
ATOM     23  C   UNL     1      46.885   6.862  12.279  0.00  0.00    +0.000 C 
BRANCH  23  24
ATOM     24  N   UNL     1      45.489   7.360  12.316  0.00  0.00    +0.000 NA
BRANCH  24  25
ATOM     25  C   UNL     1      45.481   8.846  12.382  0.00  0.00    +0.000 C 
BRANCH  25  26
ATOM     26  C   UNL     1      44.420   9.545  11.510  0.00  0.00    +0.000 C 
BRANCH  26  27
ATOM     27  O   UNL     1      43.776  10.581  12.245  0.00  0.00    +0.000 OA
ATOM     28  H   UNL     1      44.473  11.118  12.660  0.00  0.00    +0.000 HD
ENDBRANCH  26  27
ENDBRANCH  25  26
ENDBRANCH  24  25
BRANCH  24  29
ATOM     29  C   UNL     1      44.776   6.913  11.092  0.00  0.00    +0.000 C 
BRANCH  29  30
ATOM     30  C   UNL     1      44.333   5.471  11.090  0.00  0.00    +0.000 A 
ATOM     31  C   UNL     1      44.720   4.579  10.085  0.00  0.00    +0.000 A 
ATOM     32  C   UNL     1      44.353   3.238  10.174  0.00  0.00    +0.000 A 
ATOM     33  C   UNL     1      43.604   2.833  11.267  0.00  0.00    +0.000 A 
ATOM     34  N   UNL     1      43.199   3.665  12.249  0.00  0.00    +0.000 NA
ATOM     35  C   UNL     1      43.575   4.959  12.140  0.00  0.00    +0.000 A 
ENDBRANCH  29  30
ENDBRANCH  24  29
ENDBRANCH  23  24
ENDBRANCH   4  23
TORSDOF 10
ENDMDL
