MODEL 1
REMARK VINA RESULT:    -8.764      0.000      0.000
REMARK INTER + INTRA:         -13.505
REMARK INTER:                 -12.351
REMARK INTRA:                  -1.155
REMARK UNBOUND:                -1.155
REMARK  Name = 
REMARK  8 active torsions:
REMARK  status: ('A' for Active; 'I' for Inactive)
REMARK    1  A    between atoms: C_1  and  C_2
REMARK    2  A    between atoms: C_2  and  O_3
REMARK    3  A    between atoms: O_3  and  C_4
REMARK    4  A    between atoms: C_6  and  C_7
REMARK    5  A    between atoms: C_7  and  C_8
REMARK    6  A    between atoms: C_8  and  N_9
REMARK    7  A    between atoms: C_13  and  C_14
REMARK    8  A    between atoms: C_20  and  C_21
REMARK                            x       y       z     vdW  Elec       q    Type
REMARK                         _______ _______ _______ _____ _____    ______ ____
ROOT
ATOM      1  C   UNL     1      46.775   4.661  13.858  0.00  0.00    +0.000 A 
ATOM      2  C   UNL     1      45.454   4.636  13.410  0.00  0.00    +0.000 A 
ATOM      3  C   UNL     1      44.997   5.599  12.500  0.00  0.00    +0.000 A 
ATOM      4  C   UNL     1      45.885   6.591  12.053  0.00  0.00    +0.000 A 
ATOM      5  C   UNL     1      47.209   6.672  12.523  0.00  0.00    +0.000 A 
ATOM      6  C   UNL     1      47.638   5.667  13.408  0.00  0.00    +0.000 A 
ENDROOT
BRANCH   5   7
ATOM      7  C   UNL     1      48.077   7.829  12.190  0.00  0.00    +0.000 A 
ATOM      8  C   UNL     1      49.430   7.634  11.847  0.00  0.00    +0.000 A 
ATOM      9  C   UNL     1      50.244   8.692  11.436  0.00  0.00    +0.000 A 
ATOM     10  C   UNL     1      49.723   9.977  11.348  0.00  0.00    +0.000 A 
ATOM     11  C   UNL     1      48.394  10.205  11.696  0.00  0.00    +0.000 A 
ATOM     12  C   UNL     1      47.584   9.145  12.121  0.00  0.00    +0.000 A 
ENDBRANCH   5   7
BRANCH   1  13
ATOM     13  O   UNL     1      47.332   3.790  14.757  0.00  0.00    +0.000 OA
BRANCH  13  15
ATOM     14  C   UNL     1      47.856   3.050  16.969  0.00  0.00    +0.000 C 
ATOM     15  C   UNL     1      47.358   4.206  16.122  0.00  0.00    +0.000 C 
ENDBRANCH  13  15
ENDBRANCH   1  13
BRANCH   3  16
ATOM     16  C   UNL     1      43.541   5.644  12.092  0.00  0.00    +0.000 C 
BRANCH  16  17
ATOM     17  C   UNL     1      43.371   5.128  10.657  0.00  0.00    +0.000 C 
BRANCH  17  18
ATOM     18  N   UNL     1      43.631   3.684  10.571  0.00  0.00    +0.000 N 
ATOM     19  C   UNL     1      44.568   3.368   9.567  0.00  0.00    +0.000 A 
ATOM     20  C   UNL     1      44.916   2.037   9.360  0.00  0.00    +0.000 A 
ATOM     21  C   UNL     1      45.851   1.714   8.370  0.00  0.00    +0.000 A 
ATOM     22  C   UNL     1      46.423   2.729   7.602  0.00  0.00    +0.000 A 
ATOM     23  C   UNL     1      46.032   4.023   7.884  0.00  0.00    +0.000 A 
ATOM     24  N   UNL     1      45.130   4.356   8.842  0.00  0.00    +0.000 NA
ATOM     25  H   UNL     1      42.786   3.146  10.405  0.00  0.00    +0.000 HD
BRANCH  22  26
ATOM     26  C   UNL     1      47.404   2.392   6.541  0.00  0.00    +0.000 C 
ATOM     27  N   UNL     1      47.435   3.143   5.400  0.00  0.00    +0.000 N 
ATOM     28  O   UNL     1      48.177   1.449   6.674  0.00  0.00    +0.000 OA
ATOM     29  H   UNL     1      46.838   3.925   5.181  0.00  0.00    +0.000 HD
ATOM     30  H   UNL     1      48.112   2.869   4.698  0.00  0.00    +0.000 HD
ENDBRANCH  22  26
ENDBRANCH  17  18
ENDBRANCH  16  17
ENDBRANCH   3  16
TORSDOF 7
ENDMDL
MODEL 2
REMARK VINA RESULT:    -8.457      1.385      1.925
REMARK INTER + INTRA:         -13.072
REMARK INTER:                 -12.279
REMARK INTRA:                  -0.793
REMARK UNBOUND:                -1.155
REMARK  Name = 
REMARK  8 active torsions:
REMARK  status: ('A' for Active; 'I' for Inactive)
REMARK    1  A    between atoms: C_1  and  C_2
REMARK    2  A    between atoms: C_2  and  O_3
REMARK    3  A    between atoms: O_3  and  C_4
REMARK    4  A    between atoms: C_6  and  C_7
REMARK    5  A    between atoms: C_7  and  C_8
REMARK    6  A    between atoms: C_8  and  N_9
REMARK    7  A    between atoms: C_13  and  C_14
REMARK    8  A    between atoms: C_20  and  C_21
REMARK                            x       y       z     vdW  Elec       q    Type
REMARK                         _______ _______ _______ _____ _____    ______ ____
ROOT
ATOM      1  C   UNL     1      46.719   5.401  13.737  0.00  0.00    +0.000 A 
ATOM      2  C   UNL     1      45.510   4.770  13.443  0.00  0.00    +0.000 A 
ATOM      3  C   UNL     1      44.521   5.441  12.712  0.00  0.00    +0.000 A 
ATOM      4  C   UNL     1      44.762   6.757  12.287  0.00  0.00    +0.000 A 
ATOM      5  C   UNL     1      45.951   7.438  12.608  0.00  0.00    +0.000 A 
ATOM      6  C   UNL     1      46.932   6.718  13.312  0.00  0.00    +0.000 A 
ENDROOT
BRANCH   5   7
ATOM      7  C   UNL     1      46.116   8.884  12.316  0.00  0.00    +0.000 A 
ATOM      8  C   UNL     1      47.400   9.459  12.246  0.00  0.00    +0.000 A 
ATOM      9  C   UNL     1      47.590  10.793  11.879  0.00  0.00    +0.000 A 
ATOM     10  C   UNL     1      46.496  11.590  11.563  0.00  0.00    +0.000 A 
ATOM     11  C   UNL     1      45.212  11.056  11.640  0.00  0.00    +0.000 A 
ATOM     12  C   UNL     1      45.025   9.722  12.022  0.00  0.00    +0.000 A 
ENDBRANCH   5   7
BRANCH   1  13
ATOM     13  O   UNL     1      47.751   4.859  14.457  0.00  0.00    +0.000 OA
BRANCH  13  15
ATOM     14  C   UNL     1      48.133   4.916  16.816  0.00  0.00    +0.000 C 
ATOM     15  C   UNL     1      47.409   4.214  15.683  0.00  0.00    +0.000 C 
ENDBRANCH  13  15
ENDBRANCH   1  13
BRANCH   3  16
ATOM     16  C   UNL     1      43.168   4.805  12.481  0.00  0.00    +0.000 C 
BRANCH  16  17
ATOM     17  C   UNL     1      43.134   4.096  11.121  0.00  0.00    +0.000 C 
BRANCH  17  18
ATOM     18  N   UNL     1      43.906   4.833  10.112  0.00  0.00    +0.000 N 
ATOM     19  C   UNL     1      44.741   3.988   9.353  0.00  0.00    +0.000 A 
ATOM     20  C   UNL     1      45.540   4.540   8.358  0.00  0.00    +0.000 A 
ATOM     21  C   UNL     1      46.366   3.708   7.595  0.00  0.00    +0.000 A 
ATOM     22  C   UNL     1      46.380   2.334   7.840  0.00  0.00    +0.000 A 
ATOM     23  C   UNL     1      45.545   1.868   8.836  0.00  0.00    +0.000 A 
ATOM     24  N   UNL     1      44.734   2.660   9.584  0.00  0.00    +0.000 NA
ATOM     25  H   UNL     1      44.476   5.569  10.519  0.00  0.00    +0.000 HD
BRANCH  22  26
ATOM     26  C   UNL     1      47.265   1.447   7.044  0.00  0.00    +0.000 C 
ATOM     27  N   UNL     1      48.369   1.978   6.440  0.00  0.00    +0.000 N 
ATOM     28  O   UNL     1      47.013   0.254   6.919  0.00  0.00    +0.000 OA
ATOM     29  H   UNL     1      48.660   2.943   6.464  0.00  0.00    +0.000 HD
ATOM     30  H   UNL     1      48.937   1.338   5.897  0.00  0.00    +0.000 HD
ENDBRANCH  22  26
ENDBRANCH  17  18
ENDBRANCH  16  17
ENDBRANCH   3  16
TORSDOF 7
ENDMDL
MODEL 3
REMARK VINA RESULT:    -7.897      1.276      4.095
REMARK INTER + INTRA:         -12.283
REMARK INTER:                 -11.142
REMARK INTRA:                  -1.141
REMARK UNBOUND:                -1.155
REMARK  Name = 
REMARK  8 active torsions:
REMARK  status: ('A' for Active; 'I' for Inactive)
REMARK    1  A    between atoms: C_1  and  C_2
REMARK    2  A    between atoms: C_2  and  O_3
REMARK    3  A    between atoms: O_3  and  C_4
REMARK    4  A    between atoms: C_6  and  C_7
REMARK    5  A    between atoms: C_7  and  C_8
REMARK    6  A    between atoms: C_8  and  N_9
REMARK    7  A    between atoms: C_13  and  C_14
REMARK    8  A    between atoms: C_20  and  C_21
REMARK                            x       y       z     vdW  Elec       q    Type
REMARK                         _______ _______ _______ _____ _____    ______ ____
ROOT
ATOM      1  C   UNL     1      47.361   6.709  12.024  0.00  0.00    +0.000 A 
ATOM      2  C   UNL     1      46.031   6.460  11.686  0.00  0.00    +0.000 A 
ATOM      3  C   UNL     1      45.198   5.754  12.563  0.00  0.00    +0.000 A 
ATOM      4  C   UNL     1      45.724   5.296  13.782  0.00  0.00    +0.000 A 
ATOM      5  C   UNL     1      47.073   5.489  14.131  0.00  0.00    +0.000 A 
ATOM      6  C   UNL     1      47.866   6.232  13.239  0.00  0.00    +0.000 A 
ENDROOT
BRANCH   5   7
ATOM      7  C   UNL     1      47.661   4.840  15.329  0.00  0.00    +0.000 A 
ATOM      8  C   UNL     1      48.487   5.570  16.207  0.00  0.00    +0.000 A 
ATOM      9  C   UNL     1      48.975   5.015  17.392  0.00  0.00    +0.000 A 
ATOM     10  C   UNL     1      48.643   3.710  17.736  0.00  0.00    +0.000 A 
ATOM     11  C   UNL     1      47.842   2.956  16.882  0.00  0.00    +0.000 A 
ATOM     12  C   UNL     1      47.366   3.512  15.688  0.00  0.00    +0.000 A 
ENDBRANCH   5   7
BRANCH   1  13
ATOM     13  O   UNL     1      48.275   7.370  11.245  0.00  0.00    +0.000 OA
BRANCH  13  15
ATOM     14  C   UNL     1      50.539   8.135  11.303  0.00  0.00    +0.000 C 
ATOM     15  C   UNL     1      49.157   8.269  11.915  0.00  0.00    +0.000 C 
ENDBRANCH  13  15
ENDBRANCH   1  13
BRANCH   3  16
ATOM     16  C   UNL     1      43.787   5.387  12.160  0.00  0.00    +0.000 C 
BRANCH  16  17
ATOM     17  C   UNL     1      43.738   4.992  10.678  0.00  0.00    +0.000 C 
BRANCH  17  18
ATOM     18  N   UNL     1      43.945   3.548  10.501  0.00  0.00    +0.000 N 
ATOM     19  C   UNL     1      44.847   3.260   9.456  0.00  0.00    +0.000 A 
ATOM     20  C   UNL     1      45.143   1.934   9.162  0.00  0.00    +0.000 A 
ATOM     21  C   UNL     1      46.042   1.639   8.132  0.00  0.00    +0.000 A 
ATOM     22  C   UNL     1      46.632   2.678   7.412  0.00  0.00    +0.000 A 
ATOM     23  C   UNL     1      46.294   3.965   7.779  0.00  0.00    +0.000 A 
ATOM     24  N   UNL     1      45.427   4.270   8.778  0.00  0.00    +0.000 NA
ATOM     25  H   UNL     1      43.077   3.050  10.325  0.00  0.00    +0.000 HD
BRANCH  22  26
ATOM     26  C   UNL     1      47.576   2.372   6.307  0.00  0.00    +0.000 C 
ATOM     27  N   UNL     1      47.458   3.044   5.124  0.00  0.00    +0.000 N 
ATOM     28  O   UNL     1      48.450   1.522   6.443  0.00  0.00    +0.000 OA
ATOM     29  H   UNL     1      46.769   3.747   4.900  0.00  0.00    +0.000 HD
ATOM     30  H   UNL     1      48.115   2.794   4.395  0.00  0.00    +0.000 HD
ENDBRANCH  22  26
ENDBRANCH  17  18
ENDBRANCH  16  17
ENDBRANCH   3  16
TORSDOF 7
ENDMDL
MODEL 4
REMARK VINA RESULT:    -7.105      2.843      3.889
REMARK INTER + INTRA:         -11.167
REMARK INTER:                 -10.221
REMARK INTRA:                  -0.946
REMARK UNBOUND:                -1.155
REMARK  Name = 
REMARK  8 active torsions:
REMARK  status: ('A' for Active; 'I' for Inactive)
REMARK    1  A    between atoms: C_1  and  C_2
REMARK    2  A    between atoms: C_2  and  O_3
REMARK    3  A    between atoms: O_3  and  C_4
REMARK    4  A    between atoms: C_6  and  C_7
REMARK    5  A    between atoms: C_7  and  C_8
REMARK    6  A    between atoms: C_8  and  N_9
REMARK    7  A    between atoms: C_13  and  C_14
REMARK    8  A    between atoms: C_20  and  C_21
REMARK                            x       y       z     vdW  Elec       q    Type
REMARK                         _______ _______ _______ _____ _____    ______ ____
ROOT
ATOM      1  C   UNL     1      46.485   8.079  12.885  0.00  0.00    +0.000 A 
ATOM      2  C   UNL     1      45.932   6.800  12.934  0.00  0.00    +0.000 A 
ATOM      3  C   UNL     1      44.777   6.499  12.200  0.00  0.00    +0.000 A 
ATOM      4  C   UNL     1      44.182   7.505  11.422  0.00  0.00    +0.000 A 
ATOM      5  C   UNL     1      44.688   8.819  11.389  0.00  0.00    +0.000 A 
ATOM      6  C   UNL     1      45.867   9.069  12.112  0.00  0.00    +0.000 A 
ENDROOT
BRANCH   5   7
ATOM      7  C   UNL     1      43.947   9.915  10.716  0.00  0.00    +0.000 A 
ATOM      8  C   UNL     1      42.551   9.834  10.541  0.00  0.00    +0.000 A 
ATOM      9  C   UNL     1      41.815  10.890   9.999  0.00  0.00    +0.000 A 
ATOM     10  C   UNL     1      42.457  12.064   9.624  0.00  0.00    +0.000 A 
ATOM     11  C   UNL     1      43.838  12.169   9.769  0.00  0.00    +0.000 A 
ATOM     12  C   UNL     1      44.575  11.103  10.300  0.00  0.00    +0.000 A 
ENDBRANCH   5   7
BRANCH   1  13
ATOM     13  O   UNL     1      47.596   8.498  13.570  0.00  0.00    +0.000 OA
BRANCH  13  15
ATOM     14  C   UNL     1      49.840   8.089  14.283  0.00  0.00    +0.000 C 
ATOM     15  C   UNL     1      48.850   7.973  13.139  0.00  0.00    +0.000 C 
ENDBRANCH  13  15
ENDBRANCH   1  13
BRANCH   3  16
ATOM     16  C   UNL     1      44.110   5.147  12.330  0.00  0.00    +0.000 C 
BRANCH  16  17
ATOM     17  C   UNL     1      43.529   4.704  10.981  0.00  0.00    +0.000 C 
BRANCH  17  18
ATOM     18  N   UNL     1      43.827   3.291  10.707  0.00  0.00    +0.000 N 
ATOM     19  C   UNL     1      44.688   3.130   9.603  0.00  0.00    +0.000 A 
ATOM     20  C   UNL     1      45.060   1.847   9.215  0.00  0.00    +0.000 A 
ATOM     21  C   UNL     1      45.920   1.677   8.124  0.00  0.00    +0.000 A 
ATOM     22  C   UNL     1      46.395   2.796   7.439  0.00  0.00    +0.000 A 
ATOM     23  C   UNL     1      45.989   4.032   7.900  0.00  0.00    +0.000 A 
ATOM     24  N   UNL     1      45.158   4.216   8.957  0.00  0.00    +0.000 NA
ATOM     25  H   UNL     1      42.988   2.742  10.545  0.00  0.00    +0.000 HD
BRANCH  22  26
ATOM     26  C   UNL     1      47.297   2.622   6.272  0.00  0.00    +0.000 C 
ATOM     27  N   UNL     1      48.512   2.024   6.452  0.00  0.00    +0.000 N 
ATOM     28  O   UNL     1      46.968   3.015   5.158  0.00  0.00    +0.000 OA
ATOM     29  H   UNL     1      48.887   1.680   7.323  0.00  0.00    +0.000 HD
ATOM     30  H   UNL     1      49.098   1.938   5.631  0.00  0.00    +0.000 HD
ENDBRANCH  22  26
ENDBRANCH  17  18
ENDBRANCH  16  17
ENDBRANCH   3  16
TORSDOF 7
ENDMDL
MODEL 5
REMARK VINA RESULT:    -7.080      2.430      3.789
REMARK INTER + INTRA:         -11.133
REMARK INTER:                 -10.075
REMARK INTRA:                  -1.058
REMARK UNBOUND:                -1.155
REMARK  Name = 
REMARK  8 active torsions:
REMARK  status: ('A' for Active; 'I' for Inactive)
REMARK    1  A    between atoms: C_1  and  C_2
REMARK    2  A    between atoms: C_2  and  O_3
REMARK    3  A    between atoms: O_3  and  C_4
REMARK    4  A    between atoms: C_6  and  C_7
REMARK    5  A    between atoms: C_7  and  C_8
REMARK    6  A    between atoms: C_8  and  N_9
REMARK    7  A    between atoms: C_13  and  C_14
REMARK    8  A    between atoms: C_20  and  C_21
REMARK                            x       y       z     vdW  Elec       q    Type
REMARK                         _______ _______ _______ _____ _____    ______ ____
ROOT
ATOM      1  C   UNL     1      44.728   9.399  11.659  0.00  0.00    +0.000 A 
ATOM      2  C   UNL     1      44.198   8.124  11.858  0.00  0.00    +0.000 A 
ATOM      3  C   UNL     1      45.045   7.039  12.118  0.00  0.00    +0.000 A 
ATOM      4  C   UNL     1      46.431   7.252  12.168  0.00  0.00    +0.000 A 
ATOM      5  C   UNL     1      47.000   8.516  11.924  0.00  0.00    +0.000 A 
ATOM      6  C   UNL     1      46.114   9.585  11.702  0.00  0.00    +0.000 A 
ENDROOT
BRANCH   5   7
ATOM      7  C   UNL     1      48.468   8.690  11.795  0.00  0.00    +0.000 A 
ATOM      8  C   UNL     1      49.305   7.578  11.574  0.00  0.00    +0.000 A 
ATOM      9  C   UNL     1      50.676   7.722  11.351  0.00  0.00    +0.000 A 
ATOM     10  C   UNL     1      51.249   8.988  11.337  0.00  0.00    +0.000 A 
ATOM     11  C   UNL     1      50.452  10.106  11.570  0.00  0.00    +0.000 A 
ATOM     12  C   UNL     1      49.080   9.957  11.805  0.00  0.00    +0.000 A 
ENDBRANCH   5   7
BRANCH   1  13
ATOM     13  O   UNL     1      44.007  10.531  11.380  0.00  0.00    +0.000 OA
BRANCH  13  15
ATOM     14  C   UNL     1      43.113  10.677   9.169  0.00  0.00    +0.000 C 
ATOM     15  C   UNL     1      42.812  10.359  10.621  0.00  0.00    +0.000 C 
ENDBRANCH  13  15
ENDBRANCH   1  13
BRANCH   3  16
ATOM     16  C   UNL     1      44.488   5.636  12.229  0.00  0.00    +0.000 C 
BRANCH  16  17
ATOM     17  C   UNL     1      43.801   5.226  10.920  0.00  0.00    +0.000 C 
BRANCH  17  18
ATOM     18  N   UNL     1      43.880   3.775  10.703  0.00  0.00    +0.000 N 
ATOM     19  C   UNL     1      44.739   3.438   9.639  0.00  0.00    +0.000 A 
ATOM     20  C   UNL     1      44.915   2.099   9.307  0.00  0.00    +0.000 A 
ATOM     21  C   UNL     1      45.773   1.754   8.257  0.00  0.00    +0.000 A 
ATOM     22  C   UNL     1      46.441   2.757   7.553  0.00  0.00    +0.000 A 
ATOM     23  C   UNL     1      46.221   4.058   7.957  0.00  0.00    +0.000 A 
ATOM     24  N   UNL     1      45.396   4.411   8.976  0.00  0.00    +0.000 NA
ATOM     25  H   UNL     1      42.970   3.358  10.528  0.00  0.00    +0.000 HD
BRANCH  22  26
ATOM     26  C   UNL     1      47.341   2.399   6.428  0.00  0.00    +0.000 C 
ATOM     27  N   UNL     1      47.407   3.223   5.340  0.00  0.00    +0.000 N 
ATOM     28  O   UNL     1      48.013   1.374   6.461  0.00  0.00    +0.000 OA
ATOM     29  H   UNL     1      46.888   4.077   5.203  0.00  0.00    +0.000 HD
ATOM     30  H   UNL     1      48.025   2.933   4.591  0.00  0.00    +0.000 HD
ENDBRANCH  22  26
ENDBRANCH  17  18
ENDBRANCH  16  17
ENDBRANCH   3  16
TORSDOF 7
ENDMDL
MODEL 6
REMARK VINA RESULT:    -6.655      3.120      7.572
REMARK INTER + INTRA:         -10.534
REMARK INTER:                 -10.007
REMARK INTRA:                  -0.526
REMARK UNBOUND:                -1.155
REMARK  Name = 
REMARK  8 active torsions:
REMARK  status: ('A' for Active; 'I' for Inactive)
REMARK    1  A    between atoms: C_1  and  C_2
REMARK    2  A    between atoms: C_2  and  O_3
REMARK    3  A    between atoms: O_3  and  C_4
REMARK    4  A    between atoms: C_6  and  C_7
REMARK    5  A    between atoms: C_7  and  C_8
REMARK    6  A    between atoms: C_8  and  N_9
REMARK    7  A    between atoms: C_13  and  C_14
REMARK    8  A    between atoms: C_20  and  C_21
REMARK                            x       y       z     vdW  Elec       q    Type
REMARK                         _______ _______ _______ _____ _____    ______ ____
ROOT
ATOM      1  C   UNL     1      43.846   5.083  10.867  0.00  0.00    +0.000 A 
ATOM      2  C   UNL     1      44.695   6.110  11.281  0.00  0.00    +0.000 A 
ATOM      3  C   UNL     1      45.920   6.319  10.635  0.00  0.00    +0.000 A 
ATOM      4  C   UNL     1      46.284   5.477   9.572  0.00  0.00    +0.000 A 
ATOM      5  C   UNL     1      45.472   4.402   9.162  0.00  0.00    +0.000 A 
ATOM      6  C   UNL     1      44.235   4.249   9.812  0.00  0.00    +0.000 A 
ENDROOT
BRANCH   5   7
ATOM      7  C   UNL     1      45.950   3.410   8.167  0.00  0.00    +0.000 A 
ATOM      8  C   UNL     1      46.418   3.828   6.906  0.00  0.00    +0.000 A 
ATOM      9  C   UNL     1      46.964   2.927   5.988  0.00  0.00    +0.000 A 
ATOM     10  C   UNL     1      47.062   1.579   6.311  0.00  0.00    +0.000 A 
ATOM     11  C   UNL     1      46.593   1.132   7.544  0.00  0.00    +0.000 A 
ATOM     12  C   UNL     1      46.035   2.035   8.456  0.00  0.00    +0.000 A 
ENDBRANCH   5   7
BRANCH   1  13
ATOM     13  O   UNL     1      42.636   4.769  11.428  0.00  0.00    +0.000 OA
BRANCH  13  15
ATOM     14  C   UNL     1      43.585   3.643  13.311  0.00  0.00    +0.000 C 
ATOM     15  C   UNL     1      42.590   4.692  12.851  0.00  0.00    +0.000 C 
ENDBRANCH  13  15
ENDBRANCH   1  13
BRANCH   3  16
ATOM     16  C   UNL     1      46.893   7.359  11.145  0.00  0.00    +0.000 C 
BRANCH  16  17
ATOM     17  C   UNL     1      47.745   6.785  12.285  0.00  0.00    +0.000 C 
BRANCH  17  18
ATOM     18  N   UNL     1      47.078   5.646  12.931  0.00  0.00    +0.000 N 
ATOM     19  C   UNL     1      47.513   5.454  14.258  0.00  0.00    +0.000 A 
ATOM     20  C   UNL     1      46.976   4.409  15.003  0.00  0.00    +0.000 A 
ATOM     21  C   UNL     1      47.396   4.216  16.324  0.00  0.00    +0.000 A 
ATOM     22  C   UNL     1      48.348   5.071  16.878  0.00  0.00    +0.000 A 
ATOM     23  C   UNL     1      48.818   6.091  16.074  0.00  0.00    +0.000 A 
ATOM     24  N   UNL     1      48.419   6.297  14.793  0.00  0.00    +0.000 NA
ATOM     25  H   UNL     1      47.208   4.778  12.420  0.00  0.00    +0.000 HD
BRANCH  22  26
ATOM     26  C   UNL     1      48.809   4.862  18.274  0.00  0.00    +0.000 C 
ATOM     27  N   UNL     1      47.912   4.444  19.216  0.00  0.00    +0.000 N 
ATOM     28  O   UNL     1      49.976   5.068  18.589  0.00  0.00    +0.000 OA
ATOM     29  H   UNL     1      46.931   4.262  19.070  0.00  0.00    +0.000 HD
ATOM     30  H   UNL     1      48.268   4.326  20.157  0.00  0.00    +0.000 HD
ENDBRANCH  22  26
ENDBRANCH  17  18
ENDBRANCH  16  17
ENDBRANCH   3  16
TORSDOF 7
ENDMDL
MODEL 7
REMARK VINA RESULT:    -6.596      3.995      8.032
REMARK INTER + INTRA:         -10.450
REMARK INTER:                  -9.286
REMARK INTRA:                  -1.164
REMARK UNBOUND:                -1.155
REMARK  Name = 
REMARK  8 active torsions:
REMARK  status: ('A' for Active; 'I' for Inactive)
REMARK    1  A    between atoms: C_1  and  C_2
REMARK    2  A    between atoms: C_2  and  O_3
REMARK    3  A    between atoms: O_3  and  C_4
REMARK    4  A    between atoms: C_6  and  C_7
REMARK    5  A    between atoms: C_7  and  C_8
REMARK    6  A    between atoms: C_8  and  N_9
REMARK    7  A    between atoms: C_13  and  C_14
REMARK    8  A    between atoms: C_20  and  C_21
REMARK                            x       y       z     vdW  Elec       q    Type
REMARK                         _______ _______ _______ _____ _____    ______ ____
ROOT
ATOM      1  C   UNL     1      44.755   9.600  11.459  0.00  0.00    +0.000 A 
ATOM      2  C   UNL     1      46.011   9.823  12.022  0.00  0.00    +0.000 A 
ATOM      3  C   UNL     1      46.810   8.743  12.418  0.00  0.00    +0.000 A 
ATOM      4  C   UNL     1      46.325   7.436  12.248  0.00  0.00    +0.000 A 
ATOM      5  C   UNL     1      45.043   7.180  11.728  0.00  0.00    +0.000 A 
ATOM      6  C   UNL     1      44.287   8.289  11.310  0.00  0.00    +0.000 A 
ENDROOT
BRANCH   5   7
ATOM      7  C   UNL     1      44.470   5.811  11.727  0.00  0.00    +0.000 A 
ATOM      8  C   UNL     1      44.634   4.966  10.612  0.00  0.00    +0.000 A 
ATOM      9  C   UNL     1      44.190   3.641  10.620  0.00  0.00    +0.000 A 
ATOM     10  C   UNL     1      43.574   3.122  11.752  0.00  0.00    +0.000 A 
ATOM     11  C   UNL     1      43.381   3.937  12.865  0.00  0.00    +0.000 A 
ATOM     12  C   UNL     1      43.815   5.268  12.848  0.00  0.00    +0.000 A 
ENDBRANCH   5   7
BRANCH   1  13
ATOM     13  O   UNL     1      43.877  10.570  11.051  0.00  0.00    +0.000 OA
BRANCH  13  15
ATOM     14  C   UNL     1      41.489  10.684  11.043  0.00  0.00    +0.000 C 
ATOM     15  C   UNL     1      42.717  10.130  10.346  0.00  0.00    +0.000 C 
ENDBRANCH  13  15
ENDBRANCH   1  13
BRANCH   3  16
ATOM     16  C   UNL     1      48.127   8.977  13.126  0.00  0.00    +0.000 C 
BRANCH  16  17
ATOM     17  C   UNL     1      48.926   7.670  13.219  0.00  0.00    +0.000 C 
BRANCH  17  18
ATOM     18  N   UNL     1      49.650   7.573  14.494  0.00  0.00    +0.000 N 
ATOM     19  C   UNL     1      49.148   6.547  15.319  0.00  0.00    +0.000 A 
ATOM     20  C   UNL     1      49.729   6.333  16.564  0.00  0.00    +0.000 A 
ATOM     21  C   UNL     1      49.242   5.312  17.387  0.00  0.00    +0.000 A 
ATOM     22  C   UNL     1      48.179   4.520  16.950  0.00  0.00    +0.000 A 
ATOM     23  C   UNL     1      47.672   4.790  15.695  0.00  0.00    +0.000 A 
ATOM     24  N   UNL     1      48.134   5.774  14.882  0.00  0.00    +0.000 NA
ATOM     25  H   UNL     1      49.636   8.444  15.016  0.00  0.00    +0.000 HD
BRANCH  22  26
ATOM     26  C   UNL     1      47.648   3.444  17.824  0.00  0.00    +0.000 C 
ATOM     27  N   UNL     1      48.296   3.154  18.992  0.00  0.00    +0.000 N 
ATOM     28  O   UNL     1      46.645   2.813  17.508  0.00  0.00    +0.000 OA
ATOM     29  H   UNL     1      49.132   3.596  19.339  0.00  0.00    +0.000 HD
ATOM     30  H   UNL     1      47.904   2.405  19.550  0.00  0.00    +0.000 HD
ENDBRANCH  22  26
ENDBRANCH  17  18
ENDBRANCH  16  17
ENDBRANCH   3  16
TORSDOF 7
ENDMDL
MODEL 8
REMARK VINA RESULT:    -6.463      3.817      6.910
REMARK INTER + INTRA:         -10.262
REMARK INTER:                  -9.055
REMARK INTRA:                  -1.208
REMARK UNBOUND:                -1.155
REMARK  Name = 
REMARK  8 active torsions:
REMARK  status: ('A' for Active; 'I' for Inactive)
REMARK    1  A    between atoms: C_1  and  C_2
REMARK    2  A    between atoms: C_2  and  O_3
REMARK    3  A    between atoms: O_3  and  C_4
REMARK    4  A    between atoms: C_6  and  C_7
REMARK    5  A    between atoms: C_7  and  C_8
REMARK    6  A    between atoms: C_8  and  N_9
REMARK    7  A    between atoms: C_13  and  C_14
REMARK    8  A    between atoms: C_20  and  C_21
REMARK                            x       y       z     vdW  Elec       q    Type
REMARK                         _______ _______ _______ _____ _____    ______ ____
ROOT
ATOM      1  C   UNL     1      47.862   5.906  14.314  0.00  0.00    +0.000 A 
ATOM      2  C   UNL     1      48.392   7.121  13.882  0.00  0.00    +0.000 A 
ATOM      3  C   UNL     1      47.970   7.687  12.672  0.00  0.00    +0.000 A 
ATOM      4  C   UNL     1      47.013   7.010  11.899  0.00  0.00    +0.000 A 
ATOM      5  C   UNL     1      46.494   5.760  12.284  0.00  0.00    +0.000 A 
ATOM      6  C   UNL     1      46.917   5.244  13.522  0.00  0.00    +0.000 A 
ENDROOT
BRANCH   5   7
ATOM      7  C   UNL     1      45.628   4.970  11.374  0.00  0.00    +0.000 A 
ATOM      8  C   UNL     1      45.602   5.245   9.992  0.00  0.00    +0.000 A 
ATOM      9  C   UNL     1      44.872   4.458   9.098  0.00  0.00    +0.000 A 
ATOM     10  C   UNL     1      44.152   3.364   9.564  0.00  0.00    +0.000 A 
ATOM     11  C   UNL     1      44.145   3.075  10.926  0.00  0.00    +0.000 A 
ATOM     12  C   UNL     1      44.866   3.875  11.820  0.00  0.00    +0.000 A 
ENDBRANCH   5   7
BRANCH   1  13
ATOM     13  O   UNL     1      48.206   5.245  15.465  0.00  0.00    +0.000 OA
BRANCH  13  15
ATOM     14  C   UNL     1      47.996   3.113  16.524  0.00  0.00    +0.000 C 
ATOM     15  C   UNL     1      47.252   4.319  15.982  0.00  0.00    +0.000 C 
ENDBRANCH  13  15
ENDBRANCH   1  13
BRANCH   3  16
ATOM     16  C   UNL     1      48.617   8.948  12.143  0.00  0.00    +0.000 C 
BRANCH  16  17
ATOM     17  C   UNL     1      47.885  10.188  12.672  0.00  0.00    +0.000 C 
BRANCH  17  18
ATOM     18  N   UNL     1      47.444  11.060  11.575  0.00  0.00    +0.000 N 
ATOM     19  C   UNL     1      46.066  10.932  11.308  0.00  0.00    +0.000 A 
ATOM     20  C   UNL     1      45.499  11.692  10.290  0.00  0.00    +0.000 A 
ATOM     21  C   UNL     1      44.130  11.576  10.023  0.00  0.00    +0.000 A 
ATOM     22  C   UNL     1      43.350  10.700  10.780  0.00  0.00    +0.000 A 
ATOM     23  C   UNL     1      43.991   9.995  11.780  0.00  0.00    +0.000 A 
ATOM     24  N   UNL     1      45.316  10.098  12.056  0.00  0.00    +0.000 NA
ATOM     25  H   UNL     1      47.957  10.891  10.714  0.00  0.00    +0.000 HD
BRANCH  22  26
ATOM     26  C   UNL     1      41.901  10.561  10.492  0.00  0.00    +0.000 C 
ATOM     27  N   UNL     1      41.162   9.662  11.208  0.00  0.00    +0.000 N 
ATOM     28  O   UNL     1      41.365  11.236   9.619  0.00  0.00    +0.000 OA
ATOM     29  H   UNL     1      41.503   9.049  11.933  0.00  0.00    +0.000 HD
ATOM     30  H   UNL     1      40.181   9.592  10.969  0.00  0.00    +0.000 HD
ENDBRANCH  22  26
ENDBRANCH  17  18
ENDBRANCH  16  17
ENDBRANCH   3  16
TORSDOF 7
ENDMDL
MODEL 9
REMARK VINA RESULT:    -6.438      3.982      7.319
REMARK INTER + INTRA:         -10.227
REMARK INTER:                  -9.742
REMARK INTRA:                  -0.484
REMARK UNBOUND:                -1.155
REMARK  Name = 
REMARK  8 active torsions:
REMARK  status: ('A' for Active; 'I' for Inactive)
REMARK    1  A    between atoms: C_1  and  C_2
REMARK    2  A    between atoms: C_2  and  O_3
REMARK    3  A    between atoms: O_3  and  C_4
REMARK    4  A    between atoms: C_6  and  C_7
REMARK    5  A    between atoms: C_7  and  C_8
REMARK    6  A    between atoms: C_8  and  N_9
REMARK    7  A    between atoms: C_13  and  C_14
REMARK    8  A    between atoms: C_20  and  C_21
REMARK                            x       y       z     vdW  Elec       q    Type
REMARK                         _______ _______ _______ _____ _____    ______ ____
ROOT
ATOM      1  C   UNL     1      44.534   4.443  11.264  0.00  0.00    +0.000 A 
ATOM      2  C   UNL     1      45.435   3.941  12.203  0.00  0.00    +0.000 A 
ATOM      3  C   UNL     1      46.133   4.811  13.051  0.00  0.00    +0.000 A 
ATOM      4  C   UNL     1      45.917   6.194  12.937  0.00  0.00    +0.000 A 
ATOM      5  C   UNL     1      45.051   6.735  11.968  0.00  0.00    +0.000 A 
ATOM      6  C   UNL     1      44.344   5.826  11.161  0.00  0.00    +0.000 A 
ENDROOT
BRANCH   5   7
ATOM      7  C   UNL     1      44.974   8.198  11.733  0.00  0.00    +0.000 A 
ATOM      8  C   UNL     1      46.021   9.046  12.145  0.00  0.00    +0.000 A 
ATOM      9  C   UNL     1      46.020  10.412  11.852  0.00  0.00    +0.000 A 
ATOM     10  C   UNL     1      44.971  10.967  11.129  0.00  0.00    +0.000 A 
ATOM     11  C   UNL     1      43.913  10.159  10.722  0.00  0.00    +0.000 A 
ATOM     12  C   UNL     1      43.910   8.793  11.029  0.00  0.00    +0.000 A 
ENDBRANCH   5   7
BRANCH   1  13
ATOM     13  O   UNL     1      43.809   3.699  10.371  0.00  0.00    +0.000 OA
BRANCH  13  15
ATOM     14  C   UNL     1      45.178   3.861   8.418  0.00  0.00    +0.000 C 
ATOM     15  C   UNL     1      44.552   2.922   9.432  0.00  0.00    +0.000 C 
ENDBRANCH  13  15
ENDBRANCH   1  13
BRANCH   3  16
ATOM     16  C   UNL     1      47.189   4.284  13.997  0.00  0.00    +0.000 C 
BRANCH  16  17
ATOM     17  C   UNL     1      46.661   4.271  15.437  0.00  0.00    +0.000 C 
BRANCH  17  18
ATOM     18  N   UNL     1      47.622   4.883  16.366  0.00  0.00    +0.000 N 
ATOM     19  C   UNL     1      48.681   4.012  16.692  0.00  0.00    +0.000 A 
ATOM     20  C   UNL     1      49.671   4.447  17.567  0.00  0.00    +0.000 A 
ATOM     21  C   UNL     1      50.730   3.591  17.891  0.00  0.00    +0.000 A 
ATOM     22  C   UNL     1      50.781   2.313  17.333  0.00  0.00    +0.000 A 
ATOM     23  C   UNL     1      49.766   1.968  16.464  0.00  0.00    +0.000 A 
ATOM     24  N   UNL     1      48.733   2.786  16.135  0.00  0.00    +0.000 NA
ATOM     25  H   UNL     1      47.184   5.196  17.228  0.00  0.00    +0.000 HD
BRANCH  22  26
ATOM     26  C   UNL     1      51.894   1.396  17.684  0.00  0.00    +0.000 C 
ATOM     27  N   UNL     1      51.606   0.182  18.242  0.00  0.00    +0.000 N 
ATOM     28  O   UNL     1      53.061   1.717  17.488  0.00  0.00    +0.000 OA
ATOM     29  H   UNL     1      50.688  -0.174  18.460  0.00  0.00    +0.000 HD
ATOM     30  H   UNL     1      52.397  -0.406  18.476  0.00  0.00    +0.000 HD
ENDBRANCH  22  26
ENDBRANCH  17  18
ENDBRANCH  16  17
ENDBRANCH   3  16
TORSDOF 7
ENDMDL
