MODEL 1
REMARK VINA RESULT:    -8.085      0.000      0.000
REMARK INTER + INTRA:         -11.151
REMARK INTER:                 -10.684
REMARK INTRA:                  -0.466
REMARK UNBOUND:                -0.466
REMARK  Name = 
REMARK  6 active torsions:
REMARK  status: ('A' for Active; 'I' for Inactive)
REMARK    1  A    between atoms: N_1  and  C_2
REMARK    2  A    between atoms: C_2  and  C_3
REMARK    3  A    between atoms: C_7  and  C_8
REMARK    4  A    between atoms: C_8  and  C_9
REMARK    5  A    between atoms: C_9  and  N_10
REMARK    6  A    between atoms: C_14  and  C_15
REMARK                            x       y       z     vdW  Elec       q    Type
REMARK                         _______ _______ _______ _____ _____    ______ ____
ROOT
ATOM      1  N   UNL     1      43.648   4.714   9.751  0.00  0.00    +0.000 N 
ATOM      2  C   UNL     1      44.609   3.958   9.087  0.00  0.00    +0.000 A 
ATOM      3  C   UNL     1      44.729   2.564   9.209  0.00  0.00    +0.000 A 
ATOM      4  N   UNL     1      45.646   1.805   8.555  0.00  0.00    +0.000 NA
ATOM      5  C   UNL     1      46.446   2.505   7.714  0.00  0.00    +0.000 A 
ATOM      6  C   UNL     1      46.333   3.878   7.555  0.00  0.00    +0.000 A 
ATOM      7  N   UNL     1      45.422   4.627   8.241  0.00  0.00    +0.000 NA
ATOM      8  H   UNL     1      43.899   5.698   9.654  0.00  0.00    +0.000 HD
ENDROOT
BRANCH   5   9
ATOM      9  C   UNL     1      47.465   1.738   6.949  0.00  0.00    +0.000 C 
ATOM     10  N   UNL     1      48.563   2.441   6.524  0.00  0.00    +0.000 N 
ATOM     11  O   UNL     1      47.337   0.545   6.711  0.00  0.00    +0.000 OA
ATOM     12  H   UNL     1      48.651   3.428   6.740  0.00  0.00    +0.000 HD
ATOM     13  H   UNL     1      49.293   1.961   6.017  0.00  0.00    +0.000 HD
ENDBRANCH   5   9
BRANCH   1  14
ATOM     14  C   UNL     1      43.228   4.262  11.072  0.00  0.00    +0.000 C 
BRANCH  14  15
ATOM     15  C   UNL     1      43.128   5.419  12.072  0.00  0.00    +0.000 C 
BRANCH  15  20
ATOM     16  C   UNL     1      46.560   5.456  13.770  0.00  0.00    +0.000 A 
ATOM     17  C   UNL     1      47.129   6.600  13.198  0.00  0.00    +0.000 A 
ATOM     18  C   UNL     1      46.395   7.381  12.304  0.00  0.00    +0.000 A 
ATOM     19  C   UNL     1      45.092   7.020  11.957  0.00  0.00    +0.000 A 
ATOM     20  C   UNL     1      44.508   5.870  12.503  0.00  0.00    +0.000 A 
ATOM     21  C   UNL     1      45.252   5.095  13.407  0.00  0.00    +0.000 A 
BRANCH  16  22
ATOM     22  C   UNL     1      47.349   4.603  14.730  0.00  0.00    +0.000 C 
BRANCH  22  23
ATOM     23  N   UNL     1      47.355   3.206  14.318  0.00  0.00    +0.000 NA
ATOM     24  H   UNL     1      46.437   2.965  13.947  0.00  0.00    +0.000 HD
ATOM     25  H   UNL     1      47.492   2.621  15.142  0.00  0.00    +0.000 HD
ENDBRANCH  22  23
ENDBRANCH  16  22
ENDBRANCH  15  20
ENDBRANCH  14  15
ENDBRANCH   1  14
TORSDOF 6
ENDMDL
MODEL 2
REMARK VINA RESULT:    -7.771      2.886      6.486
REMARK INTER + INTRA:         -10.736
REMARK INTER:                 -10.206
REMARK INTRA:                  -0.530
REMARK UNBOUND:                -0.466
REMARK  Name = 
REMARK  6 active torsions:
REMARK  status: ('A' for Active; 'I' for Inactive)
REMARK    1  A    between atoms: N_1  and  C_2
REMARK    2  A    between atoms: C_2  and  C_3
REMARK    3  A    between atoms: C_7  and  C_8
REMARK    4  A    between atoms: C_8  and  C_9
REMARK    5  A    between atoms: C_9  and  N_10
REMARK    6  A    between atoms: C_14  and  C_15
REMARK                            x       y       z     vdW  Elec       q    Type
REMARK                         _______ _______ _______ _____ _____    ______ ____
ROOT
ATOM      1  N   UNL     1      44.389   2.912  12.468  0.00  0.00    +0.000 N 
ATOM      2  C   UNL     1      45.298   3.892  12.857  0.00  0.00    +0.000 A 
ATOM      3  C   UNL     1      45.129   5.262  12.598  0.00  0.00    +0.000 A 
ATOM      4  N   UNL     1      45.992   6.237  12.984  0.00  0.00    +0.000 NA
ATOM      5  C   UNL     1      47.051   5.786  13.700  0.00  0.00    +0.000 A 
ATOM      6  C   UNL     1      47.231   4.442  13.992  0.00  0.00    +0.000 A 
ATOM      7  N   UNL     1      46.365   3.474  13.572  0.00  0.00    +0.000 NA
ATOM      8  H   UNL     1      44.835   2.002  12.594  0.00  0.00    +0.000 HD
ENDROOT
BRANCH   5   9
ATOM      9  C   UNL     1      48.032   6.798  14.173  0.00  0.00    +0.000 C 
ATOM     10  N   UNL     1      47.525   8.029  14.501  0.00  0.00    +0.000 N 
ATOM     11  O   UNL     1      49.226   6.552  14.269  0.00  0.00    +0.000 OA
ATOM     12  H   UNL     1      46.530   8.209  14.421  0.00  0.00    +0.000 HD
ATOM     13  H   UNL     1      48.147   8.746  14.846  0.00  0.00    +0.000 HD
ENDBRANCH   5   9
BRANCH   1  14
ATOM     14  C   UNL     1      43.653   3.126  11.229  0.00  0.00    +0.000 C 
BRANCH  14  15
ATOM     15  C   UNL     1      43.995   2.076  10.167  0.00  0.00    +0.000 C 
BRANCH  15  20
ATOM     16  C   UNL     1      46.699   2.225   7.460  0.00  0.00    +0.000 A 
ATOM     17  C   UNL     1      46.784   3.606   7.242  0.00  0.00    +0.000 A 
ATOM     18  C   UNL     1      46.006   4.487   7.994  0.00  0.00    +0.000 A 
ATOM     19  C   UNL     1      45.123   4.001   8.960  0.00  0.00    +0.000 A 
ATOM     20  C   UNL     1      45.008   2.623   9.184  0.00  0.00    +0.000 A 
ATOM     21  C   UNL     1      45.801   1.745   8.426  0.00  0.00    +0.000 A 
BRANCH  16  22
ATOM     22  C   UNL     1      47.530   1.267   6.646  0.00  0.00    +0.000 C 
BRANCH  22  23
ATOM     23  N   UNL     1      48.530   1.972   5.854  0.00  0.00    +0.000 NA
ATOM     24  H   UNL     1      48.088   2.765   5.392  0.00  0.00    +0.000 HD
ATOM     25  H   UNL     1      48.856   1.354   5.111  0.00  0.00    +0.000 HD
ENDBRANCH  22  23
ENDBRANCH  16  22
ENDBRANCH  15  20
ENDBRANCH  14  15
ENDBRANCH   1  14
TORSDOF 6
ENDMDL
MODEL 3
REMARK VINA RESULT:    -7.599      1.492      2.352
REMARK INTER + INTRA:         -10.509
REMARK INTER:                 -10.077
REMARK INTRA:                  -0.432
REMARK UNBOUND:                -0.466
REMARK  Name = 
REMARK  6 active torsions:
REMARK  status: ('A' for Active; 'I' for Inactive)
REMARK    1  A    between atoms: N_1  and  C_2
REMARK    2  A    between atoms: C_2  and  C_3
REMARK    3  A    between atoms: C_7  and  C_8
REMARK    4  A    between atoms: C_8  and  C_9
REMARK    5  A    between atoms: C_9  and  N_10
REMARK    6  A    between atoms: C_14  and  C_15
REMARK                            x       y       z     vdW  Elec       q    Type
REMARK                         _______ _______ _______ _____ _____    ______ ____
ROOT
ATOM      1  N   UNL     1      43.682   4.417   9.958  0.00  0.00    +0.000 N 
ATOM      2  C   UNL     1      44.685   3.830   9.192  0.00  0.00    +0.000 A 
ATOM      3  C   UNL     1      44.925   2.447   9.144  0.00  0.00    +0.000 A 
ATOM      4  N   UNL     1      45.884   1.852   8.390  0.00  0.00    +0.000 NA
ATOM      5  C   UNL     1      46.600   2.713   7.626  0.00  0.00    +0.000 A 
ATOM      6  C   UNL     1      46.369   4.080   7.633  0.00  0.00    +0.000 A 
ATOM      7  N   UNL     1      45.417   4.662   8.419  0.00  0.00    +0.000 NA
ATOM      8  H   UNL     1      43.847   5.424   9.974  0.00  0.00    +0.000 HD
ENDROOT
BRANCH   5   9
ATOM      9  C   UNL     1      47.659   2.132   6.758  0.00  0.00    +0.000 C 
ATOM     10  N   UNL     1      48.115   2.928   5.739  0.00  0.00    +0.000 N 
ATOM     11  O   UNL     1      48.104   1.008   6.939  0.00  0.00    +0.000 OA
ATOM     12  H   UNL     1      47.738   3.861   5.613  0.00  0.00    +0.000 HD
ATOM     13  H   UNL     1      48.848   2.587   5.133  0.00  0.00    +0.000 HD
ENDBRANCH   5   9
BRANCH   1  14
ATOM     14  C   UNL     1      43.336   3.779  11.221  0.00  0.00    +0.000 C 
BRANCH  14  15
ATOM     15  C   UNL     1      43.190   4.794  12.360  0.00  0.00    +0.000 C 
BRANCH  15  20
ATOM     16  C   UNL     1      45.720   7.666  12.462  0.00  0.00    +0.000 A 
ATOM     17  C   UNL     1      46.815   7.037  13.068  0.00  0.00    +0.000 A 
ATOM     18  C   UNL     1      46.754   5.683  13.402  0.00  0.00    +0.000 A 
ATOM     19  C   UNL     1      45.595   4.946  13.150  0.00  0.00    +0.000 A 
ATOM     20  C   UNL     1      44.482   5.558  12.561  0.00  0.00    +0.000 A 
ATOM     21  C   UNL     1      44.556   6.919  12.223  0.00  0.00    +0.000 A 
BRANCH  16  22
ATOM     22  C   UNL     1      45.776   9.130  12.107  0.00  0.00    +0.000 C 
BRANCH  22  23
ATOM     23  N   UNL     1      44.641   9.855  12.664  0.00  0.00    +0.000 NA
ATOM     24  H   UNL     1      44.748   9.914  13.675  0.00  0.00    +0.000 HD
ATOM     25  H   UNL     1      43.793   9.315  12.498  0.00  0.00    +0.000 HD
ENDBRANCH  22  23
ENDBRANCH  16  22
ENDBRANCH  15  20
ENDBRANCH  14  15
ENDBRANCH   1  14
TORSDOF 6
ENDMDL
MODEL 4
REMARK VINA RESULT:    -6.979      3.059      7.264
REMARK INTER + INTRA:          -9.689
REMARK INTER:                  -9.384
REMARK INTRA:                  -0.305
REMARK UNBOUND:                -0.466
REMARK  Name = 
REMARK  6 active torsions:
REMARK  status: ('A' for Active; 'I' for Inactive)
REMARK    1  A    between atoms: N_1  and  C_2
REMARK    2  A    between atoms: C_2  and  C_3
REMARK    3  A    between atoms: C_7  and  C_8
REMARK    4  A    between atoms: C_8  and  C_9
REMARK    5  A    between atoms: C_9  and  N_10
REMARK    6  A    between atoms: C_14  and  C_15
REMARK                            x       y       z     vdW  Elec       q    Type
REMARK                         _______ _______ _______ _____ _____    ______ ____
ROOT
ATOM      1  N   UNL     1      45.165   4.432  11.745  0.00  0.00    +0.000 N 
ATOM      2  C   UNL     1      46.030   4.813  12.767  0.00  0.00    +0.000 A 
ATOM      3  C   UNL     1      46.615   6.086  12.863  0.00  0.00    +0.000 A 
ATOM      4  N   UNL     1      47.444   6.485  13.861  0.00  0.00    +0.000 NA
ATOM      5  C   UNL     1      47.649   5.548  14.818  0.00  0.00    +0.000 A 
ATOM      6  C   UNL     1      47.065   4.291  14.763  0.00  0.00    +0.000 A 
ATOM      7  N   UNL     1      46.255   3.900  13.737  0.00  0.00    +0.000 NA
ATOM      8  H   UNL     1      45.046   3.419  11.795  0.00  0.00    +0.000 HD
ENDROOT
BRANCH   5   9
ATOM      9  C   UNL     1      48.535   5.919  15.954  0.00  0.00    +0.000 C 
ATOM     10  N   UNL     1      47.924   6.086  17.171  0.00  0.00    +0.000 N 
ATOM     11  O   UNL     1      49.740   6.065  15.817  0.00  0.00    +0.000 OA
ATOM     12  H   UNL     1      46.924   5.951  17.262  0.00  0.00    +0.000 HD
ATOM     13  H   UNL     1      48.485   6.320  17.978  0.00  0.00    +0.000 HD
ENDBRANCH   5   9
BRANCH   1  14
ATOM     14  C   UNL     1      45.381   5.012  10.426  0.00  0.00    +0.000 C 
BRANCH  14  15
ATOM     15  C   UNL     1      44.456   4.401   9.368  0.00  0.00    +0.000 C 
BRANCH  15  20
ATOM     16  C   UNL     1      46.607   2.624   6.747  0.00  0.00    +0.000 A 
ATOM     17  C   UNL     1      46.631   1.321   7.259  0.00  0.00    +0.000 A 
ATOM     18  C   UNL     1      45.922   1.006   8.419  0.00  0.00    +0.000 A 
ATOM     19  C   UNL     1      45.194   1.991   9.090  0.00  0.00    +0.000 A 
ATOM     20  C   UNL     1      45.169   3.305   8.606  0.00  0.00    +0.000 A 
ATOM     21  C   UNL     1      45.881   3.610   7.434  0.00  0.00    +0.000 A 
BRANCH  16  22
ATOM     22  C   UNL     1      47.379   2.973   5.500  0.00  0.00    +0.000 C 
BRANCH  22  23
ATOM     23  N   UNL     1      48.456   2.022   5.258  0.00  0.00    +0.000 NA
ATOM     24  H   UNL     1      49.135   2.442   4.626  0.00  0.00    +0.000 HD
ATOM     25  H   UNL     1      48.076   1.211   4.772  0.00  0.00    +0.000 HD
ENDBRANCH  22  23
ENDBRANCH  16  22
ENDBRANCH  15  20
ENDBRANCH  14  15
ENDBRANCH   1  14
TORSDOF 6
ENDMDL
MODEL 5
REMARK VINA RESULT:    -6.682      3.911      6.572
REMARK INTER + INTRA:          -9.296
REMARK INTER:                  -8.994
REMARK INTRA:                  -0.302
REMARK UNBOUND:                -0.466
REMARK  Name = 
REMARK  6 active torsions:
REMARK  status: ('A' for Active; 'I' for Inactive)
REMARK    1  A    between atoms: N_1  and  C_2
REMARK    2  A    between atoms: C_2  and  C_3
REMARK    3  A    between atoms: C_7  and  C_8
REMARK    4  A    between atoms: C_8  and  C_9
REMARK    5  A    between atoms: C_9  and  N_10
REMARK    6  A    between atoms: C_14  and  C_15
REMARK                            x       y       z     vdW  Elec       q    Type
REMARK                         _______ _______ _______ _____ _____    ______ ____
ROOT
ATOM      1  N   UNL     1      47.243   3.567  14.575  0.00  0.00    +0.000 N 
ATOM      2  C   UNL     1      46.254   4.031  13.711  0.00  0.00    +0.000 A 
ATOM      3  C   UNL     1      45.853   5.374  13.632  0.00  0.00    +0.000 A 
ATOM      4  N   UNL     1      44.906   5.852  12.784  0.00  0.00    +0.000 NA
ATOM      5  C   UNL     1      44.379   4.915  11.959  0.00  0.00    +0.000 A 
ATOM      6  C   UNL     1      44.773   3.586  11.998  0.00  0.00    +0.000 A 
ATOM      7  N   UNL     1      45.708   3.120  12.876  0.00  0.00    +0.000 NA
ATOM      8  H   UNL     1      47.201   2.547  14.582  0.00  0.00    +0.000 HD
ENDROOT
BRANCH   5   9
ATOM      9  C   UNL     1      43.346   5.367  10.989  0.00  0.00    +0.000 C 
ATOM     10  N   UNL     1      42.444   6.291  11.448  0.00  0.00    +0.000 N 
ATOM     11  O   UNL     1      43.301   4.943   9.843  0.00  0.00    +0.000 OA
ATOM     12  H   UNL     1      42.506   6.635  12.400  0.00  0.00    +0.000 HD
ATOM     13  H   UNL     1      41.734   6.645  10.823  0.00  0.00    +0.000 HD
ENDBRANCH   5   9
BRANCH   1  14
ATOM     14  C   UNL     1      47.383   4.235  15.862  0.00  0.00    +0.000 C 
BRANCH  14  15
ATOM     15  C   UNL     1      47.796   3.265  16.974  0.00  0.00    +0.000 C 
BRANCH  15  20
ATOM     16  C   UNL     1      51.485   2.447  17.591  0.00  0.00    +0.000 A 
ATOM     17  C   UNL     1      52.017   3.730  17.773  0.00  0.00    +0.000 A 
ATOM     18  C   UNL     1      51.184   4.849  17.740  0.00  0.00    +0.000 A 
ATOM     19  C   UNL     1      49.814   4.703  17.510  0.00  0.00    +0.000 A 
ATOM     20  C   UNL     1      49.263   3.432  17.309  0.00  0.00    +0.000 A 
ATOM     21  C   UNL     1      50.108   2.311  17.350  0.00  0.00    +0.000 A 
BRANCH  16  22
ATOM     22  C   UNL     1      52.380   1.234  17.616  0.00  0.00    +0.000 C 
BRANCH  22  23
ATOM     23  N   UNL     1      51.696   0.082  18.188  0.00  0.00    +0.000 NA
ATOM     24  H   UNL     1      51.210   0.370  19.035  0.00  0.00    +0.000 HD
ATOM     25  H   UNL     1      52.392  -0.604  18.476  0.00  0.00    +0.000 HD
ENDBRANCH  22  23
ENDBRANCH  16  22
ENDBRANCH  15  20
ENDBRANCH  14  15
ENDBRANCH   1  14
TORSDOF 6
ENDMDL
MODEL 6
REMARK VINA RESULT:    -6.628      3.284      7.158
REMARK INTER + INTRA:          -9.225
REMARK INTER:                  -8.767
REMARK INTRA:                  -0.458
REMARK UNBOUND:                -0.466
REMARK  Name = 
REMARK  6 active torsions:
REMARK  status: ('A' for Active; 'I' for Inactive)
REMARK    1  A    between atoms: N_1  and  C_2
REMARK    2  A    between atoms: C_2  and  C_3
REMARK    3  A    between atoms: C_7  and  C_8
REMARK    4  A    between atoms: C_8  and  C_9
REMARK    5  A    between atoms: C_9  and  N_10
REMARK    6  A    between atoms: C_14  and  C_15
REMARK                            x       y       z     vdW  Elec       q    Type
REMARK                         _______ _______ _______ _____ _____    ______ ____
ROOT
ATOM      1  N   UNL     1      47.121   6.515  12.768  0.00  0.00    +0.000 N 
ATOM      2  C   UNL     1      47.288   5.773  13.934  0.00  0.00    +0.000 A 
ATOM      3  C   UNL     1      46.592   4.585  14.211  0.00  0.00    +0.000 A 
ATOM      4  N   UNL     1      46.753   3.835  15.332  0.00  0.00    +0.000 NA
ATOM      5  C   UNL     1      47.696   4.309  16.183  0.00  0.00    +0.000 A 
ATOM      6  C   UNL     1      48.415   5.465  15.924  0.00  0.00    +0.000 A 
ATOM      7  N   UNL     1      48.220   6.219  14.804  0.00  0.00    +0.000 NA
ATOM      8  H   UNL     1      47.579   7.417  12.901  0.00  0.00    +0.000 HD
ENDROOT
BRANCH   5   9
ATOM      9  C   UNL     1      47.941   3.530  17.427  0.00  0.00    +0.000 C 
ATOM     10  N   UNL     1      46.945   2.670  17.812  0.00  0.00    +0.000 N 
ATOM     11  O   UNL     1      48.973   3.646  18.072  0.00  0.00    +0.000 OA
ATOM     12  H   UNL     1      46.102   2.585  17.256  0.00  0.00    +0.000 HD
ATOM     13  H   UNL     1      47.071   2.105  18.639  0.00  0.00    +0.000 HD
ENDBRANCH   5   9
BRANCH   1  14
ATOM     14  C   UNL     1      45.798   6.524  12.157  0.00  0.00    +0.000 C 
BRANCH  14  15
ATOM     15  C   UNL     1      45.870   6.512  10.626  0.00  0.00    +0.000 C 
BRANCH  15  20
ATOM     16  C   UNL     1      45.508   3.499   8.291  0.00  0.00    +0.000 A 
ATOM     17  C   UNL     1      44.803   2.609   9.111  0.00  0.00    +0.000 A 
ATOM     18  C   UNL     1      44.408   2.993  10.393  0.00  0.00    +0.000 A 
ATOM     19  C   UNL     1      44.725   4.264  10.878  0.00  0.00    +0.000 A 
ATOM     20  C   UNL     1      45.444   5.165  10.083  0.00  0.00    +0.000 A 
ATOM     21  C   UNL     1      45.832   4.771   8.792  0.00  0.00    +0.000 A 
BRANCH  16  22
ATOM     22  C   UNL     1      45.945   3.088   6.909  0.00  0.00    +0.000 C 
BRANCH  22  23
ATOM     23  N   UNL     1      46.933   4.013   6.368  0.00  0.00    +0.000 NA
ATOM     24  H   UNL     1      46.567   4.961   6.424  0.00  0.00    +0.000 HD
ATOM     25  H   UNL     1      47.061   3.814   5.376  0.00  0.00    +0.000 HD
ENDBRANCH  22  23
ENDBRANCH  16  22
ENDBRANCH  15  20
ENDBRANCH  14  15
ENDBRANCH   1  14
TORSDOF 6
ENDMDL
MODEL 7
REMARK VINA RESULT:    -6.361      3.953      7.025
REMARK INTER + INTRA:          -8.872
REMARK INTER:                  -8.451
REMARK INTRA:                  -0.421
REMARK UNBOUND:                -0.466
REMARK  Name = 
REMARK  6 active torsions:
REMARK  status: ('A' for Active; 'I' for Inactive)
REMARK    1  A    between atoms: N_1  and  C_2
REMARK    2  A    between atoms: C_2  and  C_3
REMARK    3  A    between atoms: C_7  and  C_8
REMARK    4  A    between atoms: C_8  and  C_9
REMARK    5  A    between atoms: C_9  and  N_10
REMARK    6  A    between atoms: C_14  and  C_15
REMARK                            x       y       z     vdW  Elec       q    Type
REMARK                         _______ _______ _______ _____ _____    ______ ____
ROOT
ATOM      1  N   UNL     1      48.275   6.971  13.669  0.00  0.00    +0.000 N 
ATOM      2  C   UNL     1      48.044   6.041  14.679  0.00  0.00    +0.000 A 
ATOM      3  C   UNL     1      47.048   5.052  14.619  0.00  0.00    +0.000 A 
ATOM      4  N   UNL     1      46.818   4.124  15.582  0.00  0.00    +0.000 NA
ATOM      5  C   UNL     1      47.672   4.193  16.632  0.00  0.00    +0.000 A 
ATOM      6  C   UNL     1      48.680   5.142  16.707  0.00  0.00    +0.000 A 
ATOM      7  N   UNL     1      48.879   6.084  15.740  0.00  0.00    +0.000 NA
ATOM      8  H   UNL     1      48.901   7.687  14.039  0.00  0.00    +0.000 HD
ENDROOT
BRANCH   5   9
ATOM      9  C   UNL     1      47.493   3.196  17.721  0.00  0.00    +0.000 C 
ATOM     10  N   UNL     1      48.457   3.180  18.696  0.00  0.00    +0.000 N 
ATOM     11  O   UNL     1      46.539   2.431  17.752  0.00  0.00    +0.000 OA
ATOM     12  H   UNL     1      49.235   3.829  18.654  0.00  0.00    +0.000 HD
ATOM     13  H   UNL     1      48.371   2.534  19.468  0.00  0.00    +0.000 HD
ENDBRANCH   5   9
BRANCH   1  14
ATOM     14  C   UNL     1      47.128   7.425  12.894  0.00  0.00    +0.000 C 
BRANCH  14  15
ATOM     15  C   UNL     1      47.019   6.700  11.548  0.00  0.00    +0.000 C 
BRANCH  15  20
ATOM     16  C   UNL     1      44.114   4.280  10.946  0.00  0.00    +0.000 A 
ATOM     17  C   UNL     1      43.016   5.133  11.109  0.00  0.00    +0.000 A 
ATOM     18  C   UNL     1      43.211   6.490  11.368  0.00  0.00    +0.000 A 
ATOM     19  C   UNL     1      44.502   7.009  11.483  0.00  0.00    +0.000 A 
ATOM     20  C   UNL     1      45.615   6.171  11.341  0.00  0.00    +0.000 A 
ATOM     21  C   UNL     1      45.409   4.808  11.074  0.00  0.00    +0.000 A 
BRANCH  16  22
ATOM     22  C   UNL     1      43.911   2.811  10.674  0.00  0.00    +0.000 C 
BRANCH  22  23
ATOM     23  N   UNL     1      43.058   2.197  11.684  0.00  0.00    +0.000 NA
ATOM     24  H   UNL     1      43.609   2.025  12.524  0.00  0.00    +0.000 HD
ATOM     25  H   UNL     1      42.757   1.283  11.348  0.00  0.00    +0.000 HD
ENDBRANCH  22  23
ENDBRANCH  16  22
ENDBRANCH  15  20
ENDBRANCH  14  15
ENDBRANCH   1  14
TORSDOF 6
ENDMDL
MODEL 8
REMARK VINA RESULT:    -6.313      3.642      5.796
REMARK INTER + INTRA:          -8.810
REMARK INTER:                  -8.290
REMARK INTRA:                  -0.519
REMARK UNBOUND:                -0.466
REMARK  Name = 
REMARK  6 active torsions:
REMARK  status: ('A' for Active; 'I' for Inactive)
REMARK    1  A    between atoms: N_1  and  C_2
REMARK    2  A    between atoms: C_2  and  C_3
REMARK    3  A    between atoms: C_7  and  C_8
REMARK    4  A    between atoms: C_8  and  C_9
REMARK    5  A    between atoms: C_9  and  N_10
REMARK    6  A    between atoms: C_14  and  C_15
REMARK                            x       y       z     vdW  Elec       q    Type
REMARK                         _______ _______ _______ _____ _____    ______ ____
ROOT
ATOM      1  N   UNL     1      47.137   7.247  13.824  0.00  0.00    +0.000 N 
ATOM      2  C   UNL     1      46.358   6.226  13.287  0.00  0.00    +0.000 A 
ATOM      3  C   UNL     1      46.487   4.874  13.643  0.00  0.00    +0.000 A 
ATOM      4  N   UNL     1      45.726   3.865  13.147  0.00  0.00    +0.000 NA
ATOM      5  C   UNL     1      44.767   4.271  12.279  0.00  0.00    +0.000 A 
ATOM      6  C   UNL     1      44.600   5.602  11.928  0.00  0.00    +0.000 A 
ATOM      7  N   UNL     1      45.393   6.598  12.417  0.00  0.00    +0.000 NA
ATOM      8  H   UNL     1      46.986   8.086  13.262  0.00  0.00    +0.000 HD
ENDROOT
BRANCH   5   9
ATOM      9  C   UNL     1      43.881   3.222  11.706  0.00  0.00    +0.000 C 
ATOM     10  N   UNL     1      43.691   2.102  12.473  0.00  0.00    +0.000 N 
ATOM     11  O   UNL     1      43.347   3.349  10.614  0.00  0.00    +0.000 OA
ATOM     12  H   UNL     1      44.138   2.022  13.380  0.00  0.00    +0.000 HD
ATOM     13  H   UNL     1      43.083   1.368  12.137  0.00  0.00    +0.000 HD
ENDBRANCH   5   9
BRANCH   1  14
ATOM     14  C   UNL     1      48.511   6.928  14.187  0.00  0.00    +0.000 C 
BRANCH  14  15
ATOM     15  C   UNL     1      48.843   7.357  15.621  0.00  0.00    +0.000 C 
BRANCH  15  20
ATOM     16  C   UNL     1      48.937   4.013  17.483  0.00  0.00    +0.000 A 
ATOM     17  C   UNL     1      50.302   3.909  17.777  0.00  0.00    +0.000 A 
ATOM     18  C   UNL     1      51.181   4.931  17.416  0.00  0.00    +0.000 A 
ATOM     19  C   UNL     1      50.711   6.061  16.744  0.00  0.00    +0.000 A 
ATOM     20  C   UNL     1      49.353   6.179  16.424  0.00  0.00    +0.000 A 
ATOM     21  C   UNL     1      48.476   5.148  16.797  0.00  0.00    +0.000 A 
BRANCH  16  22
ATOM     22  C   UNL     1      47.984   2.909  17.863  0.00  0.00    +0.000 C 
BRANCH  22  23
ATOM     23  N   UNL     1      46.623   3.215  17.440  0.00  0.00    +0.000 NA
ATOM     24  H   UNL     1      46.345   2.558  16.713  0.00  0.00    +0.000 HD
ATOM     25  H   UNL     1      46.612   4.138  17.010  0.00  0.00    +0.000 HD
ENDBRANCH  22  23
ENDBRANCH  16  22
ENDBRANCH  15  20
ENDBRANCH  14  15
ENDBRANCH   1  14
TORSDOF 6
ENDMDL
MODEL 9
REMARK VINA RESULT:    -6.018      4.089      6.555
REMARK INTER + INTRA:          -8.420
REMARK INTER:                  -8.124
REMARK INTRA:                  -0.295
REMARK UNBOUND:                -0.466
REMARK  Name = 
REMARK  6 active torsions:
REMARK  status: ('A' for Active; 'I' for Inactive)
REMARK    1  A    between atoms: N_1  and  C_2
REMARK    2  A    between atoms: C_2  and  C_3
REMARK    3  A    between atoms: C_7  and  C_8
REMARK    4  A    between atoms: C_8  and  C_9
REMARK    5  A    between atoms: C_9  and  N_10
REMARK    6  A    between atoms: C_14  and  C_15
REMARK                            x       y       z     vdW  Elec       q    Type
REMARK                         _______ _______ _______ _____ _____    ______ ____
ROOT
ATOM      1  N   UNL     1      47.265   3.482  14.703  0.00  0.00    +0.000 N 
ATOM      2  C   UNL     1      46.379   3.884  13.707  0.00  0.00    +0.000 A 
ATOM      3  C   UNL     1      46.064   5.225  13.435  0.00  0.00    +0.000 A 
ATOM      4  N   UNL     1      45.219   5.640  12.457  0.00  0.00    +0.000 NA
ATOM      5  C   UNL     1      44.709   4.635  11.704  0.00  0.00    +0.000 A 
ATOM      6  C   UNL     1      45.021   3.304  11.933  0.00  0.00    +0.000 A 
ATOM      7  N   UNL     1      45.852   2.905  12.939  0.00  0.00    +0.000 NA
ATOM      8  H   UNL     1      47.164   2.474  14.826  0.00  0.00    +0.000 HD
ENDROOT
BRANCH   5   9
ATOM      9  C   UNL     1      43.787   5.014  10.600  0.00  0.00    +0.000 C 
ATOM     10  N   UNL     1      44.184   4.673   9.332  0.00  0.00    +0.000 N 
ATOM     11  O   UNL     1      42.732   5.596  10.805  0.00  0.00    +0.000 OA
ATOM     12  H   UNL     1      45.060   4.182   9.187  0.00  0.00    +0.000 HD
ATOM     13  H   UNL     1      43.584   4.891   8.549  0.00  0.00    +0.000 HD
ENDBRANCH   5   9
BRANCH   1  14
ATOM     14  C   UNL     1      47.337   4.295  15.910  0.00  0.00    +0.000 C 
BRANCH  14  15
ATOM     15  C   UNL     1      47.618   3.451  17.158  0.00  0.00    +0.000 C 
BRANCH  15  20
ATOM     16  C   UNL     1      51.279   4.026  18.119  0.00  0.00    +0.000 A 
ATOM     17  C   UNL     1      51.840   2.784  17.795  0.00  0.00    +0.000 A 
ATOM     18  C   UNL     1      51.051   1.782  17.228  0.00  0.00    +0.000 A 
ATOM     19  C   UNL     1      49.692   2.000  16.994  0.00  0.00    +0.000 A 
ATOM     20  C   UNL     1      49.106   3.228  17.326  0.00  0.00    +0.000 A 
ATOM     21  C   UNL     1      49.909   4.233  17.890  0.00  0.00    +0.000 A 
BRANCH  16  22
ATOM     22  C   UNL     1      52.123   5.111  18.740  0.00  0.00    +0.000 C 
BRANCH  22  23
ATOM     23  N   UNL     1      52.516   4.765  20.100  0.00  0.00    +0.000 NA
ATOM     24  H   UNL     1      53.530   4.822  20.177  0.00  0.00    +0.000 HD
ATOM     25  H   UNL     1      52.270   3.791  20.275  0.00  0.00    +0.000 HD
ENDBRANCH  22  23
ENDBRANCH  16  22
ENDBRANCH  15  20
ENDBRANCH  14  15
ENDBRANCH   1  14
TORSDOF 6
ENDMDL
