MODEL 1
REMARK VINA RESULT:    -8.758      0.000      0.000
REMARK INTER + INTRA:         -11.918
REMARK INTER:                 -11.318
REMARK INTRA:                  -0.599
REMARK UNBOUND:                -0.599
REMARK  Name = 
REMARK  5 active torsions:
REMARK  status: ('A' for Active; 'I' for Inactive)
REMARK    1  A    between atoms: C_2  and  C_4
REMARK    2  A    between atoms: C_7  and  O_8
REMARK    3  A    between atoms: O_8  and  C_9
REMARK    4  A    between atoms: C_9  and  C_10
REMARK    5  A    between atoms: C_15  and  C_16
REMARK                            x       y       z     vdW  Elec       q    Type
REMARK                         _______ _______ _______ _____ _____    ______ ____
ROOT
ATOM      1  C   UNL     1      44.786   4.762  12.031  0.00  0.00    +0.000 A 
ATOM      2  C   UNL     1      45.463   3.819  12.815  0.00  0.00    +0.000 A 
ATOM      3  C   UNL     1      46.639   4.168  13.454  0.00  0.00    +0.000 A 
ATOM      4  F   UNL     1      47.270   3.262  14.211  0.00  0.00    +0.000 F 
ATOM      5  C   UNL     1      47.180   5.440  13.315  0.00  0.00    +0.000 A 
ATOM      6  C   UNL     1      46.562   6.396  12.498  0.00  0.00    +0.000 A 
ATOM      7  C   UNL     1      45.336   6.047  11.893  0.00  0.00    +0.000 A 
ENDROOT
BRANCH   6   8
ATOM      8  C   UNL     1      47.148   7.786  12.245  0.00  0.00    +0.000 C 
ATOM      9  C   UNL     1      48.614   7.724  11.764  0.00  0.00    +0.000 C 
ATOM     10  C   UNL     1      49.584   7.438  12.911  0.00  0.00    +0.000 C 
ATOM     11  N   UNL     1      49.480   8.443  13.971  0.00  0.00    +0.000 NA
ATOM     12  C   UNL     1      48.120   8.506  14.507  0.00  0.00    +0.000 C 
ATOM     13  C   UNL     1      47.077   8.784  13.421  0.00  0.00    +0.000 C 
ATOM     14  H   UNL     1      49.734   9.355  13.594  0.00  0.00    +0.000 HD
ENDBRANCH   6   8
BRANCH   1  15
ATOM     15  C   UNL     1      43.509   4.325  11.357  0.00  0.00    +0.000 C 
BRANCH  15  16
ATOM     16  O   UNL     1      43.514   4.507   9.941  0.00  0.00    +0.000 OA
BRANCH  16  20
ATOM     17  C   UNL     1      46.394   2.432   7.739  0.00  0.00    +0.000 A 
ATOM     18  C   UNL     1      45.564   1.709   8.602  0.00  0.00    +0.000 A 
ATOM     19  C   UNL     1      44.592   2.373   9.355  0.00  0.00    +0.000 A 
ATOM     20  C   UNL     1      44.443   3.760   9.260  0.00  0.00    +0.000 A 
ATOM     21  C   UNL     1      45.292   4.482   8.417  0.00  0.00    +0.000 A 
ATOM     22  C   UNL     1      46.268   3.822   7.662  0.00  0.00    +0.000 A 
BRANCH  17  24
ATOM     23  N   UNL     1      48.491   2.497   6.510  0.00  0.00    +0.000 N 
ATOM     24  C   UNL     1      47.419   1.748   6.912  0.00  0.00    +0.000 C 
ATOM     25  O   UNL     1      47.334   0.559   6.633  0.00  0.00    +0.000 OA
ATOM     26  H   UNL     1      49.237   1.994   6.042  0.00  0.00    +0.000 HD
ATOM     27  H   UNL     1      48.722   3.380   6.939  0.00  0.00    +0.000 HD
ENDBRANCH  17  24
ENDBRANCH  16  20
ENDBRANCH  15  16
ENDBRANCH   1  15
TORSDOF 5
ENDMDL
MODEL 2
REMARK VINA RESULT:    -8.384      1.920      2.509
REMARK INTER + INTRA:         -11.434
REMARK INTER:                 -10.647
REMARK INTRA:                  -0.787
REMARK UNBOUND:                -0.599
REMARK  Name = 
REMARK  5 active torsions:
REMARK  status: ('A' for Active; 'I' for Inactive)
REMARK    1  A    between atoms: C_2  and  C_4
REMARK    2  A    between atoms: C_7  and  O_8
REMARK    3  A    between atoms: O_8  and  C_9
REMARK    4  A    between atoms: C_9  and  C_10
REMARK    5  A    between atoms: C_15  and  C_16
REMARK                            x       y       z     vdW  Elec       q    Type
REMARK                         _______ _______ _______ _____ _____    ______ ____
ROOT
ATOM      1  C   UNL     1      44.475   4.922  11.502  0.00  0.00    +0.000 A 
ATOM      2  C   UNL     1      43.452   5.859  11.311  0.00  0.00    +0.000 A 
ATOM      3  C   UNL     1      43.753   7.209  11.258  0.00  0.00    +0.000 A 
ATOM      4  F   UNL     1      42.769   8.095  11.063  0.00  0.00    +0.000 F 
ATOM      5  C   UNL     1      45.058   7.659  11.416  0.00  0.00    +0.000 A 
ATOM      6  C   UNL     1      46.102   6.757  11.662  0.00  0.00    +0.000 A 
ATOM      7  C   UNL     1      45.792   5.380  11.661  0.00  0.00    +0.000 A 
ENDROOT
BRANCH   6   8
ATOM      8  C   UNL     1      47.545   7.196  11.918  0.00  0.00    +0.000 C 
ATOM      9  C   UNL     1      48.293   6.226  12.857  0.00  0.00    +0.000 C 
ATOM     10  C   UNL     1      47.892   6.418  14.320  0.00  0.00    +0.000 C 
ATOM     11  N   UNL     1      48.136   7.790  14.771  0.00  0.00    +0.000 NA
ATOM     12  C   UNL     1      47.403   8.754  13.951  0.00  0.00    +0.000 C 
ATOM     13  C   UNL     1      47.740   8.627  12.461  0.00  0.00    +0.000 C 
ATOM     14  H   UNL     1      49.134   7.990  14.713  0.00  0.00    +0.000 HD
ENDBRANCH   6   8
BRANCH   1  15
ATOM     15  C   UNL     1      44.088   3.464  11.552  0.00  0.00    +0.000 C 
BRANCH  15  16
ATOM     16  O   UNL     1      43.595   2.958  10.311  0.00  0.00    +0.000 OA
BRANCH  16  20
ATOM     17  C   UNL     1      46.480   2.524   7.320  0.00  0.00    +0.000 A 
ATOM     18  C   UNL     1      45.837   3.759   7.455  0.00  0.00    +0.000 A 
ATOM     19  C   UNL     1      44.866   3.937   8.443  0.00  0.00    +0.000 A 
ATOM     20  C   UNL     1      44.521   2.886   9.300  0.00  0.00    +0.000 A 
ATOM     21  C   UNL     1      45.146   1.646   9.145  0.00  0.00    +0.000 A 
ATOM     22  C   UNL     1      46.118   1.462   8.156  0.00  0.00    +0.000 A 
BRANCH  17  24
ATOM     23  N   UNL     1      47.433   3.056   5.148  0.00  0.00    +0.000 N 
ATOM     24  C   UNL     1      47.530   2.315   6.294  0.00  0.00    +0.000 C 
ATOM     25  O   UNL     1      48.466   1.547   6.477  0.00  0.00    +0.000 OA
ATOM     26  H   UNL     1      48.213   2.988   4.504  0.00  0.00    +0.000 HD
ATOM     27  H   UNL     1      46.845   3.873   5.084  0.00  0.00    +0.000 HD
ENDBRANCH  17  24
ENDBRANCH  16  20
ENDBRANCH  15  16
ENDBRANCH   1  15
TORSDOF 5
ENDMDL
MODEL 3
REMARK VINA RESULT:    -8.128      1.745      2.361
REMARK INTER + INTRA:         -11.103
REMARK INTER:                 -10.574
REMARK INTRA:                  -0.528
REMARK UNBOUND:                -0.599
REMARK  Name = 
REMARK  5 active torsions:
REMARK  status: ('A' for Active; 'I' for Inactive)
REMARK    1  A    between atoms: C_2  and  C_4
REMARK    2  A    between atoms: C_7  and  O_8
REMARK    3  A    between atoms: O_8  and  C_9
REMARK    4  A    between atoms: C_9  and  C_10
REMARK    5  A    between atoms: C_15  and  C_16
REMARK                            x       y       z     vdW  Elec       q    Type
REMARK                         _______ _______ _______ _____ _____    ______ ____
ROOT
ATOM      1  C   UNL     1      44.842   5.923  11.647  0.00  0.00    +0.000 A 
ATOM      2  C   UNL     1      44.329   7.221  11.520  0.00  0.00    +0.000 A 
ATOM      3  C   UNL     1      45.145   8.312  11.763  0.00  0.00    +0.000 A 
ATOM      4  F   UNL     1      44.648   9.548  11.626  0.00  0.00    +0.000 F 
ATOM      5  C   UNL     1      46.467   8.145  12.156  0.00  0.00    +0.000 A 
ATOM      6  C   UNL     1      47.003   6.864  12.345  0.00  0.00    +0.000 A 
ATOM      7  C   UNL     1      46.178   5.759  12.044  0.00  0.00    +0.000 A 
ENDROOT
BRANCH   6   8
ATOM      8  C   UNL     1      48.426   6.617  12.847  0.00  0.00    +0.000 C 
ATOM      9  C   UNL     1      48.544   6.791  14.377  0.00  0.00    +0.000 C 
ATOM     10  C   UNL     1      48.570   8.264  14.788  0.00  0.00    +0.000 C 
ATOM     11  N   UNL     1      49.672   8.984  14.147  0.00  0.00    +0.000 NA
ATOM     12  C   UNL     1      49.580   8.903  12.690  0.00  0.00    +0.000 C 
ATOM     13  C   UNL     1      49.541   7.456  12.187  0.00  0.00    +0.000 C 
ATOM     14  H   UNL     1      50.558   8.580  14.450  0.00  0.00    +0.000 HD
ENDBRANCH   6   8
BRANCH   1  15
ATOM     15  C   UNL     1      43.907   4.771  11.370  0.00  0.00    +0.000 C 
BRANCH  15  16
ATOM     16  O   UNL     1      43.619   4.585   9.983  0.00  0.00    +0.000 OA
BRANCH  16  20
ATOM     17  C   UNL     1      46.427   2.435   7.761  0.00  0.00    +0.000 A 
ATOM     18  C   UNL     1      45.603   1.738   8.650  0.00  0.00    +0.000 A 
ATOM     19  C   UNL     1      44.655   2.427   9.410  0.00  0.00    +0.000 A 
ATOM     20  C   UNL     1      44.524   3.815   9.297  0.00  0.00    +0.000 A 
ATOM     21  C   UNL     1      45.367   4.511   8.427  0.00  0.00    +0.000 A 
ATOM     22  C   UNL     1      46.319   3.826   7.665  0.00  0.00    +0.000 A 
BRANCH  17  24
ATOM     23  N   UNL     1      48.470   2.466   6.443  0.00  0.00    +0.000 N 
ATOM     24  C   UNL     1      47.426   1.725   6.925  0.00  0.00    +0.000 C 
ATOM     25  O   UNL     1      47.346   0.522   6.709  0.00  0.00    +0.000 OA
ATOM     26  H   UNL     1      49.202   1.950   5.968  0.00  0.00    +0.000 HD
ATOM     27  H   UNL     1      48.706   3.371   6.818  0.00  0.00    +0.000 HD
ENDBRANCH  17  24
ENDBRANCH  16  20
ENDBRANCH  15  16
ENDBRANCH   1  15
TORSDOF 5
ENDMDL
MODEL 4
REMARK VINA RESULT:    -7.976      2.733      3.509
REMARK INTER + INTRA:         -10.906
REMARK INTER:                 -10.037
REMARK INTRA:                  -0.870
REMARK UNBOUND:                -0.599
REMARK  Name = 
REMARK  5 active torsions:
REMARK  status: ('A' for Active; 'I' for Inactive)
REMARK    1  A    between atoms: C_2  and  C_4
REMARK    2  A    between atoms: C_7  and  O_8
REMARK    3  A    between atoms: O_8  and  C_9
REMARK    4  A    between atoms: C_9  and  C_10
REMARK    5  A    between atoms: C_15  and  C_16
REMARK                            x       y       z     vdW  Elec       q    Type
REMARK                         _______ _______ _______ _____ _____    ______ ____
ROOT
ATOM      1  C   UNL     1      45.073   6.306  11.588  0.00  0.00    +0.000 A 
ATOM      2  C   UNL     1      46.470   6.213  11.632  0.00  0.00    +0.000 A 
ATOM      3  C   UNL     1      47.231   7.349  11.845  0.00  0.00    +0.000 A 
ATOM      4  F   UNL     1      48.565   7.246  11.898  0.00  0.00    +0.000 F 
ATOM      5  C   UNL     1      46.634   8.595  11.991  0.00  0.00    +0.000 A 
ATOM      6  C   UNL     1      45.243   8.738  11.901  0.00  0.00    +0.000 A 
ATOM      7  C   UNL     1      44.473   7.566  11.737  0.00  0.00    +0.000 A 
ENDROOT
BRANCH   6   8
ATOM      8  C   UNL     1      44.534  10.090  11.979  0.00  0.00    +0.000 C 
ATOM      9  C   UNL     1      43.331  10.177  11.015  0.00  0.00    +0.000 C 
ATOM     10  C   UNL     1      43.770  10.403   9.568  0.00  0.00    +0.000 C 
ATOM     11  N   UNL     1      44.571  11.621   9.430  0.00  0.00    +0.000 NA
ATOM     12  C   UNL     1      45.760  11.571  10.281  0.00  0.00    +0.000 C 
ATOM     13  C   UNL     1      45.412  11.340  11.755  0.00  0.00    +0.000 C 
ATOM     14  H   UNL     1      44.004  12.427   9.693  0.00  0.00    +0.000 HD
ENDBRANCH   6   8
BRANCH   1  15
ATOM     15  C   UNL     1      44.294   5.034  11.353  0.00  0.00    +0.000 C 
BRANCH  15  16
ATOM     16  O   UNL     1      43.889   4.850   9.996  0.00  0.00    +0.000 OA
BRANCH  16  20
ATOM     17  C   UNL     1      46.407   2.344   7.799  0.00  0.00    +0.000 A 
ATOM     18  C   UNL     1      46.497   3.725   7.598  0.00  0.00    +0.000 A 
ATOM     19  C   UNL     1      45.669   4.591   8.315  0.00  0.00    +0.000 A 
ATOM     20  C   UNL     1      44.738   4.090   9.232  0.00  0.00    +0.000 A 
ATOM     21  C   UNL     1      44.632   2.708   9.410  0.00  0.00    +0.000 A 
ATOM     22  C   UNL     1      45.459   1.836   8.693  0.00  0.00    +0.000 A 
BRANCH  17  24
ATOM     23  N   UNL     1      48.324   1.952   6.356  0.00  0.00    +0.000 N 
ATOM     24  C   UNL     1      47.291   1.404   7.067  0.00  0.00    +0.000 C 
ATOM     25  O   UNL     1      47.133   0.191   7.127  0.00  0.00    +0.000 OA
ATOM     26  H   UNL     1      48.985   1.297   5.952  0.00  0.00    +0.000 HD
ATOM     27  H   UNL     1      48.637   2.899   6.504  0.00  0.00    +0.000 HD
ENDBRANCH  17  24
ENDBRANCH  16  20
ENDBRANCH  15  16
ENDBRANCH   1  15
TORSDOF 5
ENDMDL
MODEL 5
REMARK VINA RESULT:    -7.236      2.530      3.516
REMARK INTER + INTRA:          -9.951
REMARK INTER:                  -9.413
REMARK INTRA:                  -0.538
REMARK UNBOUND:                -0.599
REMARK  Name = 
REMARK  5 active torsions:
REMARK  status: ('A' for Active; 'I' for Inactive)
REMARK    1  A    between atoms: C_2  and  C_4
REMARK    2  A    between atoms: C_7  and  O_8
REMARK    3  A    between atoms: O_8  and  C_9
REMARK    4  A    between atoms: C_9  and  C_10
REMARK    5  A    between atoms: C_15  and  C_16
REMARK                            x       y       z     vdW  Elec       q    Type
REMARK                         _______ _______ _______ _____ _____    ______ ____
ROOT
ATOM      1  C   UNL     1      45.986   4.409  12.966  0.00  0.00    +0.000 A 
ATOM      2  C   UNL     1      46.601   5.520  12.376  0.00  0.00    +0.000 A 
ATOM      3  C   UNL     1      47.489   6.288  13.110  0.00  0.00    +0.000 A 
ATOM      4  F   UNL     1      48.081   7.341  12.531  0.00  0.00    +0.000 F 
ATOM      5  C   UNL     1      47.765   5.992  14.438  0.00  0.00    +0.000 A 
ATOM      6  C   UNL     1      47.131   4.920  15.081  0.00  0.00    +0.000 A 
ATOM      7  C   UNL     1      46.269   4.111  14.309  0.00  0.00    +0.000 A 
ENDROOT
BRANCH   6   8
ATOM      8  C   UNL     1      47.337   4.589  16.559  0.00  0.00    +0.000 C 
ATOM      9  C   UNL     1      48.501   5.392  17.181  0.00  0.00    +0.000 C 
ATOM     10  C   UNL     1      49.865   4.827  16.783  0.00  0.00    +0.000 C 
ATOM     11  N   UNL     1      50.003   3.423  17.173  0.00  0.00    +0.000 NA
ATOM     12  C   UNL     1      48.958   2.601  16.564  0.00  0.00    +0.000 C 
ATOM     13  C   UNL     1      47.550   3.100  16.906  0.00  0.00    +0.000 C 
ATOM     14  H   UNL     1      49.941   3.348  18.188  0.00  0.00    +0.000 HD
ENDBRANCH   6   8
BRANCH   1  15
ATOM     15  C   UNL     1      45.028   3.607  12.119  0.00  0.00    +0.000 C 
BRANCH  15  16
ATOM     16  O   UNL     1      44.598   4.286  10.939  0.00  0.00    +0.000 OA
BRANCH  16  20
ATOM     17  C   UNL     1      46.494   2.871   7.496  0.00  0.00    +0.000 A 
ATOM     18  C   UNL     1      46.387   4.253   7.680  0.00  0.00    +0.000 A 
ATOM     19  C   UNL     1      45.757   4.760   8.819  0.00  0.00    +0.000 A 
ATOM     20  C   UNL     1      45.222   3.896   9.780  0.00  0.00    +0.000 A 
ATOM     21  C   UNL     1      45.306   2.516   9.580  0.00  0.00    +0.000 A 
ATOM     22  C   UNL     1      45.935   2.003   8.440  0.00  0.00    +0.000 A 
BRANCH  17  24
ATOM     23  N   UNL     1      47.068   3.010   5.138  0.00  0.00    +0.000 N 
ATOM     24  C   UNL     1      47.178   2.307   6.307  0.00  0.00    +0.000 C 
ATOM     25  O   UNL     1      47.845   1.283   6.372  0.00  0.00    +0.000 OA
ATOM     26  H   UNL     1      47.628   2.676   4.362  0.00  0.00    +0.000 HD
ATOM     27  H   UNL     1      46.763   3.971   5.114  0.00  0.00    +0.000 HD
ENDBRANCH  17  24
ENDBRANCH  16  20
ENDBRANCH  15  16
ENDBRANCH   1  15
TORSDOF 5
ENDMDL
MODEL 6
REMARK VINA RESULT:    -7.177      4.969      7.814
REMARK INTER + INTRA:          -9.874
REMARK INTER:                  -9.501
REMARK INTRA:                  -0.373
REMARK UNBOUND:                -0.599
REMARK  Name = 
REMARK  5 active torsions:
REMARK  status: ('A' for Active; 'I' for Inactive)
REMARK    1  A    between atoms: C_2  and  C_4
REMARK    2  A    between atoms: C_7  and  O_8
REMARK    3  A    between atoms: O_8  and  C_9
REMARK    4  A    between atoms: C_9  and  C_10
REMARK    5  A    between atoms: C_15  and  C_16
REMARK                            x       y       z     vdW  Elec       q    Type
REMARK                         _______ _______ _______ _____ _____    ______ ____
ROOT
ATOM      1  C   UNL     1      46.686   4.998  14.095  0.00  0.00    +0.000 A 
ATOM      2  C   UNL     1      47.701   5.881  13.707  0.00  0.00    +0.000 A 
ATOM      3  C   UNL     1      47.591   6.579  12.517  0.00  0.00    +0.000 A 
ATOM      4  F   UNL     1      48.562   7.430  12.162  0.00  0.00    +0.000 F 
ATOM      5  C   UNL     1      46.496   6.402  11.680  0.00  0.00    +0.000 A 
ATOM      6  C   UNL     1      45.485   5.488  12.008  0.00  0.00    +0.000 A 
ATOM      7  C   UNL     1      45.581   4.821  13.248  0.00  0.00    +0.000 A 
ENDROOT
BRANCH   6   8
ATOM      8  C   UNL     1      44.295   5.195  11.094  0.00  0.00    +0.000 C 
ATOM      9  C   UNL     1      43.175   4.421  11.823  0.00  0.00    +0.000 C 
ATOM     10  C   UNL     1      43.514   2.939  11.987  0.00  0.00    +0.000 C 
ATOM     11  N   UNL     1      43.765   2.296  10.697  0.00  0.00    +0.000 NA
ATOM     12  C   UNL     1      44.860   2.953   9.983  0.00  0.00    +0.000 C 
ATOM     13  C   UNL     1      44.607   4.450   9.778  0.00  0.00    +0.000 C 
ATOM     14  H   UNL     1      42.920   2.341  10.128  0.00  0.00    +0.000 HD
ENDBRANCH   6   8
BRANCH   1  15
ATOM     15  C   UNL     1      46.859   4.264  15.403  0.00  0.00    +0.000 C 
BRANCH  15  16
ATOM     16  O   UNL     1      47.771   4.897  16.301  0.00  0.00    +0.000 OA
BRANCH  16  20
ATOM     17  C   UNL     1      50.924   2.377  17.377  0.00  0.00    +0.000 A 
ATOM     18  C   UNL     1      51.023   3.739  17.680  0.00  0.00    +0.000 A 
ATOM     19  C   UNL     1      49.988   4.609  17.332  0.00  0.00    +0.000 A 
ATOM     20  C   UNL     1      48.849   4.134  16.674  0.00  0.00    +0.000 A 
ATOM     21  C   UNL     1      48.764   2.778  16.349  0.00  0.00    +0.000 A 
ATOM     22  C   UNL     1      49.800   1.901  16.694  0.00  0.00    +0.000 A 
BRANCH  17  24
ATOM     23  N   UNL     1      51.608   0.187  18.181  0.00  0.00    +0.000 N 
ATOM     24  C   UNL     1      51.999   1.428  17.756  0.00  0.00    +0.000 C 
ATOM     25  O   UNL     1      53.183   1.722  17.656  0.00  0.00    +0.000 OA
ATOM     26  H   UNL     1      52.351  -0.488  18.330  0.00  0.00    +0.000 HD
ATOM     27  H   UNL     1      50.680  -0.170  18.019  0.00  0.00    +0.000 HD
ENDBRANCH  17  24
ENDBRANCH  16  20
ENDBRANCH  15  16
ENDBRANCH   1  15
TORSDOF 5
ENDMDL
MODEL 7
REMARK VINA RESULT:    -6.961      4.968      8.753
REMARK INTER + INTRA:          -9.595
REMARK INTER:                  -9.363
REMARK INTRA:                  -0.232
REMARK UNBOUND:                -0.599
REMARK  Name = 
REMARK  5 active torsions:
REMARK  status: ('A' for Active; 'I' for Inactive)
REMARK    1  A    between atoms: C_2  and  C_4
REMARK    2  A    between atoms: C_7  and  O_8
REMARK    3  A    between atoms: O_8  and  C_9
REMARK    4  A    between atoms: C_9  and  C_10
REMARK    5  A    between atoms: C_15  and  C_16
REMARK                            x       y       z     vdW  Elec       q    Type
REMARK                         _______ _______ _______ _____ _____    ______ ____
ROOT
ATOM      1  C   UNL     1      46.815   5.267  13.649  0.00  0.00    +0.000 A 
ATOM      2  C   UNL     1      47.725   6.138  13.037  0.00  0.00    +0.000 A 
ATOM      3  C   UNL     1      47.402   6.740  11.833  0.00  0.00    +0.000 A 
ATOM      4  F   UNL     1      48.275   7.581  11.264  0.00  0.00    +0.000 F 
ATOM      5  C   UNL     1      46.193   6.478  11.202  0.00  0.00    +0.000 A 
ATOM      6  C   UNL     1      45.277   5.572  11.755  0.00  0.00    +0.000 A 
ATOM      7  C   UNL     1      45.593   5.005  13.008  0.00  0.00    +0.000 A 
ENDROOT
BRANCH   6   8
ATOM      8  C   UNL     1      43.965   5.186  11.072  0.00  0.00    +0.000 C 
ATOM      9  C   UNL     1      43.035   4.380  12.005  0.00  0.00    +0.000 C 
ATOM     10  C   UNL     1      43.482   2.924  12.143  0.00  0.00    +0.000 C 
ATOM     11  N   UNL     1      43.542   2.251  10.845  0.00  0.00    +0.000 NA
ATOM     12  C   UNL     1      44.457   2.940   9.935  0.00  0.00    +0.000 C 
ATOM     13  C   UNL     1      44.086   4.414   9.741  0.00  0.00    +0.000 C 
ATOM     14  H   UNL     1      42.610   2.232  10.433  0.00  0.00    +0.000 HD
ENDBRANCH   6   8
BRANCH   1  15
ATOM     15  C   UNL     1      47.220   4.640  14.960  0.00  0.00    +0.000 C 
BRANCH  15  16
ATOM     16  O   UNL     1      48.357   5.256  15.566  0.00  0.00    +0.000 OA
BRANCH  16  20
ATOM     17  C   UNL     1      48.829   4.816  19.693  0.00  0.00    +0.000 A 
ATOM     18  C   UNL     1      48.646   3.668  18.915  0.00  0.00    +0.000 A 
ATOM     19  C   UNL     1      48.483   3.780  17.532  0.00  0.00    +0.000 A 
ATOM     20  C   UNL     1      48.493   5.035  16.913  0.00  0.00    +0.000 A 
ATOM     21  C   UNL     1      48.650   6.181  17.697  0.00  0.00    +0.000 A 
ATOM     22  C   UNL     1      48.812   6.074  19.083  0.00  0.00    +0.000 A 
BRANCH  17  24
ATOM     23  N   UNL     1      50.319   4.672  21.609  0.00  0.00    +0.000 N 
ATOM     24  C   UNL     1      49.027   4.722  21.160  0.00  0.00    +0.000 C 
ATOM     25  O   UNL     1      48.083   4.731  21.940  0.00  0.00    +0.000 OA
ATOM     26  H   UNL     1      50.445   4.721  22.614  0.00  0.00    +0.000 HD
ATOM     27  H   UNL     1      51.101   4.932  21.028  0.00  0.00    +0.000 HD
ENDBRANCH  17  24
ENDBRANCH  16  20
ENDBRANCH  15  16
ENDBRANCH   1  15
TORSDOF 5
ENDMDL
MODEL 8
REMARK VINA RESULT:    -6.539      4.408      6.609
REMARK INTER + INTRA:          -9.049
REMARK INTER:                  -8.221
REMARK INTRA:                  -0.829
REMARK UNBOUND:                -0.599
REMARK  Name = 
REMARK  5 active torsions:
REMARK  status: ('A' for Active; 'I' for Inactive)
REMARK    1  A    between atoms: C_2  and  C_4
REMARK    2  A    between atoms: C_7  and  O_8
REMARK    3  A    between atoms: O_8  and  C_9
REMARK    4  A    between atoms: C_9  and  C_10
REMARK    5  A    between atoms: C_15  and  C_16
REMARK                            x       y       z     vdW  Elec       q    Type
REMARK                         _______ _______ _______ _____ _____    ______ ____
ROOT
ATOM      1  C   UNL     1      49.051   7.365  15.548  0.00  0.00    +0.000 A 
ATOM      2  C   UNL     1      48.456   8.410  16.267  0.00  0.00    +0.000 A 
ATOM      3  C   UNL     1      48.518   8.419  17.649  0.00  0.00    +0.000 A 
ATOM      4  F   UNL     1      47.957   9.429  18.326  0.00  0.00    +0.000 F 
ATOM      5  C   UNL     1      49.143   7.392  18.346  0.00  0.00    +0.000 A 
ATOM      6  C   UNL     1      49.704   6.303  17.666  0.00  0.00    +0.000 A 
ATOM      7  C   UNL     1      49.682   6.330  16.255  0.00  0.00    +0.000 A 
ENDROOT
BRANCH   6   8
ATOM      8  C   UNL     1      50.339   5.108  18.379  0.00  0.00    +0.000 C 
ATOM      9  C   UNL     1      49.898   3.761  17.768  0.00  0.00    +0.000 C 
ATOM     10  C   UNL     1      48.485   3.369  18.201  0.00  0.00    +0.000 C 
ATOM     11  N   UNL     1      48.370   3.283  19.658  0.00  0.00    +0.000 NA
ATOM     12  C   UNL     1      48.722   4.554  20.291  0.00  0.00    +0.000 C 
ATOM     13  C   UNL     1      50.127   5.029  19.906  0.00  0.00    +0.000 C 
ATOM     14  H   UNL     1      48.994   2.554  20.002  0.00  0.00    +0.000 HD
ENDBRANCH   6   8
BRANCH   1  15
ATOM     15  C   UNL     1      48.952   7.407  14.042  0.00  0.00    +0.000 C 
BRANCH  15  16
ATOM     16  O   UNL     1      48.690   6.135  13.448  0.00  0.00    +0.000 OA
BRANCH  16  20
ATOM     17  C   UNL     1      44.762   5.710  12.092  0.00  0.00    +0.000 A 
ATOM     18  C   UNL     1      45.188   4.921  13.166  0.00  0.00    +0.000 A 
ATOM     19  C   UNL     1      46.496   5.037  13.643  0.00  0.00    +0.000 A 
ATOM     20  C   UNL     1      47.392   5.933  13.051  0.00  0.00    +0.000 A 
ATOM     21  C   UNL     1      46.972   6.700  11.961  0.00  0.00    +0.000 A 
ATOM     22  C   UNL     1      45.663   6.586  11.479  0.00  0.00    +0.000 A 
BRANCH  17  24
ATOM     23  N   UNL     1      42.787   6.790  11.174  0.00  0.00    +0.000 N 
ATOM     24  C   UNL     1      43.372   5.622  11.582  0.00  0.00    +0.000 C 
ATOM     25  O   UNL     1      42.785   4.551  11.491  0.00  0.00    +0.000 OA
ATOM     26  H   UNL     1      41.882   6.703  10.726  0.00  0.00    +0.000 HD
ATOM     27  H   UNL     1      43.323   7.623  10.985  0.00  0.00    +0.000 HD
ENDBRANCH  17  24
ENDBRANCH  16  20
ENDBRANCH  15  16
ENDBRANCH   1  15
TORSDOF 5
ENDMDL
MODEL 9
REMARK VINA RESULT:    -6.302      3.769      5.662
REMARK INTER + INTRA:          -8.744
REMARK INTER:                  -7.962
REMARK INTRA:                  -0.782
REMARK UNBOUND:                -0.599
REMARK  Name = 
REMARK  5 active torsions:
REMARK  status: ('A' for Active; 'I' for Inactive)
REMARK    1  A    between atoms: C_2  and  C_4
REMARK    2  A    between atoms: C_7  and  O_8
REMARK    3  A    between atoms: O_8  and  C_9
REMARK    4  A    between atoms: C_9  and  C_10
REMARK    5  A    between atoms: C_15  and  C_16
REMARK                            x       y       z     vdW  Elec       q    Type
REMARK                         _______ _______ _______ _____ _____    ______ ____
ROOT
ATOM      1  C   UNL     1      48.966   7.003  14.316  0.00  0.00    +0.000 A 
ATOM      2  C   UNL     1      50.050   7.868  14.513  0.00  0.00    +0.000 A 
ATOM      3  C   UNL     1      50.651   7.948  15.757  0.00  0.00    +0.000 A 
ATOM      4  F   UNL     1      51.695   8.768  15.931  0.00  0.00    +0.000 F 
ATOM      5  C   UNL     1      50.182   7.200  16.830  0.00  0.00    +0.000 A 
ATOM      6  C   UNL     1      49.067   6.364  16.687  0.00  0.00    +0.000 A 
ATOM      7  C   UNL     1      48.494   6.249  15.402  0.00  0.00    +0.000 A 
ENDROOT
BRANCH   6   8
ATOM      8  C   UNL     1      48.458   5.575  17.847  0.00  0.00    +0.000 C 
ATOM      9  C   UNL     1      49.520   5.148  18.884  0.00  0.00    +0.000 C 
ATOM     10  C   UNL     1      50.346   3.955  18.403  0.00  0.00    +0.000 C 
ATOM     11  N   UNL     1      49.501   2.801  18.095  0.00  0.00    +0.000 NA
ATOM     12  C   UNL     1      48.509   3.130  17.072  0.00  0.00    +0.000 C 
ATOM     13  C   UNL     1      47.636   4.324  17.469  0.00  0.00    +0.000 C 
ATOM     14  H   UNL     1      49.021   2.500  18.943  0.00  0.00    +0.000 HD
ENDBRANCH   6   8
BRANCH   1  15
ATOM     15  C   UNL     1      48.350   6.957  12.939  0.00  0.00    +0.000 C 
BRANCH  15  16
ATOM     16  O   UNL     1      46.936   7.155  12.935  0.00  0.00    +0.000 OA
BRANCH  16  20
ATOM     17  C   UNL     1      44.745   3.952  11.389  0.00  0.00    +0.000 A 
ATOM     18  C   UNL     1      45.086   5.003  10.532  0.00  0.00    +0.000 A 
ATOM     19  C   UNL     1      45.816   6.091  11.017  0.00  0.00    +0.000 A 
ATOM     20  C   UNL     1      46.206   6.144  12.360  0.00  0.00    +0.000 A 
ATOM     21  C   UNL     1      45.840   5.105  13.219  0.00  0.00    +0.000 A 
ATOM     22  C   UNL     1      45.107   4.014  12.738  0.00  0.00    +0.000 A 
BRANCH  17  24
ATOM     23  N   UNL     1      44.516   2.107   9.821  0.00  0.00    +0.000 N 
ATOM     24  C   UNL     1      43.990   2.775  10.893  0.00  0.00    +0.000 C 
ATOM     25  O   UNL     1      42.963   2.391  11.440  0.00  0.00    +0.000 OA
ATOM     26  H   UNL     1      44.053   1.243   9.562  0.00  0.00    +0.000 HD
ATOM     27  H   UNL     1      45.473   2.230   9.528  0.00  0.00    +0.000 HD
ENDBRANCH  17  24
ENDBRANCH  16  20
ENDBRANCH  15  16
ENDBRANCH   1  15
TORSDOF 5
ENDMDL
