MODEL 1
REMARK VINA RESULT:    -6.865      0.000      0.000
REMARK INTER + INTRA:         -10.027
REMARK INTER:                  -8.872
REMARK INTRA:                  -1.155
REMARK UNBOUND:                -1.155
REMARK  Name = 
REMARK  6 active torsions:
REMARK  status: ('A' for Active; 'I' for Inactive)
REMARK    1  A    between atoms: C_1  and  C_2
REMARK    2  A    between atoms: C_2  and  N_3
REMARK    3  A    between atoms: C_2  and  C_16
REMARK    4  A    between atoms: C_4  and  C_6
REMARK    5  A    between atoms: C_19  and  C_20
REMARK    6  A    between atoms: C_20  and  N_21
REMARK                            x       y       z     vdW  Elec       q    Type
REMARK                         _______ _______ _______ _____ _____    ______ ____
ROOT
ATOM      1  C   UNL     1      48.285   6.769  18.568  0.00  0.00    +0.000 C 
ATOM      2  C   UNL     1      49.267   6.343  17.470  0.00  0.00    +0.000 C 
ENDROOT
BRANCH   2   3
ATOM      3  C   UNL     1      48.488   5.777  16.287  0.00  0.00    +0.000 A 
ATOM      4  C   UNL     1      48.474   6.499  15.085  0.00  0.00    +0.000 A 
ATOM      5  C   UNL     1      47.719   6.064  13.994  0.00  0.00    +0.000 A 
ATOM      6  C   UNL     1      46.966   4.888  14.060  0.00  0.00    +0.000 A 
ATOM      7  C   UNL     1      46.977   4.159  15.260  0.00  0.00    +0.000 A 
ATOM      8  C   UNL     1      47.723   4.605  16.364  0.00  0.00    +0.000 A 
BRANCH   6   9
ATOM      9  C   UNL     1      46.087   4.483  12.897  0.00  0.00    +0.000 C 
BRANCH   9  10
ATOM     10  N   UNL     1      45.359   5.508  12.154  0.00  0.00    +0.000 NA
ATOM     11  C   UNL     1      44.085   5.953  12.724  0.00  0.00    +0.000 C 
ATOM     12  C   UNL     1      42.861   5.175  12.219  0.00  0.00    +0.000 C 
ATOM     13  O   UNL     1      42.794   5.172  10.787  0.00  0.00    +0.000 OA
ATOM     14  C   UNL     1      43.985   4.616  10.216  0.00  0.00    +0.000 C 
ATOM     15  C   UNL     1      45.253   5.338  10.702  0.00  0.00    +0.000 C 
ENDBRANCH   9  10
ENDBRANCH   6   9
ENDBRANCH   2   3
BRANCH   2  16
ATOM     16  N   UNL     1      50.278   5.415  17.948  0.00  0.00    +0.000 N 
ATOM     17  C   UNL     1      51.536   5.373  17.395  0.00  0.00    +0.000 C 
ATOM     18  O   UNL     1      51.905   6.156  16.525  0.00  0.00    +0.000 OA
ATOM     19  H   UNL     1      49.929   4.553  18.358  0.00  0.00    +0.000 HD
BRANCH  17  20
ATOM     20  C   UNL     1      52.457   4.370  17.939  0.00  0.00    +0.000 A 
ATOM     21  C   UNL     1      53.616   4.786  18.580  0.00  0.00    +0.000 A 
ATOM     22  S   UNL     1      54.572   3.500  19.163  0.00  0.00    +0.000 S 
ATOM     23  C   UNL     1      53.493   2.343  18.537  0.00  0.00    +0.000 A 
ATOM     24  N   UNL     1      53.748   1.013  18.653  0.00  0.00    +0.000 NA
ATOM     25  C   UNL     1      52.866   0.251  18.101  0.00  0.00    +0.000 A 
ATOM     26  N   UNL     1      51.740   0.696  17.455  0.00  0.00    +0.000 N 
ATOM     27  C   UNL     1      51.420   2.030  17.350  0.00  0.00    +0.000 A 
ATOM     28  O   UNL     1      50.373   2.400  16.828  0.00  0.00    +0.000 OA
ATOM     29  C   UNL     1      52.400   2.930  17.923  0.00  0.00    +0.000 A 
ATOM     30  H   UNL     1      51.079   0.045  17.059  0.00  0.00    +0.000 HD
ENDBRANCH  17  20
ENDBRANCH   2  16
TORSDOF 5
ENDMDL
MODEL 2
REMARK VINA RESULT:    -6.634      4.451      8.799
REMARK INTER + INTRA:          -9.728
REMARK INTER:                  -8.662
REMARK INTRA:                  -1.066
REMARK UNBOUND:                -1.155
REMARK  Name = 
REMARK  6 active torsions:
REMARK  status: ('A' for Active; 'I' for Inactive)
REMARK    1  A    between atoms: C_1  and  C_2
REMARK    2  A    between atoms: C_2  and  N_3
REMARK    3  A    between atoms: C_2  and  C_16
REMARK    4  A    between atoms: C_4  and  C_6
REMARK    5  A    between atoms: C_19  and  C_20
REMARK    6  A    between atoms: C_20  and  N_21
REMARK                            x       y       z     vdW  Elec       q    Type
REMARK                         _______ _______ _______ _____ _____    ______ ____
ROOT
ATOM      1  C   UNL     1      47.728   3.134  16.869  0.00  0.00    +0.000 C 
ATOM      2  C   UNL     1      48.004   4.499  16.228  0.00  0.00    +0.000 C 
ENDROOT
BRANCH   2   3
ATOM      3  C   UNL     1      48.094   5.562  17.318  0.00  0.00    +0.000 A 
ATOM      4  C   UNL     1      47.298   5.417  18.465  0.00  0.00    +0.000 A 
ATOM      5  C   UNL     1      47.286   6.396  19.460  0.00  0.00    +0.000 A 
ATOM      6  C   UNL     1      48.078   7.544  19.353  0.00  0.00    +0.000 A 
ATOM      7  C   UNL     1      48.878   7.694  18.209  0.00  0.00    +0.000 A 
ATOM      8  C   UNL     1      48.877   6.718  17.199  0.00  0.00    +0.000 A 
BRANCH   6   9
ATOM      9  C   UNL     1      47.984   8.631  20.401  0.00  0.00    +0.000 C 
BRANCH   9  10
ATOM     10  N   UNL     1      46.852   9.554  20.379  0.00  0.00    +0.000 NA
ATOM     11  C   UNL     1      46.930  10.667  19.431  0.00  0.00    +0.000 C 
ATOM     12  C   UNL     1      47.549  11.948  20.009  0.00  0.00    +0.000 C 
ATOM     13  O   UNL     1      46.882  12.359  21.209  0.00  0.00    +0.000 OA
ATOM     14  C   UNL     1      46.913  11.323  22.198  0.00  0.00    +0.000 C 
ATOM     15  C   UNL     1      46.326  10.002  21.673  0.00  0.00    +0.000 C 
ENDBRANCH   9  10
ENDBRANCH   6   9
ENDBRANCH   2   3
BRANCH   2  16
ATOM     16  N   UNL     1      47.030   4.850  15.208  0.00  0.00    +0.000 N 
ATOM     17  C   UNL     1      47.392   5.533  14.071  0.00  0.00    +0.000 C 
ATOM     18  O   UNL     1      48.557   5.821  13.812  0.00  0.00    +0.000 OA
ATOM     19  H   UNL     1      46.075   4.975  15.532  0.00  0.00    +0.000 HD
BRANCH  17  20
ATOM     20  C   UNL     1      46.314   5.860  13.132  0.00  0.00    +0.000 A 
ATOM     21  C   UNL     1      46.044   7.190  12.841  0.00  0.00    +0.000 A 
ATOM     22  S   UNL     1      44.771   7.399  11.727  0.00  0.00    +0.000 S 
ATOM     23  C   UNL     1      44.506   5.722  11.632  0.00  0.00    +0.000 A 
ATOM     24  N   UNL     1      43.504   5.214  10.866  0.00  0.00    +0.000 NA
ATOM     25  C   UNL     1      43.395   3.928  10.917  0.00  0.00    +0.000 A 
ATOM     26  N   UNL     1      44.207   3.101  11.650  0.00  0.00    +0.000 N 
ATOM     27  C   UNL     1      45.258   3.568  12.406  0.00  0.00    +0.000 A 
ATOM     28  O   UNL     1      46.012   2.803  12.998  0.00  0.00    +0.000 OA
ATOM     29  C   UNL     1      45.400   5.009  12.412  0.00  0.00    +0.000 A 
ATOM     30  H   UNL     1      44.078   2.101  11.632  0.00  0.00    +0.000 HD
ENDBRANCH  17  20
ENDBRANCH   2  16
TORSDOF 5
ENDMDL
MODEL 3
REMARK VINA RESULT:    -6.488      5.077      9.086
REMARK INTER + INTRA:          -9.540
REMARK INTER:                  -8.502
REMARK INTRA:                  -1.038
REMARK UNBOUND:                -1.155
REMARK  Name = 
REMARK  6 active torsions:
REMARK  status: ('A' for Active; 'I' for Inactive)
REMARK    1  A    between atoms: C_1  and  C_2
REMARK    2  A    between atoms: C_2  and  N_3
REMARK    3  A    between atoms: C_2  and  C_16
REMARK    4  A    between atoms: C_4  and  C_6
REMARK    5  A    between atoms: C_19  and  C_20
REMARK    6  A    between atoms: C_20  and  N_21
REMARK                            x       y       z     vdW  Elec       q    Type
REMARK                         _______ _______ _______ _____ _____    ______ ____
ROOT
ATOM      1  C   UNL     1      49.096   7.837  11.414  0.00  0.00    +0.000 C 
ATOM      2  C   UNL     1      47.806   7.719  12.235  0.00  0.00    +0.000 C 
ENDROOT
BRANCH   2   3
ATOM      3  C   UNL     1      48.139   7.822  13.719  0.00  0.00    +0.000 A 
ATOM      4  C   UNL     1      48.556   6.666  14.396  0.00  0.00    +0.000 A 
ATOM      5  C   UNL     1      48.803   6.688  15.770  0.00  0.00    +0.000 A 
ATOM      6  C   UNL     1      48.659   7.865  16.511  0.00  0.00    +0.000 A 
ATOM      7  C   UNL     1      48.244   9.026  15.839  0.00  0.00    +0.000 A 
ATOM      8  C   UNL     1      47.978   9.001  14.460  0.00  0.00    +0.000 A 
BRANCH   6   9
ATOM      9  C   UNL     1      48.848   7.844  18.012  0.00  0.00    +0.000 C 
BRANCH   9  10
ATOM     10  N   UNL     1      47.683   7.710  18.882  0.00  0.00    +0.000 NA
ATOM     11  C   UNL     1      47.608   8.622  20.025  0.00  0.00    +0.000 C 
ATOM     12  C   UNL     1      48.232   8.071  21.316  0.00  0.00    +0.000 C 
ATOM     13  O   UNL     1      47.684   6.792  21.660  0.00  0.00    +0.000 OA
ATOM     14  C   UNL     1      47.869   5.849  20.597  0.00  0.00    +0.000 C 
ATOM     15  C   UNL     1      47.285   6.352  19.266  0.00  0.00    +0.000 C 
ENDBRANCH   9  10
ENDBRANCH   6   9
ENDBRANCH   2   3
BRANCH   2  16
ATOM     16  N   UNL     1      47.052   6.515  11.930  0.00  0.00    +0.000 N 
ATOM     17  C   UNL     1      45.677   6.509  11.916  0.00  0.00    +0.000 C 
ATOM     18  O   UNL     1      45.008   7.524  12.084  0.00  0.00    +0.000 OA
ATOM     19  H   UNL     1      47.512   5.637  12.156  0.00  0.00    +0.000 HD
BRANCH  17  20
ATOM     20  C   UNL     1      45.031   5.224  11.630  0.00  0.00    +0.000 A 
ATOM     21  C   UNL     1      44.315   4.583  12.632  0.00  0.00    +0.000 A 
ATOM     22  S   UNL     1      43.618   3.109  12.136  0.00  0.00    +0.000 S 
ATOM     23  C   UNL     1      44.289   3.254  10.579  0.00  0.00    +0.000 A 
ATOM     24  N   UNL     1      44.109   2.281   9.647  0.00  0.00    +0.000 NA
ATOM     25  C   UNL     1      44.704   2.504   8.523  0.00  0.00    +0.000 A 
ATOM     26  N   UNL     1      45.450   3.620   8.239  0.00  0.00    +0.000 N 
ATOM     27  C   UNL     1      45.623   4.648   9.137  0.00  0.00    +0.000 A 
ATOM     28  O   UNL     1      46.237   5.667   8.836  0.00  0.00    +0.000 OA
ATOM     29  C   UNL     1      45.005   4.428  10.428  0.00  0.00    +0.000 A 
ATOM     30  H   UNL     1      45.875   3.741   7.333  0.00  0.00    +0.000 HD
ENDBRANCH  17  20
ENDBRANCH   2  16
TORSDOF 5
ENDMDL
MODEL 4
REMARK VINA RESULT:    -6.424      4.378      8.943
REMARK INTER + INTRA:          -9.456
REMARK INTER:                  -8.482
REMARK INTRA:                  -0.975
REMARK UNBOUND:                -1.155
REMARK  Name = 
REMARK  6 active torsions:
REMARK  status: ('A' for Active; 'I' for Inactive)
REMARK    1  A    between atoms: C_1  and  C_2
REMARK    2  A    between atoms: C_2  and  N_3
REMARK    3  A    between atoms: C_2  and  C_16
REMARK    4  A    between atoms: C_4  and  C_6
REMARK    5  A    between atoms: C_19  and  C_20
REMARK    6  A    between atoms: C_20  and  N_21
REMARK                            x       y       z     vdW  Elec       q    Type
REMARK                         _______ _______ _______ _____ _____    ______ ____
ROOT
ATOM      1  C   UNL     1      47.924   3.113  16.777  0.00  0.00    +0.000 C 
ATOM      2  C   UNL     1      48.031   4.555  16.268  0.00  0.00    +0.000 C 
ENDROOT
BRANCH   2   3
ATOM      3  C   UNL     1      47.902   5.517  17.444  0.00  0.00    +0.000 A 
ATOM      4  C   UNL     1      48.692   6.677  17.454  0.00  0.00    +0.000 A 
ATOM      5  C   UNL     1      48.667   7.555  18.539  0.00  0.00    +0.000 A 
ATOM      6  C   UNL     1      47.843   7.314  19.644  0.00  0.00    +0.000 A 
ATOM      7  C   UNL     1      47.049   6.157  19.639  0.00  0.00    +0.000 A 
ATOM      8  C   UNL     1      47.086   5.263  18.556  0.00  0.00    +0.000 A 
BRANCH   6   9
ATOM      9  C   UNL     1      47.898   8.232  20.845  0.00  0.00    +0.000 C 
BRANCH   9  10
ATOM     10  N   UNL     1      48.904   8.004  21.880  0.00  0.00    +0.000 NA
ATOM     11  C   UNL     1      50.105   8.839  21.824  0.00  0.00    +0.000 C 
ATOM     12  C   UNL     1      51.262   8.231  21.019  0.00  0.00    +0.000 C 
ATOM     13  O   UNL     1      51.589   6.914  21.482  0.00  0.00    +0.000 OA
ATOM     14  C   UNL     1      50.451   6.046  21.417  0.00  0.00    +0.000 C 
ATOM     15  C   UNL     1      49.246   6.612  22.188  0.00  0.00    +0.000 C 
ENDBRANCH   9  10
ENDBRANCH   6   9
ENDBRANCH   2   3
BRANCH   2  16
ATOM     16  N   UNL     1      47.075   4.854  15.215  0.00  0.00    +0.000 N 
ATOM     17  C   UNL     1      47.417   5.622  14.127  0.00  0.00    +0.000 C 
ATOM     18  O   UNL     1      48.557   6.036  13.940  0.00  0.00    +0.000 OA
ATOM     19  H   UNL     1      46.098   4.867  15.496  0.00  0.00    +0.000 HD
BRANCH  17  20
ATOM     20  C   UNL     1      46.356   5.882  13.150  0.00  0.00    +0.000 A 
ATOM     21  C   UNL     1      46.051   7.193  12.808  0.00  0.00    +0.000 A 
ATOM     22  S   UNL     1      44.804   7.324  11.654  0.00  0.00    +0.000 S 
ATOM     23  C   UNL     1      44.596   5.636  11.607  0.00  0.00    +0.000 A 
ATOM     24  N   UNL     1      43.633   5.071  10.832  0.00  0.00    +0.000 NA
ATOM     25  C   UNL     1      43.564   3.785  10.921  0.00  0.00    +0.000 A 
ATOM     26  N   UNL     1      44.381   3.009  11.703  0.00  0.00    +0.000 N 
ATOM     27  C   UNL     1      45.395   3.534  12.471  0.00  0.00    +0.000 A 
ATOM     28  O   UNL     1      46.156   2.814  13.108  0.00  0.00    +0.000 OA
ATOM     29  C   UNL     1      45.490   4.979  12.433  0.00  0.00    +0.000 A 
ATOM     30  H   UNL     1      44.285   2.005  11.715  0.00  0.00    +0.000 HD
ENDBRANCH  17  20
ENDBRANCH   2  16
TORSDOF 5
ENDMDL
MODEL 5
REMARK VINA RESULT:    -6.399      4.354      8.849
REMARK INTER + INTRA:          -9.425
REMARK INTER:                  -8.381
REMARK INTRA:                  -1.044
REMARK UNBOUND:                -1.155
REMARK  Name = 
REMARK  6 active torsions:
REMARK  status: ('A' for Active; 'I' for Inactive)
REMARK    1  A    between atoms: C_1  and  C_2
REMARK    2  A    between atoms: C_2  and  N_3
REMARK    3  A    between atoms: C_2  and  C_16
REMARK    4  A    between atoms: C_4  and  C_6
REMARK    5  A    between atoms: C_19  and  C_20
REMARK    6  A    between atoms: C_20  and  N_21
REMARK                            x       y       z     vdW  Elec       q    Type
REMARK                         _______ _______ _______ _____ _____    ______ ____
ROOT
ATOM      1  C   UNL     1      49.547   7.654  12.730  0.00  0.00    +0.000 C 
ATOM      2  C   UNL     1      48.285   7.136  13.430  0.00  0.00    +0.000 C 
ENDROOT
BRANCH   2   3
ATOM      3  C   UNL     1      48.665   6.530  14.776  0.00  0.00    +0.000 A 
ATOM      4  C   UNL     1      47.884   5.481  15.285  0.00  0.00    +0.000 A 
ATOM      5  C   UNL     1      48.143   4.938  16.545  0.00  0.00    +0.000 A 
ATOM      6  C   UNL     1      49.198   5.411  17.332  0.00  0.00    +0.000 A 
ATOM      7  C   UNL     1      49.985   6.459  16.827  0.00  0.00    +0.000 A 
ATOM      8  C   UNL     1      49.714   7.018  15.567  0.00  0.00    +0.000 A 
BRANCH   6   9
ATOM      9  C   UNL     1      49.406   4.868  18.729  0.00  0.00    +0.000 C 
BRANCH   9  10
ATOM     10  N   UNL     1      48.385   5.095  19.748  0.00  0.00    +0.000 NA
ATOM     11  C   UNL     1      47.777   6.426  19.785  0.00  0.00    +0.000 C 
ATOM     12  C   UNL     1      48.478   7.415  20.728  0.00  0.00    +0.000 C 
ATOM     13  O   UNL     1      48.597   6.883  22.053  0.00  0.00    +0.000 OA
ATOM     14  C   UNL     1      49.309   5.639  22.048  0.00  0.00    +0.000 C 
ATOM     15  C   UNL     1      48.668   4.609  21.102  0.00  0.00    +0.000 C 
ENDBRANCH   9  10
ENDBRANCH   6   9
ENDBRANCH   2   3
BRANCH   2  16
ATOM     16  N   UNL     1      47.527   6.205  12.610  0.00  0.00    +0.000 N 
ATOM     17  C   UNL     1      46.498   6.629  11.803  0.00  0.00    +0.000 C 
ATOM     18  O   UNL     1      46.205   7.814  11.667  0.00  0.00    +0.000 OA
ATOM     19  H   UNL     1      47.473   5.252  12.958  0.00  0.00    +0.000 HD
BRANCH  17  20
ATOM     20  C   UNL     1      45.786   5.592  11.050  0.00  0.00    +0.000 A 
ATOM     21  C   UNL     1      45.835   5.601   9.663  0.00  0.00    +0.000 A 
ATOM     22  S   UNL     1      44.965   4.324   8.942  0.00  0.00    +0.000 S 
ATOM     23  C   UNL     1      44.456   3.743  10.457  0.00  0.00    +0.000 A 
ATOM     24  N   UNL     1      43.627   2.669  10.552  0.00  0.00    +0.000 NA
ATOM     25  C   UNL     1      43.292   2.361  11.760  0.00  0.00    +0.000 A 
ATOM     26  N   UNL     1      43.722   3.018  12.884  0.00  0.00    +0.000 N 
ATOM     27  C   UNL     1      44.593   4.082  12.838  0.00  0.00    +0.000 A 
ATOM     28  O   UNL     1      45.017   4.609  13.861  0.00  0.00    +0.000 OA
ATOM     29  C   UNL     1      44.971   4.491  11.501  0.00  0.00    +0.000 A 
ATOM     30  H   UNL     1      43.435   2.714  13.802  0.00  0.00    +0.000 HD
ENDBRANCH  17  20
ENDBRANCH   2  16
TORSDOF 5
ENDMDL
MODEL 6
REMARK VINA RESULT:    -6.271      3.390      8.987
REMARK INTER + INTRA:          -9.259
REMARK INTER:                  -8.540
REMARK INTRA:                  -0.719
REMARK UNBOUND:                -1.155
REMARK  Name = 
REMARK  6 active torsions:
REMARK  status: ('A' for Active; 'I' for Inactive)
REMARK    1  A    between atoms: C_1  and  C_2
REMARK    2  A    between atoms: C_2  and  N_3
REMARK    3  A    between atoms: C_2  and  C_16
REMARK    4  A    between atoms: C_4  and  C_6
REMARK    5  A    between atoms: C_19  and  C_20
REMARK    6  A    between atoms: C_20  and  N_21
REMARK                            x       y       z     vdW  Elec       q    Type
REMARK                         _______ _______ _______ _____ _____    ______ ____
ROOT
ATOM      1  C   UNL     1      46.901   2.996  17.615  0.00  0.00    +0.000 C 
ATOM      2  C   UNL     1      47.755   3.531  16.459  0.00  0.00    +0.000 C 
ENDROOT
BRANCH   2   3
ATOM      3  C   UNL     1      49.020   4.172  17.018  0.00  0.00    +0.000 A 
ATOM      4  C   UNL     1      50.006   3.341  17.571  0.00  0.00    +0.000 A 
ATOM      5  C   UNL     1      51.151   3.880  18.163  0.00  0.00    +0.000 A 
ATOM      6  C   UNL     1      51.358   5.262  18.209  0.00  0.00    +0.000 A 
ATOM      7  C   UNL     1      50.375   6.099  17.656  0.00  0.00    +0.000 A 
ATOM      8  C   UNL     1      49.215   5.559  17.076  0.00  0.00    +0.000 A 
BRANCH   6   9
ATOM      9  C   UNL     1      52.562   5.825  18.932  0.00  0.00    +0.000 C 
BRANCH   9  10
ATOM     10  N   UNL     1      53.793   6.080  18.188  0.00  0.00    +0.000 NA
ATOM     11  C   UNL     1      54.433   7.379  18.401  0.00  0.00    +0.000 C 
ATOM     12  C   UNL     1      53.992   8.470  17.414  0.00  0.00    +0.000 C 
ATOM     13  O   UNL     1      54.160   8.047  16.054  0.00  0.00    +0.000 OA
ATOM     14  C   UNL     1      53.429   6.842  15.795  0.00  0.00    +0.000 C 
ATOM     15  C   UNL     1      53.808   5.713  16.769  0.00  0.00    +0.000 C 
ENDBRANCH   9  10
ENDBRANCH   6   9
ENDBRANCH   2   3
BRANCH   2  16
ATOM     16  N   UNL     1      47.024   4.440  15.592  0.00  0.00    +0.000 N 
ATOM     17  C   UNL     1      46.834   4.167  14.258  0.00  0.00    +0.000 C 
ATOM     18  O   UNL     1      47.199   3.117  13.737  0.00  0.00    +0.000 OA
ATOM     19  H   UNL     1      47.046   5.420  15.860  0.00  0.00    +0.000 HD
BRANCH  17  20
ATOM     20  C   UNL     1      46.111   5.177  13.479  0.00  0.00    +0.000 A 
ATOM     21  C   UNL     1      46.638   6.457  13.367  0.00  0.00    +0.000 A 
ATOM     22  S   UNL     1      45.683   7.506  12.422  0.00  0.00    +0.000 S 
ATOM     23  C   UNL     1      44.511   6.300  12.170  0.00  0.00    +0.000 A 
ATOM     24  N   UNL     1      43.380   6.561  11.461  0.00  0.00    +0.000 NA
ATOM     25  C   UNL     1      42.560   5.567  11.380  0.00  0.00    +0.000 A 
ATOM     26  N   UNL     1      42.776   4.328  11.929  0.00  0.00    +0.000 N 
ATOM     27  C   UNL     1      43.923   4.007  12.617  0.00  0.00    +0.000 A 
ATOM     28  O   UNL     1      44.123   2.873  13.039  0.00  0.00    +0.000 OA
ATOM     29  C   UNL     1      44.859   5.102  12.768  0.00  0.00    +0.000 A 
ATOM     30  H   UNL     1      42.101   3.587  11.814  0.00  0.00    +0.000 HD
ENDBRANCH  17  20
ENDBRANCH   2  16
TORSDOF 5
ENDMDL
MODEL 7
REMARK VINA RESULT:    -6.193      4.044      8.892
REMARK INTER + INTRA:          -9.159
REMARK INTER:                  -8.439
REMARK INTRA:                  -0.720
REMARK UNBOUND:                -1.155
REMARK  Name = 
REMARK  6 active torsions:
REMARK  status: ('A' for Active; 'I' for Inactive)
REMARK    1  A    between atoms: C_1  and  C_2
REMARK    2  A    between atoms: C_2  and  N_3
REMARK    3  A    between atoms: C_2  and  C_16
REMARK    4  A    between atoms: C_4  and  C_6
REMARK    5  A    between atoms: C_19  and  C_20
REMARK    6  A    between atoms: C_20  and  N_21
REMARK                            x       y       z     vdW  Elec       q    Type
REMARK                         _______ _______ _______ _____ _____    ______ ____
ROOT
ATOM      1  C   UNL     1      46.984   2.950  17.311  0.00  0.00    +0.000 C 
ATOM      2  C   UNL     1      47.829   3.894  16.445  0.00  0.00    +0.000 C 
ENDROOT
BRANCH   2   3
ATOM      3  C   UNL     1      48.730   4.733  17.343  0.00  0.00    +0.000 A 
ATOM      4  C   UNL     1      49.285   4.136  18.485  0.00  0.00    +0.000 A 
ATOM      5  C   UNL     1      50.058   4.878  19.381  0.00  0.00    +0.000 A 
ATOM      6  C   UNL     1      50.317   6.234  19.160  0.00  0.00    +0.000 A 
ATOM      7  C   UNL     1      49.766   6.837  18.018  0.00  0.00    +0.000 A 
ATOM      8  C   UNL     1      48.973   6.096  17.125  0.00  0.00    +0.000 A 
BRANCH   6   9
ATOM      9  C   UNL     1      51.083   7.037  20.187  0.00  0.00    +0.000 C 
BRANCH   9  10
ATOM     10  N   UNL     1      50.352   7.784  21.208  0.00  0.00    +0.000 NA
ATOM     11  C   UNL     1      49.277   7.071  21.901  0.00  0.00    +0.000 C 
ATOM     12  C   UNL     1      47.894   7.229  21.254  0.00  0.00    +0.000 C 
ATOM     13  O   UNL     1      47.548   8.609  21.083  0.00  0.00    +0.000 OA
ATOM     14  C   UNL     1      48.528   9.292  20.291  0.00  0.00    +0.000 C 
ATOM     15  C   UNL     1      49.944   9.153  20.875  0.00  0.00    +0.000 C 
ENDBRANCH   9  10
ENDBRANCH   6   9
ENDBRANCH   2   3
BRANCH   2  16
ATOM     16  N   UNL     1      47.023   4.719  15.561  0.00  0.00    +0.000 N 
ATOM     17  C   UNL     1      46.989   4.501  14.203  0.00  0.00    +0.000 C 
ATOM     18  O   UNL     1      47.570   3.560  13.668  0.00  0.00    +0.000 OA
ATOM     19  H   UNL     1      46.855   5.671  15.875  0.00  0.00    +0.000 HD
BRANCH  17  20
ATOM     20  C   UNL     1      46.168   5.422  13.412  0.00  0.00    +0.000 A 
ATOM     21  C   UNL     1      46.552   6.751  13.297  0.00  0.00    +0.000 A 
ATOM     22  S   UNL     1      45.498   7.685  12.337  0.00  0.00    +0.000 S 
ATOM     23  C   UNL     1      44.467   6.356  12.082  0.00  0.00    +0.000 A 
ATOM     24  N   UNL     1      43.321   6.489  11.362  0.00  0.00    +0.000 NA
ATOM     25  C   UNL     1      42.617   5.410  11.279  0.00  0.00    +0.000 A 
ATOM     26  N   UNL     1      42.961   4.205  11.837  0.00  0.00    +0.000 N 
ATOM     27  C   UNL     1      44.130   4.015  12.538  0.00  0.00    +0.000 A 
ATOM     28  O   UNL     1      44.448   2.912  12.968  0.00  0.00    +0.000 OA
ATOM     29  C   UNL     1      44.939   5.207  12.690  0.00  0.00    +0.000 A 
ATOM     30  H   UNL     1      42.373   3.394  11.720  0.00  0.00    +0.000 HD
ENDBRANCH  17  20
ENDBRANCH   2  16
TORSDOF 5
ENDMDL
MODEL 8
REMARK VINA RESULT:    -6.148      3.513      4.888
REMARK INTER + INTRA:          -9.100
REMARK INTER:                  -8.331
REMARK INTRA:                  -0.769
REMARK UNBOUND:                -1.155
REMARK  Name = 
REMARK  6 active torsions:
REMARK  status: ('A' for Active; 'I' for Inactive)
REMARK    1  A    between atoms: C_1  and  C_2
REMARK    2  A    between atoms: C_2  and  N_3
REMARK    3  A    between atoms: C_2  and  C_16
REMARK    4  A    between atoms: C_4  and  C_6
REMARK    5  A    between atoms: C_19  and  C_20
REMARK    6  A    between atoms: C_20  and  N_21
REMARK                            x       y       z     vdW  Elec       q    Type
REMARK                         _______ _______ _______ _____ _____    ______ ____
ROOT
ATOM      1  C   UNL     1      46.437   3.625  12.964  0.00  0.00    +0.000 C 
ATOM      2  C   UNL     1      46.183   4.779  13.942  0.00  0.00    +0.000 C 
ENDROOT
BRANCH   2   3
ATOM      3  C   UNL     1      45.818   6.035  13.159  0.00  0.00    +0.000 A 
ATOM      4  C   UNL     1      46.563   7.204  13.379  0.00  0.00    +0.000 A 
ATOM      5  C   UNL     1      46.227   8.401  12.744  0.00  0.00    +0.000 A 
ATOM      6  C   UNL     1      45.148   8.469  11.856  0.00  0.00    +0.000 A 
ATOM      7  C   UNL     1      44.400   7.302  11.630  0.00  0.00    +0.000 A 
ATOM      8  C   UNL     1      44.726   6.101  12.282  0.00  0.00    +0.000 A 
BRANCH   6   9
ATOM      9  C   UNL     1      44.749   9.795  11.247  0.00  0.00    +0.000 C 
BRANCH   9  10
ATOM     10  N   UNL     1      43.584   9.861  10.368  0.00  0.00    +0.000 NA
ATOM     11  C   UNL     1      43.738  10.626   9.129  0.00  0.00    +0.000 C 
ATOM     12  C   UNL     1      43.334  12.103   9.243  0.00  0.00    +0.000 C 
ATOM     13  O   UNL     1      42.004  12.246   9.756  0.00  0.00    +0.000 OA
ATOM     14  C   UNL     1      41.873  11.613  11.034  0.00  0.00    +0.000 C 
ATOM     15  C   UNL     1      42.286  10.132  10.994  0.00  0.00    +0.000 C 
ENDBRANCH   9  10
ENDBRANCH   6   9
ENDBRANCH   2   3
BRANCH   2  16
ATOM     16  N   UNL     1      47.298   5.007  14.846  0.00  0.00    +0.000 N 
ATOM     17  C   UNL     1      47.357   4.409  16.083  0.00  0.00    +0.000 C 
ATOM     18  O   UNL     1      46.521   3.596  16.467  0.00  0.00    +0.000 OA
ATOM     19  H   UNL     1      47.771   5.900  14.747  0.00  0.00    +0.000 HD
BRANCH  17  20
ATOM     20  C   UNL     1      48.514   4.745  16.918  0.00  0.00    +0.000 A 
ATOM     21  C   UNL     1      48.606   6.012  17.477  0.00  0.00    +0.000 A 
ATOM     22  S   UNL     1      50.003   6.238  18.428  0.00  0.00    +0.000 S 
ATOM     23  C   UNL     1      50.555   4.666  18.086  0.00  0.00    +0.000 A 
ATOM     24  N   UNL     1      51.747   4.224  18.567  0.00  0.00    +0.000 NA
ATOM     25  C   UNL     1      52.059   3.026  18.199  0.00  0.00    +0.000 A 
ATOM     26  N   UNL     1      51.279   2.223  17.407  0.00  0.00    +0.000 N 
ATOM     27  C   UNL     1      50.048   2.613  16.932  0.00  0.00    +0.000 A 
ATOM     28  O   UNL     1      49.340   1.852  16.282  0.00  0.00    +0.000 OA
ATOM     29  C   UNL     1      49.669   3.965  17.287  0.00  0.00    +0.000 A 
ATOM     30  H   UNL     1      51.574   1.288  17.169  0.00  0.00    +0.000 HD
ENDBRANCH  17  20
ENDBRANCH   2  16
TORSDOF 5
ENDMDL
MODEL 9
REMARK VINA RESULT:    -6.014      4.404      8.509
REMARK INTER + INTRA:          -8.927
REMARK INTER:                  -7.863
REMARK INTRA:                  -1.063
REMARK UNBOUND:                -1.155
REMARK  Name = 
REMARK  6 active torsions:
REMARK  status: ('A' for Active; 'I' for Inactive)
REMARK    1  A    between atoms: C_1  and  C_2
REMARK    2  A    between atoms: C_2  and  N_3
REMARK    3  A    between atoms: C_2  and  C_16
REMARK    4  A    between atoms: C_4  and  C_6
REMARK    5  A    between atoms: C_19  and  C_20
REMARK    6  A    between atoms: C_20  and  N_21
REMARK                            x       y       z     vdW  Elec       q    Type
REMARK                         _______ _______ _______ _____ _____    ______ ____
ROOT
ATOM      1  C   UNL     1      47.277   3.081  17.394  0.00  0.00    +0.000 C 
ATOM      2  C   UNL     1      47.912   4.187  16.543  0.00  0.00    +0.000 C 
ENDROOT
BRANCH   2   3
ATOM      3  C   UNL     1      48.522   5.243  17.459  0.00  0.00    +0.000 A 
ATOM      4  C   UNL     1      47.723   5.797  18.470  0.00  0.00    +0.000 A 
ATOM      5  C   UNL     1      48.207   6.818  19.290  0.00  0.00    +0.000 A 
ATOM      6  C   UNL     1      49.508   7.311  19.138  0.00  0.00    +0.000 A 
ATOM      7  C   UNL     1      50.312   6.759  18.129  0.00  0.00    +0.000 A 
ATOM      8  C   UNL     1      49.821   5.743  17.292  0.00  0.00    +0.000 A 
BRANCH   6   9
ATOM      9  C   UNL     1      49.980   8.476  19.979  0.00  0.00    +0.000 C 
BRANCH   9  10
ATOM     10  N   UNL     1      49.738   9.841  19.518  0.00  0.00    +0.000 NA
ATOM     11  C   UNL     1      48.678  10.587  20.199  0.00  0.00    +0.000 C 
ATOM     12  C   UNL     1      47.295  10.463  19.544  0.00  0.00    +0.000 C 
ATOM     13  O   UNL     1      47.340  10.814  18.154  0.00  0.00    +0.000 OA
ATOM     14  C   UNL     1      48.281   9.999  17.446  0.00  0.00    +0.000 C 
ATOM     15  C   UNL     1      49.686  10.060  18.069  0.00  0.00    +0.000 C 
ENDBRANCH   9  10
ENDBRANCH   6   9
ENDBRANCH   2   3
BRANCH   2  16
ATOM     16  N   UNL     1      46.983   4.767  15.589  0.00  0.00    +0.000 N 
ATOM     17  C   UNL     1      46.802   4.225  14.338  0.00  0.00    +0.000 C 
ATOM     18  O   UNL     1      47.351   3.187  13.979  0.00  0.00    +0.000 OA
ATOM     19  H   UNL     1      46.818   5.766  15.683  0.00  0.00    +0.000 HD
BRANCH  17  20
ATOM     20  C   UNL     1      45.864   4.921  13.452  0.00  0.00    +0.000 A 
ATOM     21  C   UNL     1      44.799   4.221  12.902  0.00  0.00    +0.000 A 
ATOM     22  S   UNL     1      43.798   5.175  11.905  0.00  0.00    +0.000 S 
ATOM     23  C   UNL     1      44.780   6.544  12.137  0.00  0.00    +0.000 A 
ATOM     24  N   UNL     1      44.503   7.719  11.511  0.00  0.00    +0.000 NA
ATOM     25  C   UNL     1      45.351   8.662  11.747  0.00  0.00    +0.000 A 
ATOM     26  N   UNL     1      46.445   8.544  12.567  0.00  0.00    +0.000 N 
ATOM     27  C   UNL     1      46.741   7.389  13.253  0.00  0.00    +0.000 A 
ATOM     28  O   UNL     1      47.686   7.330  14.033  0.00  0.00    +0.000 OA
ATOM     29  C   UNL     1      45.838   6.287  12.992  0.00  0.00    +0.000 A 
ATOM     30  H   UNL     1      47.061   9.328  12.724  0.00  0.00    +0.000 HD
ENDBRANCH  17  20
ENDBRANCH   2  16
TORSDOF 5
ENDMDL
