MODEL 1
REMARK VINA RESULT:    -8.563      0.000      0.000
REMARK INTER + INTRA:         -13.454
REMARK INTER:                 -12.318
REMARK INTRA:                  -1.136
REMARK UNBOUND:                -1.136
REMARK  Name = 
REMARK  9 active torsions:
REMARK  status: ('A' for Active; 'I' for Inactive)
REMARK    1  A    between atoms: C_1  and  N_2
REMARK    2  A    between atoms: C_4  and  C_5
REMARK    3  A    between atoms: N_7  and  C_8
REMARK    4  A    between atoms: C_8  and  C_9
REMARK    5  A    between atoms: C_12  and  C_13
REMARK    6  A    between atoms: C_13  and  C_14
REMARK    7  A    between atoms: C_14  and  O_15
REMARK    8  A    between atoms: O_15  and  C_16
REMARK    9  A    between atoms: C_25  and  O_26
REMARK                            x       y       z     vdW  Elec       q    Type
REMARK                         _______ _______ _______ _____ _____    ______ ____
ROOT
ATOM      1  C   UNL     1      48.513   6.797  14.498  0.00  0.00    +0.000 C 
ATOM      2  O   UNL     1      49.176   6.517  13.503  0.00  0.00    +0.000 OA
ATOM      3  N   UNL     1      47.397   7.593  14.449  0.00  0.00    +0.000 N 
ATOM      4  H   UNL     1      46.876   7.801  15.288  0.00  0.00    +0.000 HD
ENDROOT
BRANCH   1   8
ATOM      5  C   UNL     1      50.732   6.190  18.944  0.00  0.00    +0.000 C 
ATOM      6  N   UNL     1      49.863   6.003  17.806  0.00  0.00    +0.000 N 
ATOM      7  C   UNL     1      49.853   6.781  16.675  0.00  0.00    +0.000 A 
ATOM      8  C   UNL     1      48.881   6.287  15.813  0.00  0.00    +0.000 A 
ATOM      9  C   UNL     1      48.290   5.154  16.471  0.00  0.00    +0.000 A 
ATOM     10  C   UNL     1      47.291   4.213  16.198  0.00  0.00    +0.000 A 
ATOM     11  N   UNL     1      46.995   3.255  17.092  0.00  0.00    +0.000 NA
ATOM     12  C   UNL     1      47.691   3.241  18.242  0.00  0.00    +0.000 A 
ATOM     13  N   UNL     1      48.667   4.077  18.629  0.00  0.00    +0.000 NA
ATOM     14  C   UNL     1      48.923   5.014  17.698  0.00  0.00    +0.000 A 
BRANCH  10  15
ATOM     15  O   UNL     1      46.553   4.182  15.042  0.00  0.00    +0.000 OA
ATOM     16  H   UNL     1      47.133   4.470  14.308  0.00  0.00    +0.000 HD
ENDBRANCH  10  15
ENDBRANCH   1   8
BRANCH   3  17
ATOM     17  C   UNL     1      46.946   8.148  13.199  0.00  0.00    +0.000 C 
BRANCH  17  18
ATOM     18  C   UNL     1      46.134   7.153  12.421  0.00  0.00    +0.000 A 
ATOM     19  C   UNL     1      44.903   6.719  12.919  0.00  0.00    +0.000 A 
ATOM     20  C   UNL     1      44.135   5.799  12.206  0.00  0.00    +0.000 A 
ATOM     21  C   UNL     1      44.582   5.277  10.984  0.00  0.00    +0.000 A 
ATOM     22  C   UNL     1      45.824   5.704  10.496  0.00  0.00    +0.000 A 
ATOM     23  C   UNL     1      46.596   6.626  11.209  0.00  0.00    +0.000 A 
BRANCH  21  24
ATOM     24  C   UNL     1      43.787   4.283  10.162  0.00  0.00    +0.000 C 
BRANCH  24  25
ATOM     25  C   UNL     1      44.370   2.873  10.137  0.00  0.00    +0.000 C 
BRANCH  25  26
ATOM     26  O   UNL     1      44.256   2.309   8.831  0.00  0.00    +0.000 OA
BRANCH  26  27
ATOM     27  C   UNL     1      45.435   2.301   8.128  0.00  0.00    +0.000 A 
ATOM     28  C   UNL     1      46.285   1.196   8.005  0.00  0.00    +0.000 A 
ATOM     29  C   UNL     1      47.458   1.289   7.258  0.00  0.00    +0.000 A 
ATOM     30  C   UNL     1      47.784   2.483   6.621  0.00  0.00    +0.000 A 
ATOM     31  C   UNL     1      46.936   3.583   6.729  0.00  0.00    +0.000 A 
ATOM     32  C   UNL     1      45.760   3.490   7.476  0.00  0.00    +0.000 A 
ENDBRANCH  26  27
ENDBRANCH  25  26
ENDBRANCH  24  25
ENDBRANCH  21  24
ENDBRANCH  17  18
ENDBRANCH   3  17
TORSDOF 8
ENDMDL
MODEL 2
REMARK VINA RESULT:    -8.102      1.694      1.872
REMARK INTER + INTRA:         -12.791
REMARK INTER:                 -11.545
REMARK INTRA:                  -1.246
REMARK UNBOUND:                -1.136
REMARK  Name = 
REMARK  9 active torsions:
REMARK  status: ('A' for Active; 'I' for Inactive)
REMARK    1  A    between atoms: C_1  and  N_2
REMARK    2  A    between atoms: C_4  and  C_5
REMARK    3  A    between atoms: N_7  and  C_8
REMARK    4  A    between atoms: C_8  and  C_9
REMARK    5  A    between atoms: C_12  and  C_13
REMARK    6  A    between atoms: C_13  and  C_14
REMARK    7  A    between atoms: C_14  and  O_15
REMARK    8  A    between atoms: O_15  and  C_16
REMARK    9  A    between atoms: C_25  and  O_26
REMARK                            x       y       z     vdW  Elec       q    Type
REMARK                         _______ _______ _______ _____ _____    ______ ____
ROOT
ATOM      1  C   UNL     1      48.923   6.979  15.575  0.00  0.00    +0.000 C 
ATOM      2  O   UNL     1      49.994   6.557  15.146  0.00  0.00    +0.000 OA
ATOM      3  N   UNL     1      47.886   7.344  14.755  0.00  0.00    +0.000 N 
ATOM      4  H   UNL     1      47.019   7.687  15.143  0.00  0.00    +0.000 HD
ENDROOT
BRANCH   1   8
ATOM      5  C   UNL     1      47.877   8.869  20.090  0.00  0.00    +0.000 C 
ATOM      6  N   UNL     1      48.223   7.947  19.034  0.00  0.00    +0.000 N 
ATOM      7  C   UNL     1      48.349   8.269  17.706  0.00  0.00    +0.000 A 
ATOM      8  C   UNL     1      48.691   7.118  17.007  0.00  0.00    +0.000 A 
ATOM      9  C   UNL     1      48.774   6.061  17.978  0.00  0.00    +0.000 A 
ATOM     10  C   UNL     1      49.063   4.691  17.984  0.00  0.00    +0.000 A 
ATOM     11  N   UNL     1      49.040   3.996  19.133  0.00  0.00    +0.000 NA
ATOM     12  C   UNL     1      48.735   4.665  20.259  0.00  0.00    +0.000 A 
ATOM     13  N   UNL     1      48.441   5.967  20.394  0.00  0.00    +0.000 NA
ATOM     14  C   UNL     1      48.478   6.614  19.215  0.00  0.00    +0.000 A 
BRANCH  10  15
ATOM     15  O   UNL     1      49.381   3.963  16.866  0.00  0.00    +0.000 OA
ATOM     16  H   UNL     1      49.725   3.096  17.160  0.00  0.00    +0.000 HD
ENDBRANCH  10  15
ENDBRANCH   1   8
BRANCH   3  17
ATOM     17  C   UNL     1      48.012   7.247  13.324  0.00  0.00    +0.000 C 
BRANCH  17  18
ATOM     18  C   UNL     1      46.965   6.338  12.745  0.00  0.00    +0.000 A 
ATOM     19  C   UNL     1      46.472   5.274  13.505  0.00  0.00    +0.000 A 
ATOM     20  C   UNL     1      45.497   4.424  12.983  0.00  0.00    +0.000 A 
ATOM     21  C   UNL     1      44.998   4.606  11.685  0.00  0.00    +0.000 A 
ATOM     22  C   UNL     1      45.507   5.665  10.922  0.00  0.00    +0.000 A 
ATOM     23  C   UNL     1      46.484   6.518  11.443  0.00  0.00    +0.000 A 
BRANCH  21  24
ATOM     24  C   UNL     1      43.934   3.720  11.070  0.00  0.00    +0.000 C 
BRANCH  24  25
ATOM     25  C   UNL     1      44.189   3.341   9.614  0.00  0.00    +0.000 C 
BRANCH  25  26
ATOM     26  O   UNL     1      45.109   2.253   9.536  0.00  0.00    +0.000 OA
BRANCH  26  27
ATOM     27  C   UNL     1      45.863   2.247   8.389  0.00  0.00    +0.000 A 
ATOM     28  C   UNL     1      46.573   1.143   7.904  0.00  0.00    +0.000 A 
ATOM     29  C   UNL     1      47.302   1.238   6.720  0.00  0.00    +0.000 A 
ATOM     30  C   UNL     1      47.319   2.434   6.008  0.00  0.00    +0.000 A 
ATOM     31  C   UNL     1      46.604   3.534   6.479  0.00  0.00    +0.000 A 
ATOM     32  C   UNL     1      45.872   3.438   7.664  0.00  0.00    +0.000 A 
ENDBRANCH  26  27
ENDBRANCH  25  26
ENDBRANCH  24  25
ENDBRANCH  21  24
ENDBRANCH  17  18
ENDBRANCH   3  17
TORSDOF 8
ENDMDL
MODEL 3
REMARK VINA RESULT:    -7.831      2.142      2.758
REMARK INTER + INTRA:         -12.401
REMARK INTER:                 -11.228
REMARK INTRA:                  -1.173
REMARK UNBOUND:                -1.136
REMARK  Name = 
REMARK  9 active torsions:
REMARK  status: ('A' for Active; 'I' for Inactive)
REMARK    1  A    between atoms: C_1  and  N_2
REMARK    2  A    between atoms: C_4  and  C_5
REMARK    3  A    between atoms: N_7  and  C_8
REMARK    4  A    between atoms: C_8  and  C_9
REMARK    5  A    between atoms: C_12  and  C_13
REMARK    6  A    between atoms: C_13  and  C_14
REMARK    7  A    between atoms: C_14  and  O_15
REMARK    8  A    between atoms: O_15  and  C_16
REMARK    9  A    between atoms: C_25  and  O_26
REMARK                            x       y       z     vdW  Elec       q    Type
REMARK                         _______ _______ _______ _____ _____    ______ ____
ROOT
ATOM      1  C   UNL     1      49.064   6.480  16.001  0.00  0.00    +0.000 C 
ATOM      2  O   UNL     1      50.191   6.294  15.549  0.00  0.00    +0.000 OA
ATOM      3  N   UNL     1      47.990   6.800  15.211  0.00  0.00    +0.000 N 
ATOM      4  H   UNL     1      47.077   6.946  15.617  0.00  0.00    +0.000 HD
ENDROOT
BRANCH   1   8
ATOM      5  C   UNL     1      48.749   4.749  20.687  0.00  0.00    +0.000 C 
ATOM      6  N   UNL     1      48.653   5.610  19.532  0.00  0.00    +0.000 N 
ATOM      7  C   UNL     1      49.052   5.285  18.260  0.00  0.00    +0.000 A 
ATOM      8  C   UNL     1      48.800   6.369  17.430  0.00  0.00    +0.000 A 
ATOM      9  C   UNL     1      48.216   7.389  18.258  0.00  0.00    +0.000 A 
ATOM     10  C   UNL     1      47.731   8.692  18.096  0.00  0.00    +0.000 A 
ATOM     11  N   UNL     1      47.239   9.370  19.146  0.00  0.00    +0.000 NA
ATOM     12  C   UNL     1      47.233   8.752  20.340  0.00  0.00    +0.000 A 
ATOM     13  N   UNL     1      47.664   7.515  20.633  0.00  0.00    +0.000 NA
ATOM     14  C   UNL     1      48.144   6.881  19.547  0.00  0.00    +0.000 A 
BRANCH  10  15
ATOM     15  O   UNL     1      47.714   9.368  16.903  0.00  0.00    +0.000 OA
ATOM     16  H   UNL     1      46.921   9.080  16.406  0.00  0.00    +0.000 HD
ENDBRANCH  10  15
ENDBRANCH   1   8
BRANCH   3  17
ATOM     17  C   UNL     1      48.141   6.936  13.785  0.00  0.00    +0.000 C 
BRANCH  17  18
ATOM     18  C   UNL     1      47.077   6.172  13.048  0.00  0.00    +0.000 A 
ATOM     19  C   UNL     1      46.720   6.553  11.752  0.00  0.00    +0.000 A 
ATOM     20  C   UNL     1      45.738   5.851  11.054  0.00  0.00    +0.000 A 
ATOM     21  C   UNL     1      45.077   4.759  11.635  0.00  0.00    +0.000 A 
ATOM     22  C   UNL     1      45.428   4.391  12.941  0.00  0.00    +0.000 A 
ATOM     23  C   UNL     1      46.413   5.093  13.643  0.00  0.00    +0.000 A 
BRANCH  21  24
ATOM     24  C   UNL     1      44.010   3.955  10.922  0.00  0.00    +0.000 C 
BRANCH  24  25
ATOM     25  C   UNL     1      44.497   2.629  10.344  0.00  0.00    +0.000 C 
BRANCH  25  26
ATOM     26  O   UNL     1      44.299   2.598   8.932  0.00  0.00    +0.000 OA
BRANCH  26  27
ATOM     27  C   UNL     1      45.457   2.426   8.215  0.00  0.00    +0.000 A 
ATOM     28  C   UNL     1      46.161   1.221   8.109  0.00  0.00    +0.000 A 
ATOM     29  C   UNL     1      47.326   1.149   7.346  0.00  0.00    +0.000 A 
ATOM     30  C   UNL     1      47.789   2.279   6.678  0.00  0.00    +0.000 A 
ATOM     31  C   UNL     1      47.087   3.479   6.769  0.00  0.00    +0.000 A 
ATOM     32  C   UNL     1      45.919   3.551   7.532  0.00  0.00    +0.000 A 
ENDBRANCH  26  27
ENDBRANCH  25  26
ENDBRANCH  24  25
ENDBRANCH  21  24
ENDBRANCH  17  18
ENDBRANCH   3  17
TORSDOF 8
ENDMDL
MODEL 4
REMARK VINA RESULT:    -7.294      2.963      8.061
REMARK INTER + INTRA:         -11.628
REMARK INTER:                 -10.108
REMARK INTRA:                  -1.520
REMARK UNBOUND:                -1.136
REMARK  Name = 
REMARK  9 active torsions:
REMARK  status: ('A' for Active; 'I' for Inactive)
REMARK    1  A    between atoms: C_1  and  N_2
REMARK    2  A    between atoms: C_4  and  C_5
REMARK    3  A    between atoms: N_7  and  C_8
REMARK    4  A    between atoms: C_8  and  C_9
REMARK    5  A    between atoms: C_12  and  C_13
REMARK    6  A    between atoms: C_13  and  C_14
REMARK    7  A    between atoms: C_14  and  O_15
REMARK    8  A    between atoms: O_15  and  C_16
REMARK    9  A    between atoms: C_25  and  O_26
REMARK                            x       y       z     vdW  Elec       q    Type
REMARK                         _______ _______ _______ _____ _____    ______ ____
ROOT
ATOM      1  C   UNL     1      46.326   6.976  11.397  0.00  0.00    +0.000 C 
ATOM      2  O   UNL     1      45.626   7.862  11.881  0.00  0.00    +0.000 OA
ATOM      3  N   UNL     1      47.697   7.016  11.420  0.00  0.00    +0.000 N 
ATOM      4  H   UNL     1      48.241   6.269  11.013  0.00  0.00    +0.000 HD
ENDROOT
BRANCH   1   8
ATOM      5  C   UNL     1      44.964   3.540   8.022  0.00  0.00    +0.000 C 
ATOM      6  N   UNL     1      45.110   4.263   9.263  0.00  0.00    +0.000 N 
ATOM      7  C   UNL     1      45.823   5.424   9.430  0.00  0.00    +0.000 A 
ATOM      8  C   UNL     1      45.728   5.809  10.761  0.00  0.00    +0.000 A 
ATOM      9  C   UNL     1      44.910   4.823  11.413  0.00  0.00    +0.000 A 
ATOM     10  C   UNL     1      44.416   4.587  12.701  0.00  0.00    +0.000 A 
ATOM     11  N   UNL     1      43.651   3.511  12.950  0.00  0.00    +0.000 NA
ATOM     12  C   UNL     1      43.385   2.686  11.922  0.00  0.00    +0.000 A 
ATOM     13  N   UNL     1      43.790   2.794  10.648  0.00  0.00    +0.000 NA
ATOM     14  C   UNL     1      44.551   3.887  10.455  0.00  0.00    +0.000 A 
BRANCH  10  15
ATOM     15  O   UNL     1      44.657   5.396  13.783  0.00  0.00    +0.000 OA
ATOM     16  H   UNL     1      44.997   6.250  13.448  0.00  0.00    +0.000 HD
ENDBRANCH  10  15
ENDBRANCH   1   8
BRANCH   3  17
ATOM     17  C   UNL     1      48.390   8.124  12.024  0.00  0.00    +0.000 C 
BRANCH  17  18
ATOM     18  C   UNL     1      49.016   7.729  13.332  0.00  0.00    +0.000 A 
ATOM     19  C   UNL     1      50.316   8.143  13.632  0.00  0.00    +0.000 A 
ATOM     20  C   UNL     1      50.910   7.789  14.844  0.00  0.00    +0.000 A 
ATOM     21  C   UNL     1      50.225   7.000  15.781  0.00  0.00    +0.000 A 
ATOM     22  C   UNL     1      48.928   6.575  15.467  0.00  0.00    +0.000 A 
ATOM     23  C   UNL     1      48.331   6.929  14.254  0.00  0.00    +0.000 A 
BRANCH  21  24
ATOM     24  C   UNL     1      50.815   6.593  17.115  0.00  0.00    +0.000 C 
BRANCH  24  25
ATOM     25  C   UNL     1      49.811   6.544  18.263  0.00  0.00    +0.000 C 
BRANCH  25  26
ATOM     26  O   UNL     1      49.915   5.305  18.964  0.00  0.00    +0.000 OA
BRANCH  26  27
ATOM     27  C   UNL     1      49.645   4.206  18.187  0.00  0.00    +0.000 A 
ATOM     28  C   UNL     1      50.599   3.275  17.760  0.00  0.00    +0.000 A 
ATOM     29  C   UNL     1      50.218   2.184  16.979  0.00  0.00    +0.000 A 
ATOM     30  C   UNL     1      48.882   2.012  16.629  0.00  0.00    +0.000 A 
ATOM     31  C   UNL     1      47.926   2.928  17.062  0.00  0.00    +0.000 A 
ATOM     32  C   UNL     1      48.306   4.021  17.845  0.00  0.00    +0.000 A 
ENDBRANCH  26  27
ENDBRANCH  25  26
ENDBRANCH  24  25
ENDBRANCH  21  24
ENDBRANCH  17  18
ENDBRANCH   3  17
TORSDOF 8
ENDMDL
MODEL 5
REMARK VINA RESULT:    -7.133      1.884      2.454
REMARK INTER + INTRA:         -11.397
REMARK INTER:                  -9.968
REMARK INTRA:                  -1.430
REMARK UNBOUND:                -1.136
REMARK  Name = 
REMARK  9 active torsions:
REMARK  status: ('A' for Active; 'I' for Inactive)
REMARK    1  A    between atoms: C_1  and  N_2
REMARK    2  A    between atoms: C_4  and  C_5
REMARK    3  A    between atoms: N_7  and  C_8
REMARK    4  A    between atoms: C_8  and  C_9
REMARK    5  A    between atoms: C_12  and  C_13
REMARK    6  A    between atoms: C_13  and  C_14
REMARK    7  A    between atoms: C_14  and  O_15
REMARK    8  A    between atoms: O_15  and  C_16
REMARK    9  A    between atoms: C_25  and  O_26
REMARK                            x       y       z     vdW  Elec       q    Type
REMARK                         _______ _______ _______ _____ _____    ______ ____
ROOT
ATOM      1  C   UNL     1      49.310   7.371  15.625  0.00  0.00    +0.000 C 
ATOM      2  O   UNL     1      48.618   8.328  15.963  0.00  0.00    +0.000 OA
ATOM      3  N   UNL     1      49.339   6.892  14.340  0.00  0.00    +0.000 N 
ATOM      4  H   UNL     1      49.921   6.104  14.098  0.00  0.00    +0.000 HD
ENDROOT
BRANCH   1   8
ATOM      5  C   UNL     1      53.245   5.278  17.902  0.00  0.00    +0.000 C 
ATOM      6  N   UNL     1      51.905   5.737  17.622  0.00  0.00    +0.000 N 
ATOM      7  C   UNL     1      51.513   6.405  16.489  0.00  0.00    +0.000 A 
ATOM      8  C   UNL     1      50.154   6.677  16.589  0.00  0.00    +0.000 A 
ATOM      9  C   UNL     1      49.722   6.136  17.849  0.00  0.00    +0.000 A 
ATOM     10  C   UNL     1      48.528   6.049  18.574  0.00  0.00    +0.000 A 
ATOM     11  N   UNL     1      48.504   5.446  19.775  0.00  0.00    +0.000 NA
ATOM     12  C   UNL     1      49.658   4.939  20.240  0.00  0.00    +0.000 A 
ATOM     13  N   UNL     1      50.865   4.953  19.653  0.00  0.00    +0.000 NA
ATOM     14  C   UNL     1      50.832   5.566  18.455  0.00  0.00    +0.000 A 
BRANCH  10  15
ATOM     15  O   UNL     1      47.324   6.548  18.146  0.00  0.00    +0.000 OA
ATOM     16  H   UNL     1      47.484   7.050  17.322  0.00  0.00    +0.000 HD
ENDBRANCH  10  15
ENDBRANCH   1   8
BRANCH   3  17
ATOM     17  C   UNL     1      48.542   7.505  13.310  0.00  0.00    +0.000 C 
BRANCH  17  18
ATOM     18  C   UNL     1      47.258   6.753  13.094  0.00  0.00    +0.000 A 
ATOM     19  C   UNL     1      46.145   7.416  12.571  0.00  0.00    +0.000 A 
ATOM     20  C   UNL     1      44.948   6.732  12.361  0.00  0.00    +0.000 A 
ATOM     21  C   UNL     1      44.828   5.371  12.679  0.00  0.00    +0.000 A 
ATOM     22  C   UNL     1      45.943   4.715  13.216  0.00  0.00    +0.000 A 
ATOM     23  C   UNL     1      47.144   5.399  13.428  0.00  0.00    +0.000 A 
BRANCH  21  24
ATOM     24  C   UNL     1      43.557   4.574  12.463  0.00  0.00    +0.000 C 
BRANCH  24  25
ATOM     25  C   UNL     1      43.287   4.195  11.010  0.00  0.00    +0.000 C 
BRANCH  25  26
ATOM     26  O   UNL     1      43.985   2.998  10.669  0.00  0.00    +0.000 OA
BRANCH  26  27
ATOM     27  C   UNL     1      44.803   3.128   9.575  0.00  0.00    +0.000 A 
ATOM     28  C   UNL     1      45.203   4.348   9.016  0.00  0.00    +0.000 A 
ATOM     29  C   UNL     1      46.047   4.372   7.906  0.00  0.00    +0.000 A 
ATOM     30  C   UNL     1      46.504   3.179   7.354  0.00  0.00    +0.000 A 
ATOM     31  C   UNL     1      46.120   1.961   7.914  0.00  0.00    +0.000 A 
ATOM     32  C   UNL     1      45.276   1.937   9.026  0.00  0.00    +0.000 A 
ENDBRANCH  26  27
ENDBRANCH  25  26
ENDBRANCH  24  25
ENDBRANCH  21  24
ENDBRANCH  17  18
ENDBRANCH   3  17
TORSDOF 8
ENDMDL
MODEL 6
REMARK VINA RESULT:    -7.060      2.111      3.452
REMARK INTER + INTRA:         -11.292
REMARK INTER:                 -10.385
REMARK INTRA:                  -0.907
REMARK UNBOUND:                -1.136
REMARK  Name = 
REMARK  9 active torsions:
REMARK  status: ('A' for Active; 'I' for Inactive)
REMARK    1  A    between atoms: C_1  and  N_2
REMARK    2  A    between atoms: C_4  and  C_5
REMARK    3  A    between atoms: N_7  and  C_8
REMARK    4  A    between atoms: C_8  and  C_9
REMARK    5  A    between atoms: C_12  and  C_13
REMARK    6  A    between atoms: C_13  and  C_14
REMARK    7  A    between atoms: C_14  and  O_15
REMARK    8  A    between atoms: O_15  and  C_16
REMARK    9  A    between atoms: C_25  and  O_26
REMARK                            x       y       z     vdW  Elec       q    Type
REMARK                         _______ _______ _______ _____ _____    ______ ____
ROOT
ATOM      1  C   UNL     1      48.302   7.774  13.430  0.00  0.00    +0.000 C 
ATOM      2  O   UNL     1      48.577   7.839  12.234  0.00  0.00    +0.000 OA
ATOM      3  N   UNL     1      47.029   7.949  13.911  0.00  0.00    +0.000 N 
ATOM      4  H   UNL     1      46.840   7.887  14.900  0.00  0.00    +0.000 HD
ENDROOT
BRANCH   1   8
ATOM      5  C   UNL     1      50.739   6.036  17.442  0.00  0.00    +0.000 C 
ATOM      6  N   UNL     1      50.438   6.733  16.213  0.00  0.00    +0.000 N 
ATOM      7  C   UNL     1      49.228   6.718  15.565  0.00  0.00    +0.000 A 
ATOM      8  C   UNL     1      49.333   7.502  14.424  0.00  0.00    +0.000 A 
ATOM      9  C   UNL     1      50.677   8.011  14.401  0.00  0.00    +0.000 A 
ATOM     10  C   UNL     1      51.450   8.835  13.575  0.00  0.00    +0.000 A 
ATOM     11  N   UNL     1      52.731   9.098  13.883  0.00  0.00    +0.000 NA
ATOM     12  C   UNL     1      53.229   8.543  15.001  0.00  0.00    +0.000 A 
ATOM     13  N   UNL     1      52.604   7.740  15.876  0.00  0.00    +0.000 NA
ATOM     14  C   UNL     1      51.326   7.511  15.521  0.00  0.00    +0.000 A 
BRANCH  10  15
ATOM     15  O   UNL     1      50.991   9.426  12.425  0.00  0.00    +0.000 OA
ATOM     16  H   UNL     1      50.014   9.406  12.446  0.00  0.00    +0.000 HD
ENDBRANCH  10  15
ENDBRANCH   1   8
BRANCH   3  17
ATOM     17  C   UNL     1      45.937   8.223  13.014  0.00  0.00    +0.000 C 
BRANCH  17  18
ATOM     18  C   UNL     1      45.300   6.952  12.525  0.00  0.00    +0.000 A 
ATOM     19  C   UNL     1      45.718   5.723  13.042  0.00  0.00    +0.000 A 
ATOM     20  C   UNL     1      45.133   4.535  12.602  0.00  0.00    +0.000 A 
ATOM     21  C   UNL     1      44.126   4.543  11.625  0.00  0.00    +0.000 A 
ATOM     22  C   UNL     1      43.722   5.777  11.100  0.00  0.00    +0.000 A 
ATOM     23  C   UNL     1      44.306   6.969  11.540  0.00  0.00    +0.000 A 
BRANCH  21  24
ATOM     24  C   UNL     1      43.450   3.287  11.117  0.00  0.00    +0.000 C 
BRANCH  24  25
ATOM     25  C   UNL     1      44.282   2.475  10.128  0.00  0.00    +0.000 C 
BRANCH  25  26
ATOM     26  O   UNL     1      44.549   3.242   8.954  0.00  0.00    +0.000 OA
BRANCH  26  27
ATOM     27  C   UNL     1      45.544   2.718   8.167  0.00  0.00    +0.000 A 
ATOM     28  C   UNL     1      46.079   1.432   8.305  0.00  0.00    +0.000 A 
ATOM     29  C   UNL     1      47.084   0.991   7.444  0.00  0.00    +0.000 A 
ATOM     30  C   UNL     1      47.553   1.828   6.436  0.00  0.00    +0.000 A 
ATOM     31  C   UNL     1      47.015   3.105   6.286  0.00  0.00    +0.000 A 
ATOM     32  C   UNL     1      46.008   3.547   7.146  0.00  0.00    +0.000 A 
ENDBRANCH  26  27
ENDBRANCH  25  26
ENDBRANCH  24  25
ENDBRANCH  21  24
ENDBRANCH  17  18
ENDBRANCH   3  17
TORSDOF 8
ENDMDL
MODEL 7
REMARK VINA RESULT:    -7.035      3.530      9.639
REMARK INTER + INTRA:         -11.256
REMARK INTER:                  -9.744
REMARK INTRA:                  -1.512
REMARK UNBOUND:                -1.136
REMARK  Name = 
REMARK  9 active torsions:
REMARK  status: ('A' for Active; 'I' for Inactive)
REMARK    1  A    between atoms: C_1  and  N_2
REMARK    2  A    between atoms: C_4  and  C_5
REMARK    3  A    between atoms: N_7  and  C_8
REMARK    4  A    between atoms: C_8  and  C_9
REMARK    5  A    between atoms: C_12  and  C_13
REMARK    6  A    between atoms: C_13  and  C_14
REMARK    7  A    between atoms: C_14  and  O_15
REMARK    8  A    between atoms: O_15  and  C_16
REMARK    9  A    between atoms: C_25  and  O_26
REMARK                            x       y       z     vdW  Elec       q    Type
REMARK                         _______ _______ _______ _____ _____    ______ ____
ROOT
ATOM      1  C   UNL     1      46.902   4.225  14.354  0.00  0.00    +0.000 C 
ATOM      2  O   UNL     1      47.326   3.168  13.893  0.00  0.00    +0.000 OA
ATOM      3  N   UNL     1      47.068   4.583  15.668  0.00  0.00    +0.000 N 
ATOM      4  H   UNL     1      46.707   5.460  16.012  0.00  0.00    +0.000 HD
ENDROOT
BRANCH   1   8
ATOM      5  C   UNL     1      45.408   8.441  12.107  0.00  0.00    +0.000 C 
ATOM      6  N   UNL     1      45.507   7.055  12.500  0.00  0.00    +0.000 N 
ATOM      7  C   UNL     1      46.402   6.546  13.407  0.00  0.00    +0.000 A 
ATOM      8  C   UNL     1      46.187   5.178  13.515  0.00  0.00    +0.000 A 
ATOM      9  C   UNL     1      45.104   4.865  12.623  0.00  0.00    +0.000 A 
ATOM     10  C   UNL     1      44.387   3.726  12.238  0.00  0.00    +0.000 A 
ATOM     11  N   UNL     1      43.397   3.819  11.335  0.00  0.00    +0.000 NA
ATOM     12  C   UNL     1      43.129   5.034  10.827  0.00  0.00    +0.000 A 
ATOM     13  N   UNL     1      43.733   6.199  11.107  0.00  0.00    +0.000 NA
ATOM     14  C   UNL     1      44.714   6.049  12.016  0.00  0.00    +0.000 A 
BRANCH  10  15
ATOM     15  O   UNL     1      44.619   2.464  12.725  0.00  0.00    +0.000 OA
ATOM     16  H   UNL     1      43.855   2.212  13.281  0.00  0.00    +0.000 HD
ENDBRANCH  10  15
ENDBRANCH   1   8
BRANCH   3  17
ATOM     17  C   UNL     1      47.760   3.713  16.584  0.00  0.00    +0.000 C 
BRANCH  17  18
ATOM     18  C   UNL     1      47.863   4.331  17.950  0.00  0.00    +0.000 A 
ATOM     19  C   UNL     1      48.745   3.792  18.891  0.00  0.00    +0.000 A 
ATOM     20  C   UNL     1      48.856   4.356  20.162  0.00  0.00    +0.000 A 
ATOM     21  C   UNL     1      48.080   5.465  20.530  0.00  0.00    +0.000 A 
ATOM     22  C   UNL     1      47.187   5.992  19.588  0.00  0.00    +0.000 A 
ATOM     23  C   UNL     1      47.074   5.428  18.314  0.00  0.00    +0.000 A 
BRANCH  21  24
ATOM     24  C   UNL     1      48.165   6.125  21.891  0.00  0.00    +0.000 C 
BRANCH  24  25
ATOM     25  C   UNL     1      47.411   7.448  22.002  0.00  0.00    +0.000 C 
BRANCH  25  26
ATOM     26  O   UNL     1      48.316   8.547  21.899  0.00  0.00    +0.000 OA
BRANCH  26  27
ATOM     27  C   UNL     1      48.249   9.206  20.697  0.00  0.00    +0.000 A 
ATOM     28  C   UNL     1      49.227   9.145  19.697  0.00  0.00    +0.000 A 
ATOM     29  C   UNL     1      49.059   9.848  18.504  0.00  0.00    +0.000 A 
ATOM     30  C   UNL     1      47.911  10.607  18.300  0.00  0.00    +0.000 A 
ATOM     31  C   UNL     1      46.928  10.662  19.287  0.00  0.00    +0.000 A 
ATOM     32  C   UNL     1      47.095   9.958  20.481  0.00  0.00    +0.000 A 
ENDBRANCH  26  27
ENDBRANCH  25  26
ENDBRANCH  24  25
ENDBRANCH  21  24
ENDBRANCH  17  18
ENDBRANCH   3  17
TORSDOF 8
ENDMDL
MODEL 8
REMARK VINA RESULT:    -6.790      3.825      5.626
REMARK INTER + INTRA:         -10.903
REMARK INTER:                  -9.576
REMARK INTRA:                  -1.328
REMARK UNBOUND:                -1.136
REMARK  Name = 
REMARK  9 active torsions:
REMARK  status: ('A' for Active; 'I' for Inactive)
REMARK    1  A    between atoms: C_1  and  N_2
REMARK    2  A    between atoms: C_4  and  C_5
REMARK    3  A    between atoms: N_7  and  C_8
REMARK    4  A    between atoms: C_8  and  C_9
REMARK    5  A    between atoms: C_12  and  C_13
REMARK    6  A    between atoms: C_13  and  C_14
REMARK    7  A    between atoms: C_14  and  O_15
REMARK    8  A    between atoms: O_15  and  C_16
REMARK    9  A    between atoms: C_25  and  O_26
REMARK                            x       y       z     vdW  Elec       q    Type
REMARK                         _______ _______ _______ _____ _____    ______ ____
ROOT
ATOM      1  C   UNL     1      49.586   8.310  12.576  0.00  0.00    +0.000 C 
ATOM      2  O   UNL     1      49.620   8.192  13.798  0.00  0.00    +0.000 OA
ATOM      3  N   UNL     1      48.414   8.341  11.865  0.00  0.00    +0.000 N 
ATOM      4  H   UNL     1      48.423   8.440  10.860  0.00  0.00    +0.000 HD
ENDROOT
BRANCH   1   8
ATOM      5  C   UNL     1      53.181   7.570   9.173  0.00  0.00    +0.000 C 
ATOM      6  N   UNL     1      52.430   8.110  10.282  0.00  0.00    +0.000 N 
ATOM      7  C   UNL     1      51.210   7.655  10.714  0.00  0.00    +0.000 A 
ATOM      8  C   UNL     1      50.813   8.427  11.798  0.00  0.00    +0.000 A 
ATOM      9  C   UNL     1      51.859   9.388  12.019  0.00  0.00    +0.000 A 
ATOM     10  C   UNL     1      52.120  10.437  12.907  0.00  0.00    +0.000 A 
ATOM     11  N   UNL     1      53.253  11.151  12.804  0.00  0.00    +0.000 NA
ATOM     12  C   UNL     1      54.111  10.818  11.824  0.00  0.00    +0.000 A 
ATOM     13  N   UNL     1      53.987   9.842  10.912  0.00  0.00    +0.000 NA
ATOM     14  C   UNL     1      52.837   9.159  11.061  0.00  0.00    +0.000 A 
BRANCH  10  15
ATOM     15  O   UNL     1      51.279  10.818  13.923  0.00  0.00    +0.000 OA
ATOM     16  H   UNL     1      50.363  10.620  13.644  0.00  0.00    +0.000 HD
ENDBRANCH  10  15
ENDBRANCH   1   8
BRANCH   3  17
ATOM     17  C   UNL     1      47.144   8.232  12.536  0.00  0.00    +0.000 C 
BRANCH  17  18
ATOM     18  C   UNL     1      46.489   6.909  12.252  0.00  0.00    +0.000 A 
ATOM     19  C   UNL     1      45.791   6.722  11.056  0.00  0.00    +0.000 A 
ATOM     20  C   UNL     1      45.182   5.500  10.776  0.00  0.00    +0.000 A 
ATOM     21  C   UNL     1      45.241   4.436  11.689  0.00  0.00    +0.000 A 
ATOM     22  C   UNL     1      45.928   4.634  12.893  0.00  0.00    +0.000 A 
ATOM     23  C   UNL     1      46.540   5.859  13.176  0.00  0.00    +0.000 A 
BRANCH  21  24
ATOM     24  C   UNL     1      44.606   3.085  11.435  0.00  0.00    +0.000 C 
BRANCH  24  25
ATOM     25  C   UNL     1      44.016   2.915  10.038  0.00  0.00    +0.000 C 
BRANCH  25  26
ATOM     26  O   UNL     1      44.603   1.792   9.382  0.00  0.00    +0.000 OA
BRANCH  26  27
ATOM     27  C   UNL     1      45.536   2.131   8.434  0.00  0.00    +0.000 A 
ATOM     28  C   UNL     1      45.671   3.402   7.864  0.00  0.00    +0.000 A 
ATOM     29  C   UNL     1      46.661   3.646   6.913  0.00  0.00    +0.000 A 
ATOM     30  C   UNL     1      47.528   2.625   6.534  0.00  0.00    +0.000 A 
ATOM     31  C   UNL     1      47.407   1.361   7.108  0.00  0.00    +0.000 A 
ATOM     32  C   UNL     1      46.416   1.116   8.061  0.00  0.00    +0.000 A 
ENDBRANCH  26  27
ENDBRANCH  25  26
ENDBRANCH  24  25
ENDBRANCH  21  24
ENDBRANCH  17  18
ENDBRANCH   3  17
TORSDOF 8
ENDMDL
MODEL 9
REMARK VINA RESULT:    -6.777      3.513      8.952
REMARK INTER + INTRA:         -10.885
REMARK INTER:                  -9.369
REMARK INTRA:                  -1.516
REMARK UNBOUND:                -1.136
REMARK  Name = 
REMARK  9 active torsions:
REMARK  status: ('A' for Active; 'I' for Inactive)
REMARK    1  A    between atoms: C_1  and  N_2
REMARK    2  A    between atoms: C_4  and  C_5
REMARK    3  A    between atoms: N_7  and  C_8
REMARK    4  A    between atoms: C_8  and  C_9
REMARK    5  A    between atoms: C_12  and  C_13
REMARK    6  A    between atoms: C_13  and  C_14
REMARK    7  A    between atoms: C_14  and  O_15
REMARK    8  A    between atoms: O_15  and  C_16
REMARK    9  A    between atoms: C_25  and  O_26
REMARK                            x       y       z     vdW  Elec       q    Type
REMARK                         _______ _______ _______ _____ _____    ______ ____
ROOT
ATOM      1  C   UNL     1      47.049   4.236  14.735  0.00  0.00    +0.000 C 
ATOM      2  O   UNL     1      47.300   3.119  14.289  0.00  0.00    +0.000 OA
ATOM      3  N   UNL     1      47.027   4.513  16.078  0.00  0.00    +0.000 N 
ATOM      4  H   UNL     1      46.818   5.444  16.408  0.00  0.00    +0.000 HD
ENDROOT
BRANCH   1   8
ATOM      5  C   UNL     1      47.377   8.518  12.163  0.00  0.00    +0.000 C 
ATOM      6  N   UNL     1      46.887   7.263  12.685  0.00  0.00    +0.000 N 
ATOM      7  C   UNL     1      47.543   6.468  13.590  0.00  0.00    +0.000 A 
ATOM      8  C   UNL     1      46.756   5.352  13.844  0.00  0.00    +0.000 A 
ATOM      9  C   UNL     1      45.569   5.501  13.046  0.00  0.00    +0.000 A 
ATOM     10  C   UNL     1      44.390   4.782  12.814  0.00  0.00    +0.000 A 
ATOM     11  N   UNL     1      43.465   5.251  11.960  0.00  0.00    +0.000 NA
ATOM     12  C   UNL     1      43.718   6.422  11.349  0.00  0.00    +0.000 A 
ATOM     13  N   UNL     1      44.798   7.207  11.480  0.00  0.00    +0.000 NA
ATOM     14  C   UNL     1      45.690   6.692  12.346  0.00  0.00    +0.000 A 
BRANCH  10  15
ATOM     15  O   UNL     1      44.084   3.586  13.410  0.00  0.00    +0.000 OA
ATOM     16  H   UNL     1      44.293   2.872  12.775  0.00  0.00    +0.000 HD
ENDBRANCH  10  15
ENDBRANCH   1   8
BRANCH   3  17
ATOM     17  C   UNL     1      47.302   3.482  17.045  0.00  0.00    +0.000 C 
BRANCH  17  18
ATOM     18  C   UNL     1      48.777   3.350  17.298  0.00  0.00    +0.000 A 
ATOM     19  C   UNL     1      49.436   2.164  16.963  0.00  0.00    +0.000 A 
ATOM     20  C   UNL     1      50.806   2.028  17.187  0.00  0.00    +0.000 A 
ATOM     21  C   UNL     1      51.551   3.067  17.764  0.00  0.00    +0.000 A 
ATOM     22  C   UNL     1      50.883   4.248  18.111  0.00  0.00    +0.000 A 
ATOM     23  C   UNL     1      49.510   4.387  17.887  0.00  0.00    +0.000 A 
BRANCH  21  24
ATOM     24  C   UNL     1      53.041   2.979  18.022  0.00  0.00    +0.000 C 
BRANCH  24  25
ATOM     25  C   UNL     1      53.613   4.138  18.832  0.00  0.00    +0.000 C 
BRANCH  25  26
ATOM     26  O   UNL     1      54.412   4.980  18.003  0.00  0.00    +0.000 OA
BRANCH  26  27
ATOM     27  C   UNL     1      53.770   6.122  17.593  0.00  0.00    +0.000 A 
ATOM     28  C   UNL     1      53.418   7.186  18.431  0.00  0.00    +0.000 A 
ATOM     29  C   UNL     1      52.775   8.309  17.912  0.00  0.00    +0.000 A 
ATOM     30  C   UNL     1      52.488   8.379  16.552  0.00  0.00    +0.000 A 
ATOM     31  C   UNL     1      52.847   7.329  15.710  0.00  0.00    +0.000 A 
ATOM     32  C   UNL     1      53.492   6.204  16.229  0.00  0.00    +0.000 A 
ENDBRANCH  26  27
ENDBRANCH  25  26
ENDBRANCH  24  25
ENDBRANCH  21  24
ENDBRANCH  17  18
ENDBRANCH   3  17
TORSDOF 8
ENDMDL
