MODEL 1
REMARK VINA RESULT:    -7.356      0.000      0.000
REMARK INTER + INTRA:         -10.891
REMARK INTER:                  -9.721
REMARK INTRA:                  -1.169
REMARK UNBOUND:                -1.169
REMARK  Name = 
REMARK  7 active torsions:
REMARK  status: ('A' for Active; 'I' for Inactive)
REMARK    1  A    between atoms: C_1  and  N_2
REMARK    2  A    between atoms: N_2  and  C_3
REMARK    3  A    between atoms: C_3  and  C_4
REMARK    4  A    between atoms: C_7  and  C_8
REMARK    5  A    between atoms: C_8  and  N_9
REMARK    6  A    between atoms: C_12  and  O_13
REMARK    7  A    between atoms: C_18  and  C_20
REMARK                            x       y       z     vdW  Elec       q    Type
REMARK                         _______ _______ _______ _____ _____    ______ ____
ROOT
ATOM      1  C   UNL     1      47.134   6.265  12.358  0.00  0.00    +0.000 C 
ENDROOT
BRANCH   1   2
ATOM      2  C   UNL     1      47.432   5.761  13.745  0.00  0.00    +0.000 A 
ATOM      3  C   UNL     1      48.289   6.476  14.596  0.00  0.00    +0.000 A 
ATOM      4  C   UNL     1      48.613   5.980  15.860  0.00  0.00    +0.000 A 
ATOM      5  C   UNL     1      48.084   4.759  16.297  0.00  0.00    +0.000 A 
ATOM      6  C   UNL     1      47.212   4.059  15.448  0.00  0.00    +0.000 A 
ATOM      7  C   UNL     1      46.888   4.552  14.188  0.00  0.00    +0.000 A 
BRANCH   5   8
ATOM      8  C   UNL     1      48.459   4.177  17.647  0.00  0.00    +0.000 C 
BRANCH   8   9
ATOM      9  N   UNL     1      48.433   5.095  18.799  0.00  0.00    +0.000 NA
ATOM     10  C   UNL     1      49.136   4.568  19.973  0.00  0.00    +0.000 C 
ATOM     11  C   UNL     1      49.185   5.574  21.122  0.00  0.00    +0.000 C 
ATOM     12  C   UNL     1      47.801   6.115  21.461  0.00  0.00    +0.000 C 
ATOM     13  C   UNL     1      47.112   6.645  20.209  0.00  0.00    +0.000 C 
ATOM     14  C   UNL     1      47.094   5.606  19.087  0.00  0.00    +0.000 C 
BRANCH  12  15
ATOM     15  O   UNL     1      47.003   5.110  22.087  0.00  0.00    +0.000 OA
ATOM     16  H   UNL     1      46.358   4.778  21.442  0.00  0.00    +0.000 HD
ENDBRANCH  12  15
ENDBRANCH   8   9
ENDBRANCH   5   8
ENDBRANCH   1   2
BRANCH   1  18
ATOM     17  C   UNL     1      46.162   8.602  12.337  0.00  0.00    +0.000 C 
ATOM     18  N   UNL     1      45.978   7.160  12.211  0.00  0.00    +0.000 N 
ATOM     19  C   UNL     1      44.738   6.736  11.702  0.00  0.00    +0.000 C 
ATOM     20  O   UNL     1      43.867   7.546  11.389  0.00  0.00    +0.000 OA
BRANCH  19  21
ATOM     21  C   UNL     1      44.465   5.299  11.582  0.00  0.00    +0.000 A 
ATOM     22  C   UNL     1      43.734   4.562  12.501  0.00  0.00    +0.000 A 
ATOM     23  S   UNL     1      43.525   2.928  12.056  0.00  0.00    +0.000 S 
ATOM     24  C   UNL     1      44.271   3.189  10.551  0.00  0.00    +0.000 A 
ATOM     25  N   UNL     1      44.322   2.204   9.619  0.00  0.00    +0.000 NA
ATOM     26  C   UNL     1      44.854   2.565   8.498  0.00  0.00    +0.000 A 
ATOM     27  N   UNL     1      45.369   3.810   8.242  0.00  0.00    +0.000 N 
ATOM     28  C   UNL     1      45.467   4.797   9.205  0.00  0.00    +0.000 A 
ATOM     29  O   UNL     1      46.155   5.796   9.016  0.00  0.00    +0.000 OA
ATOM     30  C   UNL     1      44.766   4.475  10.432  0.00  0.00    +0.000 A 
ATOM     31  H   UNL     1      45.836   4.004   7.367  0.00  0.00    +0.000 HD
ENDBRANCH  19  21
ENDBRANCH   1  18
TORSDOF 6
ENDMDL
MODEL 2
REMARK VINA RESULT:    -7.115      1.741      2.200
REMARK INTER + INTRA:         -10.573
REMARK INTER:                  -9.405
REMARK INTRA:                  -1.168
REMARK UNBOUND:                -1.169
REMARK  Name = 
REMARK  7 active torsions:
REMARK  status: ('A' for Active; 'I' for Inactive)
REMARK    1  A    between atoms: C_1  and  N_2
REMARK    2  A    between atoms: N_2  and  C_3
REMARK    3  A    between atoms: C_3  and  C_4
REMARK    4  A    between atoms: C_7  and  C_8
REMARK    5  A    between atoms: C_8  and  N_9
REMARK    6  A    between atoms: C_12  and  O_13
REMARK    7  A    between atoms: C_18  and  C_20
REMARK                            x       y       z     vdW  Elec       q    Type
REMARK                         _______ _______ _______ _____ _____    ______ ____
ROOT
ATOM      1  C   UNL     1      47.108   6.170  12.486  0.00  0.00    +0.000 C 
ENDROOT
BRANCH   1   2
ATOM      2  C   UNL     1      47.466   5.813  13.904  0.00  0.00    +0.000 A 
ATOM      3  C   UNL     1      48.351   6.613  14.642  0.00  0.00    +0.000 A 
ATOM      4  C   UNL     1      48.729   6.250  15.936  0.00  0.00    +0.000 A 
ATOM      5  C   UNL     1      48.226   5.080  16.517  0.00  0.00    +0.000 A 
ATOM      6  C   UNL     1      47.325   4.294  15.780  0.00  0.00    +0.000 A 
ATOM      7  C   UNL     1      46.947   4.654  14.490  0.00  0.00    +0.000 A 
BRANCH   5   8
ATOM      8  C   UNL     1      48.659   4.641  17.903  0.00  0.00    +0.000 C 
BRANCH   8   9
ATOM      9  N   UNL     1      50.056   4.913  18.282  0.00  0.00    +0.000 NA
ATOM     10  C   UNL     1      51.020   4.049  17.592  0.00  0.00    +0.000 C 
ATOM     11  C   UNL     1      52.467   4.412  17.922  0.00  0.00    +0.000 C 
ATOM     12  C   UNL     1      52.707   4.474  19.425  0.00  0.00    +0.000 C 
ATOM     13  C   UNL     1      51.679   5.378  20.095  0.00  0.00    +0.000 C 
ATOM     14  C   UNL     1      50.248   4.979  19.730  0.00  0.00    +0.000 C 
BRANCH  12  15
ATOM     15  O   UNL     1      52.677   3.166  19.998  0.00  0.00    +0.000 OA
ATOM     16  H   UNL     1      52.523   3.249  20.954  0.00  0.00    +0.000 HD
ENDBRANCH  12  15
ENDBRANCH   8   9
ENDBRANCH   5   8
ENDBRANCH   1   2
BRANCH   1  18
ATOM     17  C   UNL     1      46.126   8.503  12.442  0.00  0.00    +0.000 C 
ATOM     18  N   UNL     1      45.955   7.060  12.296  0.00  0.00    +0.000 N 
ATOM     19  C   UNL     1      44.741   6.635  11.730  0.00  0.00    +0.000 C 
ATOM     20  O   UNL     1      43.880   7.443  11.386  0.00  0.00    +0.000 OA
BRANCH  19  21
ATOM     21  C   UNL     1      44.480   5.198  11.586  0.00  0.00    +0.000 A 
ATOM     22  C   UNL     1      43.756   4.439  12.493  0.00  0.00    +0.000 A 
ATOM     23  S   UNL     1      43.562   2.811  12.022  0.00  0.00    +0.000 S 
ATOM     24  C   UNL     1      44.306   3.103  10.521  0.00  0.00    +0.000 A 
ATOM     25  N   UNL     1      44.365   2.135   9.573  0.00  0.00    +0.000 NA
ATOM     26  C   UNL     1      44.894   2.519   8.458  0.00  0.00    +0.000 A 
ATOM     27  N   UNL     1      45.398   3.772   8.223  0.00  0.00    +0.000 N 
ATOM     28  C   UNL     1      45.487   4.744   9.202  0.00  0.00    +0.000 A 
ATOM     29  O   UNL     1      46.165   5.753   9.029  0.00  0.00    +0.000 OA
ATOM     30  C   UNL     1      44.788   4.396  10.422  0.00  0.00    +0.000 A 
ATOM     31  H   UNL     1      45.862   3.984   7.351  0.00  0.00    +0.000 HD
ENDBRANCH  19  21
ENDBRANCH   1  18
TORSDOF 6
ENDMDL
MODEL 3
REMARK VINA RESULT:    -6.587      3.181      7.916
REMARK INTER + INTRA:          -9.874
REMARK INTER:                  -8.791
REMARK INTRA:                  -1.082
REMARK UNBOUND:                -1.169
REMARK  Name = 
REMARK  7 active torsions:
REMARK  status: ('A' for Active; 'I' for Inactive)
REMARK    1  A    between atoms: C_1  and  N_2
REMARK    2  A    between atoms: N_2  and  C_3
REMARK    3  A    between atoms: C_3  and  C_4
REMARK    4  A    between atoms: C_7  and  C_8
REMARK    5  A    between atoms: C_8  and  N_9
REMARK    6  A    between atoms: C_12  and  O_13
REMARK    7  A    between atoms: C_18  and  C_20
REMARK                            x       y       z     vdW  Elec       q    Type
REMARK                         _______ _______ _______ _____ _____    ______ ____
ROOT
ATOM      1  C   UNL     1      49.334   8.246  16.069  0.00  0.00    +0.000 C 
ENDROOT
BRANCH   1   2
ATOM      2  C   UNL     1      48.492   7.834  14.890  0.00  0.00    +0.000 A 
ATOM      3  C   UNL     1      48.618   6.551  14.336  0.00  0.00    +0.000 A 
ATOM      4  C   UNL     1      47.881   6.188  13.207  0.00  0.00    +0.000 A 
ATOM      5  C   UNL     1      47.003   7.103  12.613  0.00  0.00    +0.000 A 
ATOM      6  C   UNL     1      46.868   8.378  13.185  0.00  0.00    +0.000 A 
ATOM      7  C   UNL     1      47.602   8.741  14.310  0.00  0.00    +0.000 A 
BRANCH   5   8
ATOM      8  C   UNL     1      46.227   6.746  11.359  0.00  0.00    +0.000 C 
BRANCH   8   9
ATOM      9  N   UNL     1      45.020   5.920  11.534  0.00  0.00    +0.000 NA
ATOM     10  C   UNL     1      44.744   5.592  12.936  0.00  0.00    +0.000 C 
ATOM     11  C   UNL     1      43.436   4.819  13.106  0.00  0.00    +0.000 C 
ATOM     12  C   UNL     1      43.376   3.599  12.194  0.00  0.00    +0.000 C 
ATOM     13  C   UNL     1      43.675   3.992  10.752  0.00  0.00    +0.000 C 
ATOM     14  C   UNL     1      44.989   4.766  10.635  0.00  0.00    +0.000 C 
BRANCH  12  15
ATOM     15  O   UNL     1      44.282   2.589  12.639  0.00  0.00    +0.000 OA
ATOM     16  H   UNL     1      45.190   2.902  12.498  0.00  0.00    +0.000 HD
ENDBRANCH  12  15
ENDBRANCH   8   9
ENDBRANCH   5   8
ENDBRANCH   1   2
BRANCH   1  18
ATOM     17  C   UNL     1      47.727   9.178  17.789  0.00  0.00    +0.000 C 
ATOM     18  N   UNL     1      48.705   8.169  17.394  0.00  0.00    +0.000 N 
ATOM     19  C   UNL     1      48.792   7.035  18.220  0.00  0.00    +0.000 C 
ATOM     20  O   UNL     1      48.081   6.916  19.217  0.00  0.00    +0.000 OA
BRANCH  19  21
ATOM     21  C   UNL     1      49.779   5.994  17.909  0.00  0.00    +0.000 A 
ATOM     22  C   UNL     1      51.136   6.097  18.176  0.00  0.00    +0.000 A 
ATOM     23  S   UNL     1      52.023   4.699  17.764  0.00  0.00    +0.000 S 
ATOM     24  C   UNL     1      50.603   3.855  17.360  0.00  0.00    +0.000 A 
ATOM     25  N   UNL     1      50.645   2.541  17.027  0.00  0.00    +0.000 NA
ATOM     26  C   UNL     1      49.484   2.013  16.814  0.00  0.00    +0.000 A 
ATOM     27  N   UNL     1      48.294   2.692  16.871  0.00  0.00    +0.000 N 
ATOM     28  C   UNL     1      48.215   4.058  17.066  0.00  0.00    +0.000 A 
ATOM     29  O   UNL     1      47.167   4.664  16.861  0.00  0.00    +0.000 OA
ATOM     30  C   UNL     1      49.480   4.660  17.437  0.00  0.00    +0.000 A 
ATOM     31  H   UNL     1      47.429   2.234  16.623  0.00  0.00    +0.000 HD
ENDBRANCH  19  21
ENDBRANCH   1  18
TORSDOF 6
ENDMDL
MODEL 4
REMARK VINA RESULT:    -6.518      2.873      7.915
REMARK INTER + INTRA:          -9.783
REMARK INTER:                  -8.928
REMARK INTRA:                  -0.854
REMARK UNBOUND:                -1.169
REMARK  Name = 
REMARK  7 active torsions:
REMARK  status: ('A' for Active; 'I' for Inactive)
REMARK    1  A    between atoms: C_1  and  N_2
REMARK    2  A    between atoms: N_2  and  C_3
REMARK    3  A    between atoms: C_3  and  C_4
REMARK    4  A    between atoms: C_7  and  C_8
REMARK    5  A    between atoms: C_8  and  N_9
REMARK    6  A    between atoms: C_12  and  O_13
REMARK    7  A    between atoms: C_18  and  C_20
REMARK                            x       y       z     vdW  Elec       q    Type
REMARK                         _______ _______ _______ _____ _____    ______ ____
ROOT
ATOM      1  C   UNL     1      49.625   7.318  15.369  0.00  0.00    +0.000 C 
ENDROOT
BRANCH   1   2
ATOM      2  C   UNL     1      48.533   7.323  14.332  0.00  0.00    +0.000 A 
ATOM      3  C   UNL     1      47.646   8.406  14.232  0.00  0.00    +0.000 A 
ATOM      4  C   UNL     1      46.598   8.384  13.310  0.00  0.00    +0.000 A 
ATOM      5  C   UNL     1      46.418   7.278  12.471  0.00  0.00    +0.000 A 
ATOM      6  C   UNL     1      47.320   6.206  12.563  0.00  0.00    +0.000 A 
ATOM      7  C   UNL     1      48.366   6.226  13.481  0.00  0.00    +0.000 A 
BRANCH   5   8
ATOM      8  C   UNL     1      45.258   7.212  11.495  0.00  0.00    +0.000 C 
BRANCH   8   9
ATOM      9  N   UNL     1      44.385   6.029  11.576  0.00  0.00    +0.000 NA
ATOM     10  C   UNL     1      44.147   5.581  12.952  0.00  0.00    +0.000 C 
ATOM     11  C   UNL     1      43.161   4.415  13.022  0.00  0.00    +0.000 C 
ATOM     12  C   UNL     1      43.565   3.275  12.095  0.00  0.00    +0.000 C 
ATOM     13  C   UNL     1      43.806   3.793  10.681  0.00  0.00    +0.000 C 
ATOM     14  C   UNL     1      44.793   4.960  10.665  0.00  0.00    +0.000 C 
BRANCH  12  15
ATOM     15  O   UNL     1      44.725   2.606  12.589  0.00  0.00    +0.000 OA
ATOM     16  H   UNL     1      44.448   1.945  13.245  0.00  0.00    +0.000 HD
ENDBRANCH  12  15
ENDBRANCH   8   9
ENDBRANCH   5   8
ENDBRANCH   1   2
BRANCH   1  18
ATOM     17  C   UNL     1      49.322   9.203  17.032  0.00  0.00    +0.000 C 
ATOM     18  N   UNL     1      49.263   7.779  16.716  0.00  0.00    +0.000 N 
ATOM     19  C   UNL     1      48.615   6.962  17.659  0.00  0.00    +0.000 C 
ATOM     20  O   UNL     1      48.133   7.434  18.687  0.00  0.00    +0.000 OA
BRANCH  19  21
ATOM     21  C   UNL     1      48.549   5.514  17.429  0.00  0.00    +0.000 A 
ATOM     22  C   UNL     1      47.451   4.856  16.896  0.00  0.00    +0.000 A 
ATOM     23  S   UNL     1      47.695   3.180  16.683  0.00  0.00    +0.000 S 
ATOM     24  C   UNL     1      49.325   3.306  17.151  0.00  0.00    +0.000 A 
ATOM     25  N   UNL     1      50.154   2.235  17.083  0.00  0.00    +0.000 NA
ATOM     26  C   UNL     1      51.380   2.494  17.402  0.00  0.00    +0.000 A 
ATOM     27  N   UNL     1      51.838   3.719  17.813  0.00  0.00    +0.000 N 
ATOM     28  C   UNL     1      51.005   4.800  18.033  0.00  0.00    +0.000 A 
ATOM     29  O   UNL     1      51.404   5.792  18.636  0.00  0.00    +0.000 OA
ATOM     30  C   UNL     1      49.650   4.586  17.564  0.00  0.00    +0.000 A 
ATOM     31  H   UNL     1      52.795   3.835  18.116  0.00  0.00    +0.000 HD
ENDBRANCH  19  21
ENDBRANCH   1  18
TORSDOF 6
ENDMDL
MODEL 5
REMARK VINA RESULT:    -6.369      3.562      9.184
REMARK INTER + INTRA:          -9.587
REMARK INTER:                  -8.668
REMARK INTRA:                  -0.918
REMARK UNBOUND:                -1.169
REMARK  Name = 
REMARK  7 active torsions:
REMARK  status: ('A' for Active; 'I' for Inactive)
REMARK    1  A    between atoms: C_1  and  N_2
REMARK    2  A    between atoms: N_2  and  C_3
REMARK    3  A    between atoms: C_3  and  C_4
REMARK    4  A    between atoms: C_7  and  C_8
REMARK    5  A    between atoms: C_8  and  N_9
REMARK    6  A    between atoms: C_12  and  O_13
REMARK    7  A    between atoms: C_18  and  C_20
REMARK                            x       y       z     vdW  Elec       q    Type
REMARK                         _______ _______ _______ _____ _____    ______ ____
ROOT
ATOM      1  C   UNL     1      49.680   6.267  16.425  0.00  0.00    +0.000 C 
ENDROOT
BRANCH   1   2
ATOM      2  C   UNL     1      48.559   5.940  15.473  0.00  0.00    +0.000 A 
ATOM      3  C   UNL     1      48.252   6.800  14.408  0.00  0.00    +0.000 A 
ATOM      4  C   UNL     1      47.176   6.527  13.561  0.00  0.00    +0.000 A 
ATOM      5  C   UNL     1      46.389   5.387  13.764  0.00  0.00    +0.000 A 
ATOM      6  C   UNL     1      46.714   4.521  14.820  0.00  0.00    +0.000 A 
ATOM      7  C   UNL     1      47.786   4.791  15.665  0.00  0.00    +0.000 A 
BRANCH   5   8
ATOM      8  C   UNL     1      45.187   5.095  12.885  0.00  0.00    +0.000 C 
BRANCH   8   9
ATOM      9  N   UNL     1      45.460   4.590  11.529  0.00  0.00    +0.000 NA
ATOM     10  C   UNL     1      45.461   5.644  10.509  0.00  0.00    +0.000 C 
ATOM     11  C   UNL     1      45.844   5.116   9.127  0.00  0.00    +0.000 C 
ATOM     12  C   UNL     1      44.998   3.913   8.726  0.00  0.00    +0.000 C 
ATOM     13  C   UNL     1      45.025   2.851   9.819  0.00  0.00    +0.000 C 
ATOM     14  C   UNL     1      44.641   3.429  11.182  0.00  0.00    +0.000 C 
BRANCH  12  15
ATOM     15  O   UNL     1      43.656   4.309   8.442  0.00  0.00    +0.000 OA
ATOM     16  H   UNL     1      43.115   4.168   9.236  0.00  0.00    +0.000 HD
ENDBRANCH  12  15
ENDBRANCH   8   9
ENDBRANCH   5   8
ENDBRANCH   1   2
BRANCH   1  18
ATOM     17  C   UNL     1      48.115   6.911  18.308  0.00  0.00    +0.000 C 
ATOM     18  N   UNL     1      49.352   6.281  17.857  0.00  0.00    +0.000 N 
ATOM     19  C   UNL     1      50.030   5.498  18.808  0.00  0.00    +0.000 C 
ATOM     20  O   UNL     1      49.596   5.365  19.951  0.00  0.00    +0.000 OA
BRANCH  19  21
ATOM     21  C   UNL     1      51.301   4.863  18.440  0.00  0.00    +0.000 A 
ATOM     22  C   UNL     1      52.545   5.454  18.594  0.00  0.00    +0.000 A 
ATOM     23  S   UNL     1      53.844   4.444  18.141  0.00  0.00    +0.000 S 
ATOM     24  C   UNL     1      52.796   3.133  17.869  0.00  0.00    +0.000 A 
ATOM     25  N   UNL     1      53.284   1.905  17.560  0.00  0.00    +0.000 NA
ATOM     26  C   UNL     1      52.378   0.990  17.452  0.00  0.00    +0.000 A 
ATOM     27  N   UNL     1      51.030   1.203  17.591  0.00  0.00    +0.000 N 
ATOM     28  C   UNL     1      50.480   2.459  17.765  0.00  0.00    +0.000 A 
ATOM     29  O   UNL     1      49.274   2.643  17.632  0.00  0.00    +0.000 OA
ATOM     30  C   UNL     1      51.468   3.488  18.020  0.00  0.00    +0.000 A 
ATOM     31  H   UNL     1      50.371   0.455  17.423  0.00  0.00    +0.000 HD
ENDBRANCH  19  21
ENDBRANCH   1  18
TORSDOF 6
ENDMDL
MODEL 6
REMARK VINA RESULT:    -6.260      2.989      8.472
REMARK INTER + INTRA:          -9.442
REMARK INTER:                  -8.334
REMARK INTRA:                  -1.108
REMARK UNBOUND:                -1.169
REMARK  Name = 
REMARK  7 active torsions:
REMARK  status: ('A' for Active; 'I' for Inactive)
REMARK    1  A    between atoms: C_1  and  N_2
REMARK    2  A    between atoms: N_2  and  C_3
REMARK    3  A    between atoms: C_3  and  C_4
REMARK    4  A    between atoms: C_7  and  C_8
REMARK    5  A    between atoms: C_8  and  N_9
REMARK    6  A    between atoms: C_12  and  O_13
REMARK    7  A    between atoms: C_18  and  C_20
REMARK                            x       y       z     vdW  Elec       q    Type
REMARK                         _______ _______ _______ _____ _____    ______ ____
ROOT
ATOM      1  C   UNL     1      49.122   8.440  15.224  0.00  0.00    +0.000 C 
ENDROOT
BRANCH   1   2
ATOM      2  C   UNL     1      48.111   8.009  14.195  0.00  0.00    +0.000 A 
ATOM      3  C   UNL     1      48.301   6.831  13.456  0.00  0.00    +0.000 A 
ATOM      4  C   UNL     1      47.394   6.462  12.460  0.00  0.00    +0.000 A 
ATOM      5  C   UNL     1      46.279   7.264  12.187  0.00  0.00    +0.000 A 
ATOM      6  C   UNL     1      46.086   8.431  12.944  0.00  0.00    +0.000 A 
ATOM      7  C   UNL     1      46.988   8.801  13.937  0.00  0.00    +0.000 A 
BRANCH   5   8
ATOM      8  C   UNL     1      45.306   6.908  11.079  0.00  0.00    +0.000 C 
BRANCH   8   9
ATOM      9  N   UNL     1      44.446   5.733  11.300  0.00  0.00    +0.000 NA
ATOM     10  C   UNL     1      44.235   5.431  12.719  0.00  0.00    +0.000 C 
ATOM     11  C   UNL     1      43.261   4.272  12.929  0.00  0.00    +0.000 C 
ATOM     12  C   UNL     1      43.660   3.043  12.121  0.00  0.00    +0.000 C 
ATOM     13  C   UNL     1      43.872   3.410  10.657  0.00  0.00    +0.000 C 
ATOM     14  C   UNL     1      44.849   4.577  10.500  0.00  0.00    +0.000 C 
BRANCH  12  15
ATOM     15  O   UNL     1      44.835   2.438  12.663  0.00  0.00    +0.000 OA
ATOM     16  H   UNL     1      44.576   1.866  13.404  0.00  0.00    +0.000 HD
ENDBRANCH  12  15
ENDBRANCH   8   9
ENDBRANCH   5   8
ENDBRANCH   1   2
BRANCH   1  18
ATOM     17  C   UNL     1      51.544   8.044  14.601  0.00  0.00    +0.000 C 
ATOM     18  N   UNL     1      50.346   7.636  15.330  0.00  0.00    +0.000 N 
ATOM     19  C   UNL     1      50.523   6.628  16.294  0.00  0.00    +0.000 C 
ATOM     20  O   UNL     1      51.627   6.126  16.497  0.00  0.00    +0.000 OA
BRANCH  19  21
ATOM     21  C   UNL     1      49.359   6.138  17.041  0.00  0.00    +0.000 A 
ATOM     22  C   UNL     1      48.628   5.009  16.700  0.00  0.00    +0.000 A 
ATOM     23  S   UNL     1      47.371   4.651  17.797  0.00  0.00    +0.000 S 
ATOM     24  C   UNL     1      47.859   5.899  18.843  0.00  0.00    +0.000 A 
ATOM     25  N   UNL     1      47.260   6.071  20.048  0.00  0.00    +0.000 NA
ATOM     26  C   UNL     1      47.780   7.012  20.766  0.00  0.00    +0.000 A 
ATOM     27  N   UNL     1      48.818   7.814  20.370  0.00  0.00    +0.000 N 
ATOM     28  C   UNL     1      49.363   7.770  19.100  0.00  0.00    +0.000 A 
ATOM     29  O   UNL     1      50.108   8.661  18.702  0.00  0.00    +0.000 OA
ATOM     30  C   UNL     1      48.897   6.645  18.315  0.00  0.00    +0.000 A 
ATOM     31  H   UNL     1      49.129   8.578  20.954  0.00  0.00    +0.000 HD
ENDBRANCH  19  21
ENDBRANCH   1  18
TORSDOF 6
ENDMDL
MODEL 7
REMARK VINA RESULT:    -6.150      3.445      8.786
REMARK INTER + INTRA:          -9.297
REMARK INTER:                  -8.094
REMARK INTRA:                  -1.202
REMARK UNBOUND:                -1.169
REMARK  Name = 
REMARK  7 active torsions:
REMARK  status: ('A' for Active; 'I' for Inactive)
REMARK    1  A    between atoms: C_1  and  N_2
REMARK    2  A    between atoms: N_2  and  C_3
REMARK    3  A    between atoms: C_3  and  C_4
REMARK    4  A    between atoms: C_7  and  C_8
REMARK    5  A    between atoms: C_8  and  N_9
REMARK    6  A    between atoms: C_12  and  O_13
REMARK    7  A    between atoms: C_18  and  C_20
REMARK                            x       y       z     vdW  Elec       q    Type
REMARK                         _______ _______ _______ _____ _____    ______ ____
ROOT
ATOM      1  C   UNL     1      48.528   8.982  14.267  0.00  0.00    +0.000 C 
ENDROOT
BRANCH   1   2
ATOM      2  C   UNL     1      47.525   8.004  13.712  0.00  0.00    +0.000 A 
ATOM      3  C   UNL     1      47.771   6.624  13.760  0.00  0.00    +0.000 A 
ATOM      4  C   UNL     1      46.870   5.720  13.194  0.00  0.00    +0.000 A 
ATOM      5  C   UNL     1      45.705   6.182  12.569  0.00  0.00    +0.000 A 
ATOM      6  C   UNL     1      45.456   7.564  12.542  0.00  0.00    +0.000 A 
ATOM      7  C   UNL     1      46.353   8.466  13.106  0.00  0.00    +0.000 A 
BRANCH   5   8
ATOM      8  C   UNL     1      44.735   5.223  11.906  0.00  0.00    +0.000 C 
BRANCH   8   9
ATOM      9  N   UNL     1      45.246   4.439  10.769  0.00  0.00    +0.000 NA
ATOM     10  C   UNL     1      45.484   5.248   9.570  0.00  0.00    +0.000 C 
ATOM     11  C   UNL     1      46.107   4.438   8.434  0.00  0.00    +0.000 C 
ATOM     12  C   UNL     1      45.312   3.172   8.138  0.00  0.00    +0.000 C 
ATOM     13  C   UNL     1      45.087   2.370   9.415  0.00  0.00    +0.000 C 
ATOM     14  C   UNL     1      44.468   3.225  10.522  0.00  0.00    +0.000 C 
BRANCH  12  15
ATOM     15  O   UNL     1      44.065   3.489   7.518  0.00  0.00    +0.000 OA
ATOM     16  H   UNL     1      43.957   4.454   7.513  0.00  0.00    +0.000 HD
ENDBRANCH  12  15
ENDBRANCH   8   9
ENDBRANCH   5   8
ENDBRANCH   1   2
BRANCH   1  18
ATOM     17  C   UNL     1      50.788   8.419  13.275  0.00  0.00    +0.000 C 
ATOM     18  N   UNL     1      49.904   8.498  14.434  0.00  0.00    +0.000 N 
ATOM     19  C   UNL     1      50.516   8.342  15.690  0.00  0.00    +0.000 C 
ATOM     20  O   UNL     1      51.726   8.147  15.790  0.00  0.00    +0.000 OA
BRANCH  19  21
ATOM     21  C   UNL     1      49.687   8.372  16.901  0.00  0.00    +0.000 A 
ATOM     22  C   UNL     1      49.349   9.526  17.590  0.00  0.00    +0.000 A 
ATOM     23  S   UNL     1      48.317   9.251  18.921  0.00  0.00    +0.000 S 
ATOM     24  C   UNL     1      48.163   7.604  18.527  0.00  0.00    +0.000 A 
ATOM     25  N   UNL     1      47.315   6.800  19.215  0.00  0.00    +0.000 NA
ATOM     26  C   UNL     1      47.248   5.592  18.761  0.00  0.00    +0.000 A 
ATOM     27  N   UNL     1      47.980   5.112  17.706  0.00  0.00    +0.000 N 
ATOM     28  C   UNL     1      48.958   5.853  17.068  0.00  0.00    +0.000 A 
ATOM     29  O   UNL     1      49.758   5.317  16.307  0.00  0.00    +0.000 OA
ATOM     30  C   UNL     1      48.970   7.247  17.461  0.00  0.00    +0.000 A 
ATOM     31  H   UNL     1      47.932   4.136  17.448  0.00  0.00    +0.000 HD
ENDBRANCH  19  21
ENDBRANCH   1  18
TORSDOF 6
ENDMDL
MODEL 8
REMARK VINA RESULT:    -5.918      3.525      8.100
REMARK INTER + INTRA:          -8.990
REMARK INTER:                  -7.814
REMARK INTRA:                  -1.176
REMARK UNBOUND:                -1.169
REMARK  Name = 
REMARK  7 active torsions:
REMARK  status: ('A' for Active; 'I' for Inactive)
REMARK    1  A    between atoms: C_1  and  N_2
REMARK    2  A    between atoms: N_2  and  C_3
REMARK    3  A    between atoms: C_3  and  C_4
REMARK    4  A    between atoms: C_7  and  C_8
REMARK    5  A    between atoms: C_8  and  N_9
REMARK    6  A    between atoms: C_12  and  O_13
REMARK    7  A    between atoms: C_18  and  C_20
REMARK                            x       y       z     vdW  Elec       q    Type
REMARK                         _______ _______ _______ _____ _____    ______ ____
ROOT
ATOM      1  C   UNL     1      49.023   9.474  15.216  0.00  0.00    +0.000 C 
ENDROOT
BRANCH   1   2
ATOM      2  C   UNL     1      48.421   8.647  14.110  0.00  0.00    +0.000 A 
ATOM      3  C   UNL     1      47.395   9.166  13.306  0.00  0.00    +0.000 A 
ATOM      4  C   UNL     1      46.797   8.380  12.320  0.00  0.00    +0.000 A 
ATOM      5  C   UNL     1      47.216   7.059  12.118  0.00  0.00    +0.000 A 
ATOM      6  C   UNL     1      48.257   6.553  12.913  0.00  0.00    +0.000 A 
ATOM      7  C   UNL     1      48.854   7.335  13.897  0.00  0.00    +0.000 A 
BRANCH   5   8
ATOM      8  C   UNL     1      46.549   6.172  11.084  0.00  0.00    +0.000 C 
BRANCH   8   9
ATOM      9  N   UNL     1      45.254   5.576  11.454  0.00  0.00    +0.000 NA
ATOM     10  C   UNL     1      45.188   5.165  12.860  0.00  0.00    +0.000 C 
ATOM     11  C   UNL     1      43.806   4.641  13.249  0.00  0.00    +0.000 C 
ATOM     12  C   UNL     1      43.323   3.554  12.297  0.00  0.00    +0.000 C 
ATOM     13  C   UNL     1      43.416   4.028  10.851  0.00  0.00    +0.000 C 
ATOM     14  C   UNL     1      44.814   4.547  10.513  0.00  0.00    +0.000 C 
BRANCH  12  15
ATOM     15  O   UNL     1      44.068   2.350  12.481  0.00  0.00    +0.000 OA
ATOM     16  H   UNL     1      44.523   2.136  11.650  0.00  0.00    +0.000 HD
ENDBRANCH  12  15
ENDBRANCH   8   9
ENDBRANCH   5   8
ENDBRANCH   1   2
BRANCH   1  18
ATOM     17  C   UNL     1      51.525   9.502  14.834  0.00  0.00    +0.000 C 
ATOM     18  N   UNL     1      50.379   9.114  15.651  0.00  0.00    +0.000 N 
ATOM     19  C   UNL     1      50.671   8.637  16.940  0.00  0.00    +0.000 C 
ATOM     20  O   UNL     1      51.831   8.553  17.342  0.00  0.00    +0.000 OA
BRANCH  19  21
ATOM     21  C   UNL     1      49.573   8.192  17.806  0.00  0.00    +0.000 A 
ATOM     22  C   UNL     1      48.843   9.028  18.637  0.00  0.00    +0.000 A 
ATOM     23  S   UNL     1      47.584   8.234  19.472  0.00  0.00    +0.000 S 
ATOM     24  C   UNL     1      47.875   6.783  18.635  0.00  0.00    +0.000 A 
ATOM     25  N   UNL     1      47.062   5.710  18.799  0.00  0.00    +0.000 NA
ATOM     26  C   UNL     1      47.360   4.701  18.048  0.00  0.00    +0.000 A 
ATOM     27  N   UNL     1      48.419   4.662  17.177  0.00  0.00    +0.000 N 
ATOM     28  C   UNL     1      49.354   5.675  17.082  0.00  0.00    +0.000 A 
ATOM     29  O   UNL     1      50.414   5.501  16.487  0.00  0.00    +0.000 OA
ATOM     30  C   UNL     1      48.981   6.871  17.810  0.00  0.00    +0.000 A 
ATOM     31  H   UNL     1      48.637   3.814  16.672  0.00  0.00    +0.000 HD
ENDBRANCH  19  21
ENDBRANCH   1  18
TORSDOF 6
ENDMDL
MODEL 9
REMARK VINA RESULT:    -5.890      4.435      8.511
REMARK INTER + INTRA:          -8.953
REMARK INTER:                  -7.407
REMARK INTRA:                  -1.546
REMARK UNBOUND:                -1.169
REMARK  Name = 
REMARK  7 active torsions:
REMARK  status: ('A' for Active; 'I' for Inactive)
REMARK    1  A    between atoms: C_1  and  N_2
REMARK    2  A    between atoms: N_2  and  C_3
REMARK    3  A    between atoms: C_3  and  C_4
REMARK    4  A    between atoms: C_7  and  C_8
REMARK    5  A    between atoms: C_8  and  N_9
REMARK    6  A    between atoms: C_12  and  O_13
REMARK    7  A    between atoms: C_18  and  C_20
REMARK                            x       y       z     vdW  Elec       q    Type
REMARK                         _______ _______ _______ _____ _____    ______ ____
ROOT
ATOM      1  C   UNL     1      50.248   9.779  11.872  0.00  0.00    +0.000 C 
ENDROOT
BRANCH   1   2
ATOM      2  C   UNL     1      48.932   9.056  11.983  0.00  0.00    +0.000 A 
ATOM      3  C   UNL     1      47.807   9.697  12.524  0.00  0.00    +0.000 A 
ATOM      4  C   UNL     1      46.602   9.009  12.681  0.00  0.00    +0.000 A 
ATOM      5  C   UNL     1      46.501   7.665  12.299  0.00  0.00    +0.000 A 
ATOM      6  C   UNL     1      47.625   7.036  11.741  0.00  0.00    +0.000 A 
ATOM      7  C   UNL     1      48.826   7.720  11.583  0.00  0.00    +0.000 A 
BRANCH   5   8
ATOM      8  C   UNL     1      45.217   6.884  12.505  0.00  0.00    +0.000 C 
BRANCH   8   9
ATOM      9  N   UNL     1      45.117   5.577  11.833  0.00  0.00    +0.000 NA
ATOM     10  C   UNL     1      44.053   5.526  10.826  0.00  0.00    +0.000 C 
ATOM     11  C   UNL     1      44.029   4.197  10.071  0.00  0.00    +0.000 C 
ATOM     12  C   UNL     1      43.995   3.006  11.022  0.00  0.00    +0.000 C 
ATOM     13  C   UNL     1      45.115   3.109  12.051  0.00  0.00    +0.000 C 
ATOM     14  C   UNL     1      45.100   4.457  12.773  0.00  0.00    +0.000 C 
BRANCH  12  15
ATOM     15  O   UNL     1      42.725   2.910  11.668  0.00  0.00    +0.000 OA
ATOM     16  H   UNL     1      42.619   3.671  12.262  0.00  0.00    +0.000 HD
ENDBRANCH  12  15
ENDBRANCH   8   9
ENDBRANCH   5   8
ENDBRANCH   1   2
BRANCH   1  18
ATOM     17  C   UNL     1      52.229   8.325  11.263  0.00  0.00    +0.000 C 
ATOM     18  N   UNL     1      51.450   9.036  12.272  0.00  0.00    +0.000 N 
ATOM     19  C   UNL     1      52.050   9.170  13.536  0.00  0.00    +0.000 C 
ATOM     20  O   UNL     1      53.167   8.707  13.764  0.00  0.00    +0.000 OA
BRANCH  19  21
ATOM     21  C   UNL     1      51.313   9.839  14.614  0.00  0.00    +0.000 A 
ATOM     22  C   UNL     1      51.472  11.172  14.961  0.00  0.00    +0.000 A 
ATOM     23  S   UNL     1      50.427  11.684  16.209  0.00  0.00    +0.000 S 
ATOM     24  C   UNL     1      49.622  10.186  16.220  0.00  0.00    +0.000 A 
ATOM     25  N   UNL     1      48.528   9.989  16.997  0.00  0.00    +0.000 NA
ATOM     26  C   UNL     1      47.979   8.828  16.850  0.00  0.00    +0.000 A 
ATOM     27  N   UNL     1      48.448   7.840  16.023  0.00  0.00    +0.000 N 
ATOM     28  C   UNL     1      49.635   7.945  15.323  0.00  0.00    +0.000 A 
ATOM     29  O   UNL     1      50.148   6.959  14.800  0.00  0.00    +0.000 OA
ATOM     30  C   UNL     1      50.209   9.275  15.360  0.00  0.00    +0.000 A 
ATOM     31  H   UNL     1      48.010   6.930  16.010  0.00  0.00    +0.000 HD
ENDBRANCH  19  21
ENDBRANCH   1  18
TORSDOF 6
ENDMDL
