MODEL 1
REMARK VINA RESULT:    -8.134      0.000      0.000
REMARK INTER + INTRA:         -11.459
REMARK INTER:                 -10.512
REMARK INTRA:                  -0.948
REMARK UNBOUND:                -0.948
REMARK  Name = 
REMARK  5 active torsions:
REMARK  status: ('A' for Active; 'I' for Inactive)
REMARK    1  A    between atoms: C_2  and  C_3
REMARK    2  A    between atoms: C_7  and  N_8
REMARK    3  A    between atoms: N_8  and  C_9
REMARK    4  A    between atoms: C_9  and  C_10
REMARK    5  A    between atoms: C_14  and  C_15
REMARK                            x       y       z     vdW  Elec       q    Type
REMARK                         _______ _______ _______ _____ _____    ______ ____
ROOT
ATOM      1  C   UNL     1      43.787   4.978  11.512  0.00  0.00    +0.000 C 
ATOM      2  C   UNL     1      42.484   5.349  12.226  0.00  0.00    +0.000 C 
ATOM      3  C   UNL     1      42.973   6.191  11.101  0.00  0.00    +0.000 C 
ENDROOT
BRANCH   1   4
ATOM      4  C   UNL     1      45.071   5.223  12.305  0.00  0.00    +0.000 A 
ATOM      5  C   UNL     1      45.638   4.241  13.125  0.00  0.00    +0.000 A 
ATOM      6  C   UNL     1      46.908   4.417  13.675  0.00  0.00    +0.000 A 
ATOM      7  C   UNL     1      47.643   5.571  13.390  0.00  0.00    +0.000 A 
ATOM      8  C   UNL     1      47.107   6.593  12.592  0.00  0.00    +0.000 A 
ATOM      9  C   UNL     1      45.792   6.421  12.133  0.00  0.00    +0.000 A 
BRANCH   8  10
ATOM     10  C   UNL     1      47.920   7.726  12.095  0.00  0.00    +0.000 A 
ATOM     11  C   UNL     1      47.394   9.031  12.096  0.00  0.00    +0.000 A 
ATOM     12  C   UNL     1      48.184  10.138  11.773  0.00  0.00    +0.000 A 
ATOM     13  C   UNL     1      49.525   9.964  11.448  0.00  0.00    +0.000 A 
ATOM     14  C   UNL     1      50.069   8.683  11.424  0.00  0.00    +0.000 A 
ATOM     15  C   UNL     1      49.272   7.576  11.736  0.00  0.00    +0.000 A 
ENDBRANCH   8  10
ENDBRANCH   1   4
BRANCH   1  16
ATOM     16  N   UNL     1      43.778   3.703  10.759  0.00  0.00    +0.000 N 
ATOM     17  H   UNL     1      43.760   2.895  11.382  0.00  0.00    +0.000 HD
BRANCH  16  22
ATOM     18  C   UNL     1      45.988   2.051   8.231  0.00  0.00    +0.000 A 
ATOM     19  C   UNL     1      46.388   3.184   7.540  0.00  0.00    +0.000 A 
ATOM     20  N   UNL     1      45.952   4.426   7.837  0.00  0.00    +0.000 NA
ATOM     21  C   UNL     1      45.088   4.530   8.878  0.00  0.00    +0.000 A 
ATOM     22  C   UNL     1      44.600   3.459   9.636  0.00  0.00    +0.000 A 
ATOM     23  C   UNL     1      45.082   2.198   9.284  0.00  0.00    +0.000 A 
BRANCH  18  25
ATOM     24  N   UNL     1      46.944  -0.274   7.599  0.00  0.00    +0.000 NA
ATOM     25  C   UNL     1      46.520   0.771   7.884  0.00  0.00    +0.000 C 
ENDBRANCH  18  25
ENDBRANCH  16  22
ENDBRANCH   1  16
TORSDOF 5
ENDMDL
MODEL 2
REMARK VINA RESULT:    -7.782      2.881      6.697
REMARK INTER + INTRA:         -11.005
REMARK INTER:                  -9.970
REMARK INTRA:                  -1.035
REMARK UNBOUND:                -0.948
REMARK  Name = 
REMARK  5 active torsions:
REMARK  status: ('A' for Active; 'I' for Inactive)
REMARK    1  A    between atoms: C_2  and  C_3
REMARK    2  A    between atoms: C_7  and  N_8
REMARK    3  A    between atoms: N_8  and  C_9
REMARK    4  A    between atoms: C_9  and  C_10
REMARK    5  A    between atoms: C_14  and  C_15
REMARK                            x       y       z     vdW  Elec       q    Type
REMARK                         _______ _______ _______ _____ _____    ______ ____
ROOT
ATOM      1  C   UNL     1      45.430   6.034  12.073  0.00  0.00    +0.000 C 
ATOM      2  C   UNL     1      44.766   7.247  11.414  0.00  0.00    +0.000 C 
ATOM      3  C   UNL     1      44.391   6.866  12.803  0.00  0.00    +0.000 C 
ENDROOT
BRANCH   1   4
ATOM      4  C   UNL     1      44.994   4.669  11.540  0.00  0.00    +0.000 A 
ATOM      5  C   UNL     1      43.845   4.021  12.006  0.00  0.00    +0.000 A 
ATOM      6  C   UNL     1      43.360   2.880  11.366  0.00  0.00    +0.000 A 
ATOM      7  C   UNL     1      44.004   2.385  10.229  0.00  0.00    +0.000 A 
ATOM      8  C   UNL     1      45.172   2.988   9.738  0.00  0.00    +0.000 A 
ATOM      9  C   UNL     1      45.682   4.077  10.462  0.00  0.00    +0.000 A 
BRANCH   8  10
ATOM     10  C   UNL     1      45.764   2.631   8.429  0.00  0.00    +0.000 A 
ATOM     11  C   UNL     1      45.938   3.613   7.437  0.00  0.00    +0.000 A 
ATOM     12  C   UNL     1      46.626   3.342   6.251  0.00  0.00    +0.000 A 
ATOM     13  C   UNL     1      47.163   2.078   6.032  0.00  0.00    +0.000 A 
ATOM     14  C   UNL     1      46.994   1.081   6.989  0.00  0.00    +0.000 A 
ATOM     15  C   UNL     1      46.294   1.353   8.170  0.00  0.00    +0.000 A 
ENDBRANCH   8  10
ENDBRANCH   1   4
BRANCH   1  16
ATOM     16  N   UNL     1      46.884   6.145  12.329  0.00  0.00    +0.000 N 
ATOM     17  H   UNL     1      47.434   5.738  11.573  0.00  0.00    +0.000 HD
BRANCH  16  22
ATOM     18  C   UNL     1      47.570   4.780  15.745  0.00  0.00    +0.000 A 
ATOM     19  C   UNL     1      48.593   5.643  16.107  0.00  0.00    +0.000 A 
ATOM     20  N   UNL     1      49.077   6.602  15.291  0.00  0.00    +0.000 NA
ATOM     21  C   UNL     1      48.498   6.704  14.067  0.00  0.00    +0.000 A 
ATOM     22  C   UNL     1      47.474   5.880  13.586  0.00  0.00    +0.000 A 
ATOM     23  C   UNL     1      47.014   4.904  14.470  0.00  0.00    +0.000 A 
BRANCH  18  25
ATOM     24  N   UNL     1      46.680   3.027  17.434  0.00  0.00    +0.000 NA
ATOM     25  C   UNL     1      47.084   3.811  16.675  0.00  0.00    +0.000 C 
ENDBRANCH  18  25
ENDBRANCH  16  22
ENDBRANCH   1  16
TORSDOF 5
ENDMDL
MODEL 3
REMARK VINA RESULT:    -7.716      1.747      3.546
REMARK INTER + INTRA:         -10.920
REMARK INTER:                 -10.197
REMARK INTRA:                  -0.722
REMARK UNBOUND:                -0.948
REMARK  Name = 
REMARK  5 active torsions:
REMARK  status: ('A' for Active; 'I' for Inactive)
REMARK    1  A    between atoms: C_2  and  C_3
REMARK    2  A    between atoms: C_7  and  N_8
REMARK    3  A    between atoms: N_8  and  C_9
REMARK    4  A    between atoms: C_9  and  C_10
REMARK    5  A    between atoms: C_14  and  C_15
REMARK                            x       y       z     vdW  Elec       q    Type
REMARK                         _______ _______ _______ _____ _____    ______ ____
ROOT
ATOM      1  C   UNL     1      44.158   4.996  11.752  0.00  0.00    +0.000 C 
ATOM      2  C   UNL     1      43.059   5.308  12.772  0.00  0.00    +0.000 C 
ATOM      3  C   UNL     1      43.141   6.097  11.514  0.00  0.00    +0.000 C 
ENDROOT
BRANCH   1   4
ATOM      4  C   UNL     1      45.573   5.416  12.153  0.00  0.00    +0.000 A 
ATOM      5  C   UNL     1      46.263   6.434  11.485  0.00  0.00    +0.000 A 
ATOM      6  C   UNL     1      47.464   6.934  11.992  0.00  0.00    +0.000 A 
ATOM      7  C   UNL     1      47.977   6.440  13.195  0.00  0.00    +0.000 A 
ATOM      8  C   UNL     1      47.331   5.405  13.888  0.00  0.00    +0.000 A 
ATOM      9  C   UNL     1      46.178   4.865  13.299  0.00  0.00    +0.000 A 
BRANCH   8  10
ATOM     10  C   UNL     1      47.720   4.999  15.257  0.00  0.00    +0.000 A 
ATOM     11  C   UNL     1      48.472   5.867  16.069  0.00  0.00    +0.000 A 
ATOM     12  C   UNL     1      48.728   5.576  17.412  0.00  0.00    +0.000 A 
ATOM     13  C   UNL     1      48.229   4.409  17.977  0.00  0.00    +0.000 A 
ATOM     14  C   UNL     1      47.493   3.523  17.195  0.00  0.00    +0.000 A 
ATOM     15  C   UNL     1      47.249   3.811  15.848  0.00  0.00    +0.000 A 
ENDBRANCH   8  10
ENDBRANCH   1   4
BRANCH   1  16
ATOM     16  N   UNL     1      44.085   3.669  11.100  0.00  0.00    +0.000 N 
ATOM     17  H   UNL     1      44.250   2.912  11.762  0.00  0.00    +0.000 HD
BRANCH  16  22
ATOM     18  C   UNL     1      45.895   1.977   8.296  0.00  0.00    +0.000 A 
ATOM     19  C   UNL     1      46.002   3.062   7.439  0.00  0.00    +0.000 A 
ATOM     20  N   UNL     1      45.491   4.279   7.718  0.00  0.00    +0.000 NA
ATOM     21  C   UNL     1      44.860   4.411   8.912  0.00  0.00    +0.000 A 
ATOM     22  C   UNL     1      44.675   3.386   9.847  0.00  0.00    +0.000 A 
ATOM     23  C   UNL     1      45.220   2.148   9.507  0.00  0.00    +0.000 A 
BRANCH  18  25
ATOM     24  N   UNL     1      46.973  -0.293   7.660  0.00  0.00    +0.000 NA
ATOM     25  C   UNL     1      46.492   0.725   7.950  0.00  0.00    +0.000 C 
ENDBRANCH  18  25
ENDBRANCH  16  22
ENDBRANCH   1  16
TORSDOF 5
ENDMDL
MODEL 4
REMARK VINA RESULT:    -7.093      1.418      2.168
REMARK INTER + INTRA:         -10.114
REMARK INTER:                  -9.414
REMARK INTRA:                  -0.700
REMARK UNBOUND:                -0.948
REMARK  Name = 
REMARK  5 active torsions:
REMARK  status: ('A' for Active; 'I' for Inactive)
REMARK    1  A    between atoms: C_2  and  C_3
REMARK    2  A    between atoms: C_7  and  N_8
REMARK    3  A    between atoms: N_8  and  C_9
REMARK    4  A    between atoms: C_9  and  C_10
REMARK    5  A    between atoms: C_14  and  C_15
REMARK                            x       y       z     vdW  Elec       q    Type
REMARK                         _______ _______ _______ _____ _____    ______ ____
ROOT
ATOM      1  C   UNL     1      44.047   5.144  11.873  0.00  0.00    +0.000 C 
ATOM      2  C   UNL     1      42.795   5.194  12.753  0.00  0.00    +0.000 C 
ATOM      3  C   UNL     1      42.781   5.845  11.415  0.00  0.00    +0.000 C 
ENDROOT
BRANCH   1   4
ATOM      4  C   UNL     1      45.214   6.018  12.329  0.00  0.00    +0.000 A 
ATOM      5  C   UNL     1      46.452   5.476  12.693  0.00  0.00    +0.000 A 
ATOM      6  C   UNL     1      47.557   6.301  12.910  0.00  0.00    +0.000 A 
ATOM      7  C   UNL     1      47.445   7.683  12.738  0.00  0.00    +0.000 A 
ATOM      8  C   UNL     1      46.219   8.274  12.396  0.00  0.00    +0.000 A 
ATOM      9  C   UNL     1      45.111   7.423  12.277  0.00  0.00    +0.000 A 
BRANCH   8  10
ATOM     10  C   UNL     1      46.102   9.696  12.001  0.00  0.00    +0.000 A 
ATOM     11  C   UNL     1      47.213  10.554  12.098  0.00  0.00    +0.000 A 
ATOM     12  C   UNL     1      47.176  11.858  11.597  0.00  0.00    +0.000 A 
ATOM     13  C   UNL     1      46.025  12.334  10.979  0.00  0.00    +0.000 A 
ATOM     14  C   UNL     1      44.905  11.513  10.881  0.00  0.00    +0.000 A 
ATOM     15  C   UNL     1      44.941  10.212  11.394  0.00  0.00    +0.000 A 
ENDBRANCH   8  10
ENDBRANCH   1   4
BRANCH   1  16
ATOM     16  N   UNL     1      44.451   3.803  11.390  0.00  0.00    +0.000 N 
ATOM     17  H   UNL     1      44.997   3.298  12.087  0.00  0.00    +0.000 HD
BRANCH  16  22
ATOM     18  C   UNL     1      45.957   2.176   8.375  0.00  0.00    +0.000 A 
ATOM     19  C   UNL     1      46.098   3.306   7.584  0.00  0.00    +0.000 A 
ATOM     20  N   UNL     1      45.701   4.536   7.971  0.00  0.00    +0.000 NA
ATOM     21  C   UNL     1      45.152   4.633   9.208  0.00  0.00    +0.000 A 
ATOM     22  C   UNL     1      44.943   3.563  10.087  0.00  0.00    +0.000 A 
ATOM     23  C   UNL     1      45.369   2.314   9.635  0.00  0.00    +0.000 A 
BRANCH  18  25
ATOM     24  N   UNL     1      46.814  -0.124   7.544  0.00  0.00    +0.000 NA
ATOM     25  C   UNL     1      46.433   0.910   7.914  0.00  0.00    +0.000 C 
ENDBRANCH  18  25
ENDBRANCH  16  22
ENDBRANCH   1  16
TORSDOF 5
ENDMDL
MODEL 5
REMARK VINA RESULT:    -7.091      3.183      6.983
REMARK INTER + INTRA:         -10.111
REMARK INTER:                  -9.129
REMARK INTRA:                  -0.983
REMARK UNBOUND:                -0.948
REMARK  Name = 
REMARK  5 active torsions:
REMARK  status: ('A' for Active; 'I' for Inactive)
REMARK    1  A    between atoms: C_2  and  C_3
REMARK    2  A    between atoms: C_7  and  N_8
REMARK    3  A    between atoms: N_8  and  C_9
REMARK    4  A    between atoms: C_9  and  C_10
REMARK    5  A    between atoms: C_14  and  C_15
REMARK                            x       y       z     vdW  Elec       q    Type
REMARK                         _______ _______ _______ _____ _____    ______ ____
ROOT
ATOM      1  C   UNL     1      45.887   7.152  12.391  0.00  0.00    +0.000 C 
ATOM      2  C   UNL     1      47.045   6.813  13.334  0.00  0.00    +0.000 C 
ATOM      3  C   UNL     1      47.332   7.223  11.933  0.00  0.00    +0.000 C 
ENDROOT
BRANCH   1   4
ATOM      4  C   UNL     1      45.052   5.965  11.912  0.00  0.00    +0.000 A 
ATOM      5  C   UNL     1      43.709   5.806  12.273  0.00  0.00    +0.000 A 
ATOM      6  C   UNL     1      42.917   4.831  11.665  0.00  0.00    +0.000 A 
ATOM      7  C   UNL     1      43.452   4.017  10.663  0.00  0.00    +0.000 A 
ATOM      8  C   UNL     1      44.798   4.125  10.283  0.00  0.00    +0.000 A 
ATOM      9  C   UNL     1      45.587   5.052  10.981  0.00  0.00    +0.000 A 
BRANCH   8  10
ATOM     10  C   UNL     1      45.348   3.437   9.093  0.00  0.00    +0.000 A 
ATOM     11  C   UNL     1      45.862   4.182   8.017  0.00  0.00    +0.000 A 
ATOM     12  C   UNL     1      46.520   3.566   6.948  0.00  0.00    +0.000 A 
ATOM     13  C   UNL     1      46.685   2.186   6.936  0.00  0.00    +0.000 A 
ATOM     14  C   UNL     1      46.174   1.421   7.980  0.00  0.00    +0.000 A 
ATOM     15  C   UNL     1      45.505   2.039   9.042  0.00  0.00    +0.000 A 
ENDBRANCH   8  10
ENDBRANCH   1   4
BRANCH   1  16
ATOM     16  N   UNL     1      45.088   8.348  12.743  0.00  0.00    +0.000 N 
ATOM     17  H   UNL     1      44.155   8.098  13.068  0.00  0.00    +0.000 HD
BRANCH  16  22
ATOM     18  C   UNL     1      44.277  10.846  10.077  0.00  0.00    +0.000 A 
ATOM     19  C   UNL     1      45.272  11.771  10.357  0.00  0.00    +0.000 A 
ATOM     20  N   UNL     1      46.149  11.632  11.372  0.00  0.00    +0.000 NA
ATOM     21  C   UNL     1      46.027  10.512  12.128  0.00  0.00    +0.000 A 
ATOM     22  C   UNL     1      45.054   9.520  11.953  0.00  0.00    +0.000 A 
ATOM     23  C   UNL     1      44.172   9.715  10.890  0.00  0.00    +0.000 A 
BRANCH  18  25
ATOM     24  N   UNL     1      42.693  11.191   8.055  0.00  0.00    +0.000 NA
ATOM     25  C   UNL     1      43.406  11.041   8.962  0.00  0.00    +0.000 C 
ENDBRANCH  18  25
ENDBRANCH  16  22
ENDBRANCH   1  16
TORSDOF 5
ENDMDL
MODEL 6
REMARK VINA RESULT:    -6.881      2.894      6.972
REMARK INTER + INTRA:          -9.840
REMARK INTER:                  -8.897
REMARK INTRA:                  -0.943
REMARK UNBOUND:                -0.948
REMARK  Name = 
REMARK  5 active torsions:
REMARK  status: ('A' for Active; 'I' for Inactive)
REMARK    1  A    between atoms: C_2  and  C_3
REMARK    2  A    between atoms: C_7  and  N_8
REMARK    3  A    between atoms: N_8  and  C_9
REMARK    4  A    between atoms: C_9  and  C_10
REMARK    5  A    between atoms: C_14  and  C_15
REMARK                            x       y       z     vdW  Elec       q    Type
REMARK                         _______ _______ _______ _____ _____    ______ ____
ROOT
ATOM      1  C   UNL     1      46.338   6.303  13.087  0.00  0.00    +0.000 C 
ATOM      2  C   UNL     1      47.016   5.451  14.164  0.00  0.00    +0.000 C 
ATOM      3  C   UNL     1      47.782   5.854  12.954  0.00  0.00    +0.000 C 
ENDROOT
BRANCH   1   4
ATOM      4  C   UNL     1      45.293   5.585  12.234  0.00  0.00    +0.000 A 
ATOM      5  C   UNL     1      43.933   5.907  12.297  0.00  0.00    +0.000 A 
ATOM      6  C   UNL     1      43.032   5.383  11.369  0.00  0.00    +0.000 A 
ATOM      7  C   UNL     1      43.485   4.549  10.344  0.00  0.00    +0.000 A 
ATOM      8  C   UNL     1      44.836   4.180  10.254  0.00  0.00    +0.000 A 
ATOM      9  C   UNL     1      45.695   4.652  11.258  0.00  0.00    +0.000 A 
BRANCH   8  10
ATOM     10  C   UNL     1      45.394   3.477   9.076  0.00  0.00    +0.000 A 
ATOM     11  C   UNL     1      45.934   4.207   8.003  0.00  0.00    +0.000 A 
ATOM     12  C   UNL     1      46.599   3.575   6.948  0.00  0.00    +0.000 A 
ATOM     13  C   UNL     1      46.744   2.193   6.947  0.00  0.00    +0.000 A 
ATOM     14  C   UNL     1      46.206   1.442   7.988  0.00  0.00    +0.000 A 
ATOM     15  C   UNL     1      45.531   2.076   9.036  0.00  0.00    +0.000 A 
ENDBRANCH   8  10
ENDBRANCH   1   4
BRANCH   1  16
ATOM     16  N   UNL     1      45.950   7.674  13.490  0.00  0.00    +0.000 N 
ATOM     17  H   UNL     1      45.029   7.694  13.926  0.00  0.00    +0.000 HD
BRANCH  16  22
ATOM     18  C   UNL     1      47.529  10.484  11.588  0.00  0.00    +0.000 A 
ATOM     19  C   UNL     1      46.375  11.180  11.259  0.00  0.00    +0.000 A 
ATOM     20  N   UNL     1      45.137  10.762  11.594  0.00  0.00    +0.000 NA
ATOM     21  C   UNL     1      45.059   9.605  12.299  0.00  0.00    +0.000 A 
ATOM     22  C   UNL     1      46.149   8.810  12.672  0.00  0.00    +0.000 A 
ATOM     23  C   UNL     1      47.405   9.287  12.297  0.00  0.00    +0.000 A 
BRANCH  18  25
ATOM     24  N   UNL     1      49.851  11.429  10.930  0.00  0.00    +0.000 NA
ATOM     25  C   UNL     1      48.810  11.006  11.231  0.00  0.00    +0.000 C 
ENDBRANCH  18  25
ENDBRANCH  16  22
ENDBRANCH   1  16
TORSDOF 5
ENDMDL
MODEL 7
REMARK VINA RESULT:    -6.553      3.342      7.212
REMARK INTER + INTRA:          -9.416
REMARK INTER:                  -8.287
REMARK INTRA:                  -1.129
REMARK UNBOUND:                -0.948
REMARK  Name = 
REMARK  5 active torsions:
REMARK  status: ('A' for Active; 'I' for Inactive)
REMARK    1  A    between atoms: C_2  and  C_3
REMARK    2  A    between atoms: C_7  and  N_8
REMARK    3  A    between atoms: N_8  and  C_9
REMARK    4  A    between atoms: C_9  and  C_10
REMARK    5  A    between atoms: C_14  and  C_15
REMARK                            x       y       z     vdW  Elec       q    Type
REMARK                         _______ _______ _______ _____ _____    ______ ____
ROOT
ATOM      1  C   UNL     1      48.758   8.124  12.666  0.00  0.00    +0.000 C 
ATOM      2  C   UNL     1      49.526   8.737  11.490  0.00  0.00    +0.000 C 
ATOM      3  C   UNL     1      49.172   9.584  12.661  0.00  0.00    +0.000 C 
ENDROOT
BRANCH   1   4
ATOM      4  C   UNL     1      47.287   7.805  12.403  0.00  0.00    +0.000 A 
ATOM      5  C   UNL     1      46.276   8.758  12.579  0.00  0.00    +0.000 A 
ATOM      6  C   UNL     1      44.975   8.507  12.143  0.00  0.00    +0.000 A 
ATOM      7  C   UNL     1      44.671   7.306  11.496  0.00  0.00    +0.000 A 
ATOM      8  C   UNL     1      45.645   6.312  11.316  0.00  0.00    +0.000 A 
ATOM      9  C   UNL     1      46.918   6.562  11.851  0.00  0.00    +0.000 A 
BRANCH   8  10
ATOM     10  C   UNL     1      45.426   5.126  10.459  0.00  0.00    +0.000 A 
ATOM     11  C   UNL     1      44.728   4.010  10.956  0.00  0.00    +0.000 A 
ATOM     12  C   UNL     1      44.376   2.939  10.130  0.00  0.00    +0.000 A 
ATOM     13  C   UNL     1      44.711   2.962   8.781  0.00  0.00    +0.000 A 
ATOM     14  C   UNL     1      45.415   4.046   8.264  0.00  0.00    +0.000 A 
ATOM     15  C   UNL     1      45.776   5.111   9.096  0.00  0.00    +0.000 A 
ENDBRANCH   8  10
ENDBRANCH   1   4
BRANCH   1  16
ATOM     16  N   UNL     1      49.473   7.082  13.438  0.00  0.00    +0.000 N 
ATOM     17  H   UNL     1      49.625   6.238  12.886  0.00  0.00    +0.000 HD
BRANCH  16  22
ATOM     18  C   UNL     1      48.078   5.438  16.497  0.00  0.00    +0.000 A 
ATOM     19  C   UNL     1      48.441   6.399  17.428  0.00  0.00    +0.000 A 
ATOM     20  N   UNL     1      49.133   7.513  17.111  0.00  0.00    +0.000 NA
ATOM     21  C   UNL     1      49.460   7.671  15.804  0.00  0.00    +0.000 A 
ATOM     22  C   UNL     1      49.165   6.762  14.780  0.00  0.00    +0.000 A 
ATOM     23  C   UNL     1      48.451   5.627  15.164  0.00  0.00    +0.000 A 
BRANCH  18  25
ATOM     24  N   UNL     1      46.697   3.368  17.220  0.00  0.00    +0.000 NA
ATOM     25  C   UNL     1      47.314   4.300  16.899  0.00  0.00    +0.000 C 
ENDBRANCH  18  25
ENDBRANCH  16  22
ENDBRANCH   1  16
TORSDOF 5
ENDMDL
MODEL 8
REMARK VINA RESULT:    -6.502      3.227      7.207
REMARK INTER + INTRA:          -9.351
REMARK INTER:                  -8.669
REMARK INTRA:                  -0.682
REMARK UNBOUND:                -0.948
REMARK  Name = 
REMARK  5 active torsions:
REMARK  status: ('A' for Active; 'I' for Inactive)
REMARK    1  A    between atoms: C_2  and  C_3
REMARK    2  A    between atoms: C_7  and  N_8
REMARK    3  A    between atoms: N_8  and  C_9
REMARK    4  A    between atoms: C_9  and  C_10
REMARK    5  A    between atoms: C_14  and  C_15
REMARK                            x       y       z     vdW  Elec       q    Type
REMARK                         _______ _______ _______ _____ _____    ______ ____
ROOT
ATOM      1  C   UNL     1      46.107   7.472  11.977  0.00  0.00    +0.000 C 
ATOM      2  C   UNL     1      45.702   8.883  11.540  0.00  0.00    +0.000 C 
ATOM      3  C   UNL     1      45.540   8.476  12.962  0.00  0.00    +0.000 C 
ENDROOT
BRANCH   1   4
ATOM      4  C   UNL     1      45.188   6.343  11.510  0.00  0.00    +0.000 A 
ATOM      5  C   UNL     1      43.812   6.352  11.765  0.00  0.00    +0.000 A 
ATOM      6  C   UNL     1      42.968   5.420  11.158  0.00  0.00    +0.000 A 
ATOM      7  C   UNL     1      43.488   4.481  10.263  0.00  0.00    +0.000 A 
ATOM      8  C   UNL     1      44.863   4.420   9.994  0.00  0.00    +0.000 A 
ATOM      9  C   UNL     1      45.691   5.312  10.693  0.00  0.00    +0.000 A 
BRANCH   8  10
ATOM     10  C   UNL     1      45.427   3.589   8.905  0.00  0.00    +0.000 A 
ATOM     11  C   UNL     1      46.009   4.197   7.778  0.00  0.00    +0.000 A 
ATOM     12  C   UNL     1      46.678   3.447   6.807  0.00  0.00    +0.000 A 
ATOM     13  C   UNL     1      46.786   2.068   6.946  0.00  0.00    +0.000 A 
ATOM     14  C   UNL     1      46.207   1.437   8.043  0.00  0.00    +0.000 A 
ATOM     15  C   UNL     1      45.527   2.189   9.007  0.00  0.00    +0.000 A 
ENDBRANCH   8  10
ENDBRANCH   1   4
BRANCH   1  16
ATOM     16  N   UNL     1      47.550   7.151  11.885  0.00  0.00    +0.000 N 
ATOM     17  H   UNL     1      47.710   6.246  11.444  0.00  0.00    +0.000 HD
BRANCH  16  22
ATOM     18  C   UNL     1      50.395   8.426  13.957  0.00  0.00    +0.000 A 
ATOM     19  C   UNL     1      50.316   7.510  14.995  0.00  0.00    +0.000 A 
ATOM     20  N   UNL     1      49.378   6.543  15.060  0.00  0.00    +0.000 NA
ATOM     21  C   UNL     1      48.493   6.489  14.034  0.00  0.00    +0.000 A 
ATOM     22  C   UNL     1      48.462   7.368  12.944  0.00  0.00    +0.000 A 
ATOM     23  C   UNL     1      49.452   8.350  12.928  0.00  0.00    +0.000 A 
BRANCH  18  25
ATOM     24  N   UNL     1      52.285  10.198  13.928  0.00  0.00    +0.000 NA
ATOM     25  C   UNL     1      51.438   9.402  13.936  0.00  0.00    +0.000 C 
ENDBRANCH  18  25
ENDBRANCH  16  22
ENDBRANCH   1  16
TORSDOF 5
ENDMDL
MODEL 9
REMARK VINA RESULT:    -6.383      2.236      4.515
REMARK INTER + INTRA:          -9.197
REMARK INTER:                  -8.266
REMARK INTRA:                  -0.931
REMARK UNBOUND:                -0.948
REMARK  Name = 
REMARK  5 active torsions:
REMARK  status: ('A' for Active; 'I' for Inactive)
REMARK    1  A    between atoms: C_2  and  C_3
REMARK    2  A    between atoms: C_7  and  N_8
REMARK    3  A    between atoms: N_8  and  C_9
REMARK    4  A    between atoms: C_9  and  C_10
REMARK    5  A    between atoms: C_14  and  C_15
REMARK                            x       y       z     vdW  Elec       q    Type
REMARK                         _______ _______ _______ _____ _____    ______ ____
ROOT
ATOM      1  C   UNL     1      45.233   7.682  12.168  0.00  0.00    +0.000 C 
ATOM      2  C   UNL     1      44.732   9.069  12.579  0.00  0.00    +0.000 C 
ATOM      3  C   UNL     1      45.085   8.805  11.158  0.00  0.00    +0.000 C 
ENDROOT
BRANCH   1   4
ATOM      4  C   UNL     1      46.647   7.325  12.626  0.00  0.00    +0.000 A 
ATOM      5  C   UNL     1      47.777   7.995  12.143  0.00  0.00    +0.000 A 
ATOM      6  C   UNL     1      49.030   7.791  12.722  0.00  0.00    +0.000 A 
ATOM      7  C   UNL     1      49.166   6.931  13.816  0.00  0.00    +0.000 A 
ATOM      8  C   UNL     1      48.066   6.221  14.321  0.00  0.00    +0.000 A 
ATOM      9  C   UNL     1      46.842   6.381  13.654  0.00  0.00    +0.000 A 
BRANCH   8  10
ATOM     10  C   UNL     1      48.119   5.470  15.595  0.00  0.00    +0.000 A 
ATOM     11  C   UNL     1      48.853   5.971  16.685  0.00  0.00    +0.000 A 
ATOM     12  C   UNL     1      48.803   5.364  17.943  0.00  0.00    +0.000 A 
ATOM     13  C   UNL     1      48.009   4.240  18.141  0.00  0.00    +0.000 A 
ATOM     14  C   UNL     1      47.283   3.712  17.077  0.00  0.00    +0.000 A 
ATOM     15  C   UNL     1      47.345   4.315  15.817  0.00  0.00    +0.000 A 
ENDBRANCH   8  10
ENDBRANCH   1   4
BRANCH   1  16
ATOM     16  N   UNL     1      44.259   6.573  12.295  0.00  0.00    +0.000 N 
ATOM     17  H   UNL     1      44.070   6.345  13.271  0.00  0.00    +0.000 HD
BRANCH  16  22
ATOM     18  C   UNL     1      44.925   4.157   9.515  0.00  0.00    +0.000 A 
ATOM     19  C   UNL     1      44.104   3.125   9.944  0.00  0.00    +0.000 A 
ATOM     20  N   UNL     1      43.391   3.171  11.087  0.00  0.00    +0.000 NA
ATOM     21  C   UNL     1      43.498   4.307  11.822  0.00  0.00    +0.000 A 
ATOM     22  C   UNL     1      44.305   5.405  11.501  0.00  0.00    +0.000 A 
ATOM     23  C   UNL     1      45.024   5.303  10.310  0.00  0.00    +0.000 A 
BRANCH  18  25
ATOM     24  N   UNL     1      46.202   3.969   7.268  0.00  0.00    +0.000 NA
ATOM     25  C   UNL     1      45.624   4.054   8.274  0.00  0.00    +0.000 C 
ENDBRANCH  18  25
ENDBRANCH  16  22
ENDBRANCH   1  16
TORSDOF 5
ENDMDL
