MODEL 1
REMARK VINA RESULT:    -8.121      0.000      0.000
REMARK INTER + INTRA:         -10.056
REMARK INTER:                  -9.546
REMARK INTRA:                  -0.511
REMARK UNBOUND:                -0.511
REMARK  Name = 
REMARK  4 active torsions:
REMARK  status: ('A' for Active; 'I' for Inactive)
REMARK    1  A    between atoms: C_1  and  C_2
REMARK    2  A    between atoms: C_6  and  C_7
REMARK    3  A    between atoms: C_7  and  N_8
REMARK    4  A    between atoms: C_9  and  C_11
REMARK                            x       y       z     vdW  Elec       q    Type
REMARK                         _______ _______ _______ _____ _____    ______ ____
ROOT
ATOM      1  N   UNL     1      45.512   4.781   9.835  0.00  0.00    +0.000 N 
ATOM      2  C   UNL     1      44.903   5.499  10.833  0.00  0.00    +0.000 C 
ATOM      3  O   UNL     1      43.689   5.681  10.861  0.00  0.00    +0.000 OA
ATOM      4  H   UNL     1      46.520   4.823   9.729  0.00  0.00    +0.000 HD
ENDROOT
BRANCH   2   5
ATOM      5  C   UNL     1      45.771   5.985  11.911  0.00  0.00    +0.000 A 
ATOM      6  C   UNL     1      46.145   7.322  11.938  0.00  0.00    +0.000 A 
ATOM      7  S   UNL     1      47.115   7.736  13.277  0.00  0.00    +0.000 S 
ATOM      8  C   UNL     1      47.113   6.131  13.842  0.00  0.00    +0.000 A 
ATOM      9  N   UNL     1      47.796   5.786  14.966  0.00  0.00    +0.000 NA
ATOM     10  C   UNL     1      47.739   4.531  15.261  0.00  0.00    +0.000 A 
ATOM     11  N   UNL     1      47.053   3.590  14.537  0.00  0.00    +0.000 N 
ATOM     12  C   UNL     1      46.320   3.898  13.416  0.00  0.00    +0.000 A 
ATOM     13  O   UNL     1      45.675   3.041  12.820  0.00  0.00    +0.000 OA
ATOM     14  C   UNL     1      46.366   5.295  13.032  0.00  0.00    +0.000 A 
ATOM     15  H   UNL     1      47.042   2.623  14.827  0.00  0.00    +0.000 HD
ENDBRANCH   2   5
BRANCH   1  16
ATOM     16  C   UNL     1      44.771   4.236   8.723  0.00  0.00    +0.000 C 
BRANCH  16  22
ATOM     17  C   UNL     1      47.707   2.582   4.977  0.00  0.00    +0.000 C 
ATOM     18  C   UNL     1      46.965   2.313   6.253  0.00  0.00    +0.000 A 
ATOM     19  C   UNL     1      47.010   1.053   6.859  0.00  0.00    +0.000 A 
ATOM     20  C   UNL     1      46.321   0.819   8.049  0.00  0.00    +0.000 A 
ATOM     21  C   UNL     1      45.585   1.842   8.648  0.00  0.00    +0.000 A 
ATOM     22  C   UNL     1      45.530   3.113   8.063  0.00  0.00    +0.000 A 
ATOM     23  C   UNL     1      46.225   3.336   6.862  0.00  0.00    +0.000 A 
ENDBRANCH  16  22
ENDBRANCH   1  16
TORSDOF 3
ENDMDL
MODEL 2
REMARK VINA RESULT:    -7.799      1.504      2.238
REMARK INTER + INTRA:          -9.678
REMARK INTER:                  -9.190
REMARK INTRA:                  -0.488
REMARK UNBOUND:                -0.511
REMARK  Name = 
REMARK  4 active torsions:
REMARK  status: ('A' for Active; 'I' for Inactive)
REMARK    1  A    between atoms: C_1  and  C_2
REMARK    2  A    between atoms: C_6  and  C_7
REMARK    3  A    between atoms: C_7  and  N_8
REMARK    4  A    between atoms: C_9  and  C_11
REMARK                            x       y       z     vdW  Elec       q    Type
REMARK                         _______ _______ _______ _____ _____    ______ ____
ROOT
ATOM      1  N   UNL     1      44.873   5.019  10.089  0.00  0.00    +0.000 N 
ATOM      2  C   UNL     1      44.712   5.262  11.429  0.00  0.00    +0.000 C 
ATOM      3  O   UNL     1      44.188   4.448  12.184  0.00  0.00    +0.000 OA
ATOM      4  H   UNL     1      45.117   5.781   9.465  0.00  0.00    +0.000 HD
ENDROOT
BRANCH   2   5
ATOM      5  C   UNL     1      45.263   6.524  11.935  0.00  0.00    +0.000 A 
ATOM      6  C   UNL     1      44.693   7.727  11.538  0.00  0.00    +0.000 A 
ATOM      7  S   UNL     1      45.419   9.097  12.247  0.00  0.00    +0.000 S 
ATOM      8  C   UNL     1      46.554   8.134  13.071  0.00  0.00    +0.000 A 
ATOM      9  N   UNL     1      47.507   8.700  13.859  0.00  0.00    +0.000 NA
ATOM     10  C   UNL     1      48.325   7.857  14.396  0.00  0.00    +0.000 A 
ATOM     11  N   UNL     1      48.270   6.499  14.222  0.00  0.00    +0.000 N 
ATOM     12  C   UNL     1      47.305   5.880  13.464  0.00  0.00    +0.000 A 
ATOM     13  O   UNL     1      47.252   4.658  13.371  0.00  0.00    +0.000 OA
ATOM     14  C   UNL     1      46.370   6.786  12.825  0.00  0.00    +0.000 A 
ATOM     15  H   UNL     1      48.938   5.893  14.678  0.00  0.00    +0.000 HD
ENDBRANCH   2   5
BRANCH   1  16
ATOM     16  C   UNL     1      44.388   3.810   9.468  0.00  0.00    +0.000 C 
BRANCH  16  22
ATOM     17  C   UNL     1      46.773  -0.261   7.696  0.00  0.00    +0.000 C 
ATOM     18  C   UNL     1      46.586   1.228   7.701  0.00  0.00    +0.000 A 
ATOM     19  C   UNL     1      47.335   2.050   6.853  0.00  0.00    +0.000 A 
ATOM     20  C   UNL     1      47.146   3.432   6.863  0.00  0.00    +0.000 A 
ATOM     21  C   UNL     1      46.204   4.006   7.717  0.00  0.00    +0.000 A 
ATOM     22  C   UNL     1      45.438   3.202   8.571  0.00  0.00    +0.000 A 
ATOM     23  C   UNL     1      45.639   1.812   8.554  0.00  0.00    +0.000 A 
ENDBRANCH  16  22
ENDBRANCH   1  16
TORSDOF 3
ENDMDL
MODEL 3
REMARK VINA RESULT:    -7.592      4.247      7.463
REMARK INTER + INTRA:          -9.434
REMARK INTER:                  -8.906
REMARK INTRA:                  -0.528
REMARK UNBOUND:                -0.511
REMARK  Name = 
REMARK  4 active torsions:
REMARK  status: ('A' for Active; 'I' for Inactive)
REMARK    1  A    between atoms: C_1  and  C_2
REMARK    2  A    between atoms: C_6  and  C_7
REMARK    3  A    between atoms: C_7  and  N_8
REMARK    4  A    between atoms: C_9  and  C_11
REMARK                            x       y       z     vdW  Elec       q    Type
REMARK                         _______ _______ _______ _____ _____    ______ ____
ROOT
ATOM      1  N   UNL     1      46.873   4.406  15.871  0.00  0.00    +0.000 N 
ATOM      2  C   UNL     1      46.898   4.156  14.523  0.00  0.00    +0.000 C 
ATOM      3  O   UNL     1      47.242   3.071  14.064  0.00  0.00    +0.000 OA
ATOM      4  H   UNL     1      46.785   5.360  16.205  0.00  0.00    +0.000 HD
ENDROOT
BRANCH   2   5
ATOM      5  C   UNL     1      46.423   5.236  13.650  0.00  0.00    +0.000 A 
ATOM      6  C   UNL     1      47.231   6.344  13.432  0.00  0.00    +0.000 A 
ATOM      7  S   UNL     1      46.556   7.485  12.361  0.00  0.00    +0.000 S 
ATOM      8  C   UNL     1      45.136   6.563  12.190  0.00  0.00    +0.000 A 
ATOM      9  N   UNL     1      44.112   6.997  11.408  0.00  0.00    +0.000 NA
ATOM     10  C   UNL     1      43.082   6.219  11.397  0.00  0.00    +0.000 A 
ATOM     11  N   UNL     1      42.988   5.040  12.090  0.00  0.00    +0.000 N 
ATOM     12  C   UNL     1      44.010   4.544  12.864  0.00  0.00    +0.000 A 
ATOM     13  O   UNL     1      43.913   3.460  13.431  0.00  0.00    +0.000 OA
ATOM     14  C   UNL     1      45.185   5.392  12.923  0.00  0.00    +0.000 A 
ATOM     15  H   UNL     1      42.155   4.472  12.031  0.00  0.00    +0.000 HD
ENDBRANCH   2   5
BRANCH   1  16
ATOM     16  C   UNL     1      47.302   3.424  16.838  0.00  0.00    +0.000 C 
BRANCH  16  22
ATOM     17  C   UNL     1      51.800   1.234  17.440  0.00  0.00    +0.000 C 
ATOM     18  C   UNL     1      50.965   2.479  17.390  0.00  0.00    +0.000 A 
ATOM     19  C   UNL     1      51.547   3.742  17.544  0.00  0.00    +0.000 A 
ATOM     20  C   UNL     1      50.759   4.892  17.488  0.00  0.00    +0.000 A 
ATOM     21  C   UNL     1      49.384   4.793  17.274  0.00  0.00    +0.000 A 
ATOM     22  C   UNL     1      48.781   3.539  17.111  0.00  0.00    +0.000 A 
ATOM     23  C   UNL     1      49.583   2.388  17.172  0.00  0.00    +0.000 A 
ENDBRANCH  16  22
ENDBRANCH   1  16
TORSDOF 3
ENDMDL
MODEL 4
REMARK VINA RESULT:    -7.234      2.484      3.992
REMARK INTER + INTRA:          -9.014
REMARK INTER:                  -8.609
REMARK INTRA:                  -0.405
REMARK UNBOUND:                -0.511
REMARK  Name = 
REMARK  4 active torsions:
REMARK  status: ('A' for Active; 'I' for Inactive)
REMARK    1  A    between atoms: C_1  and  C_2
REMARK    2  A    between atoms: C_6  and  C_7
REMARK    3  A    between atoms: C_7  and  N_8
REMARK    4  A    between atoms: C_9  and  C_11
REMARK                            x       y       z     vdW  Elec       q    Type
REMARK                         _______ _______ _______ _____ _____    ______ ____
ROOT
ATOM      1  N   UNL     1      45.363   5.295  13.688  0.00  0.00    +0.000 N 
ATOM      2  C   UNL     1      46.394   4.512  14.143  0.00  0.00    +0.000 C 
ATOM      3  O   UNL     1      46.499   3.327  13.839  0.00  0.00    +0.000 OA
ATOM      4  H   UNL     1      45.192   6.199  14.115  0.00  0.00    +0.000 HD
ENDROOT
BRANCH   2   5
ATOM      5  C   UNL     1      47.411   5.183  14.960  0.00  0.00    +0.000 A 
ATOM      6  C   UNL     1      48.166   6.209  14.406  0.00  0.00    +0.000 A 
ATOM      7  S   UNL     1      49.271   6.912  15.497  0.00  0.00    +0.000 S 
ATOM      8  C   UNL     1      48.816   5.837  16.734  0.00  0.00    +0.000 A 
ATOM      9  N   UNL     1      49.412   5.886  17.955  0.00  0.00    +0.000 NA
ATOM     10  C   UNL     1      48.998   4.991  18.788  0.00  0.00    +0.000 A 
ATOM     11  N   UNL     1      48.034   4.056  18.512  0.00  0.00    +0.000 N 
ATOM     12  C   UNL     1      47.379   3.991  17.306  0.00  0.00    +0.000 A 
ATOM     13  O   UNL     1      46.484   3.175  17.108  0.00  0.00    +0.000 OA
ATOM     14  C   UNL     1      47.821   4.967  16.328  0.00  0.00    +0.000 A 
ATOM     15  H   UNL     1      47.748   3.387  19.213  0.00  0.00    +0.000 HD
ENDBRANCH   2   5
BRANCH   1  16
ATOM     16  C   UNL     1      44.305   4.762  12.865  0.00  0.00    +0.000 C 
BRANCH  16  22
ATOM     17  C   UNL     1      44.820   1.762   8.848  0.00  0.00    +0.000 C 
ATOM     18  C   UNL     1      45.012   3.103   9.493  0.00  0.00    +0.000 A 
ATOM     19  C   UNL     1      45.573   4.169   8.782  0.00  0.00    +0.000 A 
ATOM     20  C   UNL     1      45.740   5.412   9.393  0.00  0.00    +0.000 A 
ATOM     21  C   UNL     1      45.343   5.605  10.717  0.00  0.00    +0.000 A 
ATOM     22  C   UNL     1      44.773   4.553  11.446  0.00  0.00    +0.000 A 
ATOM     23  C   UNL     1      44.614   3.305  10.822  0.00  0.00    +0.000 A 
ENDBRANCH  16  22
ENDBRANCH   1  16
TORSDOF 3
ENDMDL
MODEL 5
REMARK VINA RESULT:    -7.119      3.808      7.267
REMARK INTER + INTRA:          -8.878
REMARK INTER:                  -8.224
REMARK INTRA:                  -0.653
REMARK UNBOUND:                -0.511
REMARK  Name = 
REMARK  4 active torsions:
REMARK  status: ('A' for Active; 'I' for Inactive)
REMARK    1  A    between atoms: C_1  and  C_2
REMARK    2  A    between atoms: C_6  and  C_7
REMARK    3  A    between atoms: C_7  and  N_8
REMARK    4  A    between atoms: C_9  and  C_11
REMARK                            x       y       z     vdW  Elec       q    Type
REMARK                         _______ _______ _______ _____ _____    ______ ____
ROOT
ATOM      1  N   UNL     1      47.727   6.846  14.763  0.00  0.00    +0.000 N 
ATOM      2  C   UNL     1      47.798   6.399  13.468  0.00  0.00    +0.000 C 
ATOM      3  O   UNL     1      48.865   6.116  12.931  0.00  0.00    +0.000 OA
ATOM      4  H   UNL     1      46.867   7.261  15.106  0.00  0.00    +0.000 HD
ENDROOT
BRANCH   2   5
ATOM      5  C   UNL     1      46.520   6.208  12.773  0.00  0.00    +0.000 A 
ATOM      6  C   UNL     1      45.881   7.302  12.204  0.00  0.00    +0.000 A 
ATOM      7  S   UNL     1      44.434   6.906  11.395  0.00  0.00    +0.000 S 
ATOM      8  C   UNL     1      44.583   5.265  11.820  0.00  0.00    +0.000 A 
ATOM      9  N   UNL     1      43.638   4.360  11.451  0.00  0.00    +0.000 NA
ATOM     10  C   UNL     1      43.857   3.159  11.869  0.00  0.00    +0.000 A 
ATOM     11  N   UNL     1      44.941   2.779  12.617  0.00  0.00    +0.000 N 
ATOM     12  C   UNL     1      45.939   3.650  12.983  0.00  0.00    +0.000 A 
ATOM     13  O   UNL     1      46.923   3.268  13.609  0.00  0.00    +0.000 OA
ATOM     14  C   UNL     1      45.731   5.019  12.551  0.00  0.00    +0.000 A 
ATOM     15  H   UNL     1      45.058   1.818  12.906  0.00  0.00    +0.000 HD
ENDBRANCH   2   5
BRANCH   1  16
ATOM     16  C   UNL     1      48.908   7.063  15.563  0.00  0.00    +0.000 C 
BRANCH  16  22
ATOM     17  C   UNL     1      47.391   2.758  17.698  0.00  0.00    +0.000 C 
ATOM     18  C   UNL     1      48.470   3.773  17.461  0.00  0.00    +0.000 A 
ATOM     19  C   UNL     1      49.750   3.600  17.997  0.00  0.00    +0.000 A 
ATOM     20  C   UNL     1      50.746   4.549  17.762  0.00  0.00    +0.000 A 
ATOM     21  C   UNL     1      50.474   5.677  16.987  0.00  0.00    +0.000 A 
ATOM     22  C   UNL     1      49.201   5.868  16.435  0.00  0.00    +0.000 A 
ATOM     23  C   UNL     1      48.205   4.908  16.680  0.00  0.00    +0.000 A 
ENDBRANCH  16  22
ENDBRANCH   1  16
TORSDOF 3
ENDMDL
MODEL 6
REMARK VINA RESULT:    -6.974      4.647      7.609
REMARK INTER + INTRA:          -8.708
REMARK INTER:                  -8.013
REMARK INTRA:                  -0.695
REMARK UNBOUND:                -0.511
REMARK  Name = 
REMARK  4 active torsions:
REMARK  status: ('A' for Active; 'I' for Inactive)
REMARK    1  A    between atoms: C_1  and  C_2
REMARK    2  A    between atoms: C_6  and  C_7
REMARK    3  A    between atoms: C_7  and  N_8
REMARK    4  A    between atoms: C_9  and  C_11
REMARK                            x       y       z     vdW  Elec       q    Type
REMARK                         _______ _______ _______ _____ _____    ______ ____
ROOT
ATOM      1  N   UNL     1      46.950   4.377  16.053  0.00  0.00    +0.000 N 
ATOM      2  C   UNL     1      46.968   4.106  14.708  0.00  0.00    +0.000 C 
ATOM      3  O   UNL     1      47.311   3.014  14.266  0.00  0.00    +0.000 OA
ATOM      4  H   UNL     1      46.862   5.336  16.372  0.00  0.00    +0.000 HD
ENDROOT
BRANCH   2   5
ATOM      5  C   UNL     1      46.487   5.171  13.821  0.00  0.00    +0.000 A 
ATOM      6  C   UNL     1      45.244   5.046  13.214  0.00  0.00    +0.000 A 
ATOM      7  S   UNL     1      44.813   6.385  12.251  0.00  0.00    +0.000 S 
ATOM      8  C   UNL     1      46.295   7.158  12.570  0.00  0.00    +0.000 A 
ATOM      9  N   UNL     1      46.586   8.365  12.016  0.00  0.00    +0.000 NA
ATOM     10  C   UNL     1      47.756   8.820  12.312  0.00  0.00    +0.000 A 
ATOM     11  N   UNL     1      48.660   8.181  13.120  0.00  0.00    +0.000 N 
ATOM     12  C   UNL     1      48.398   6.978  13.730  0.00  0.00    +0.000 A 
ATOM     13  O   UNL     1      49.208   6.456  14.489  0.00  0.00    +0.000 OA
ATOM     14  C   UNL     1      47.099   6.415  13.415  0.00  0.00    +0.000 A 
ATOM     15  H   UNL     1      49.559   8.596  13.319  0.00  0.00    +0.000 HD
ENDBRANCH   2   5
BRANCH   1  16
ATOM     16  C   UNL     1      47.384   3.411  17.033  0.00  0.00    +0.000 C 
BRANCH  16  22
ATOM     17  C   UNL     1      51.896   1.197  17.404  0.00  0.00    +0.000 C 
ATOM     18  C   UNL     1      51.060   2.442  17.442  0.00  0.00    +0.000 A 
ATOM     19  C   UNL     1      51.646   3.695  17.651  0.00  0.00    +0.000 A 
ATOM     20  C   UNL     1      50.857   4.846  17.677  0.00  0.00    +0.000 A 
ATOM     21  C   UNL     1      49.477   4.757  17.491  0.00  0.00    +0.000 A 
ATOM     22  C   UNL     1      48.869   3.514  17.275  0.00  0.00    +0.000 A 
ATOM     23  C   UNL     1      49.673   2.362  17.254  0.00  0.00    +0.000 A 
ENDBRANCH  16  22
ENDBRANCH   1  16
TORSDOF 3
ENDMDL
MODEL 7
REMARK VINA RESULT:    -6.877      2.952      4.461
REMARK INTER + INTRA:          -8.593
REMARK INTER:                  -7.853
REMARK INTRA:                  -0.740
REMARK UNBOUND:                -0.511
REMARK  Name = 
REMARK  4 active torsions:
REMARK  status: ('A' for Active; 'I' for Inactive)
REMARK    1  A    between atoms: C_1  and  C_2
REMARK    2  A    between atoms: C_6  and  C_7
REMARK    3  A    between atoms: C_7  and  N_8
REMARK    4  A    between atoms: C_9  and  C_11
REMARK                            x       y       z     vdW  Elec       q    Type
REMARK                         _______ _______ _______ _____ _____    ______ ____
ROOT
ATOM      1  N   UNL     1      46.720   6.635  13.620  0.00  0.00    +0.000 N 
ATOM      2  C   UNL     1      48.057   6.422  13.839  0.00  0.00    +0.000 C 
ATOM      3  O   UNL     1      48.888   6.501  12.940  0.00  0.00    +0.000 OA
ATOM      4  H   UNL     1      46.044   6.364  14.326  0.00  0.00    +0.000 HD
ENDROOT
BRANCH   2   5
ATOM      5  C   UNL     1      48.457   6.161  15.227  0.00  0.00    +0.000 A 
ATOM      6  C   UNL     1      49.281   7.067  15.882  0.00  0.00    +0.000 A 
ATOM      7  S   UNL     1      49.617   6.643  17.498  0.00  0.00    +0.000 S 
ATOM      8  C   UNL     1      48.714   5.208  17.365  0.00  0.00    +0.000 A 
ATOM      9  N   UNL     1      48.612   4.347  18.414  0.00  0.00    +0.000 NA
ATOM     10  C   UNL     1      47.928   3.282  18.165  0.00  0.00    +0.000 A 
ATOM     11  N   UNL     1      47.329   3.002  16.964  0.00  0.00    +0.000 N 
ATOM     12  C   UNL     1      47.375   3.856  15.889  0.00  0.00    +0.000 A 
ATOM     13  O   UNL     1      46.785   3.600  14.844  0.00  0.00    +0.000 OA
ATOM     14  C   UNL     1      48.148   5.063  16.112  0.00  0.00    +0.000 A 
ATOM     15  H   UNL     1      46.800   2.151  16.837  0.00  0.00    +0.000 HD
ENDBRANCH   2   5
BRANCH   1  16
ATOM     16  C   UNL     1      46.196   6.914  12.304  0.00  0.00    +0.000 C 
BRANCH  16  22
ATOM     17  C   UNL     1      44.574   3.985   8.538  0.00  0.00    +0.000 C 
ATOM     18  C   UNL     1      44.547   4.354   9.992  0.00  0.00    +0.000 A 
ATOM     19  C   UNL     1      43.766   3.635  10.902  0.00  0.00    +0.000 A 
ATOM     20  C   UNL     1      43.756   3.985  12.252  0.00  0.00    +0.000 A 
ATOM     21  C   UNL     1      44.530   5.053  12.707  0.00  0.00    +0.000 A 
ATOM     22  C   UNL     1      45.325   5.784  11.815  0.00  0.00    +0.000 A 
ATOM     23  C   UNL     1      45.325   5.424  10.457  0.00  0.00    +0.000 A 
ENDBRANCH  16  22
ENDBRANCH   1  16
TORSDOF 3
ENDMDL
MODEL 8
REMARK VINA RESULT:    -6.859      3.577      8.676
REMARK INTER + INTRA:          -8.573
REMARK INTER:                  -7.897
REMARK INTRA:                  -0.675
REMARK UNBOUND:                -0.511
REMARK  Name = 
REMARK  4 active torsions:
REMARK  status: ('A' for Active; 'I' for Inactive)
REMARK    1  A    between atoms: C_1  and  C_2
REMARK    2  A    between atoms: C_6  and  C_7
REMARK    3  A    between atoms: C_7  and  N_8
REMARK    4  A    between atoms: C_9  and  C_11
REMARK                            x       y       z     vdW  Elec       q    Type
REMARK                         _______ _______ _______ _____ _____    ______ ____
ROOT
ATOM      1  N   UNL     1      47.887   5.796  15.643  0.00  0.00    +0.000 N 
ATOM      2  C   UNL     1      48.113   6.302  14.388  0.00  0.00    +0.000 C 
ATOM      3  O   UNL     1      49.201   6.765  14.056  0.00  0.00    +0.000 OA
ATOM      4  H   UNL     1      46.936   5.614  15.948  0.00  0.00    +0.000 HD
ENDROOT
BRANCH   2   5
ATOM      5  C   UNL     1      47.005   6.200  13.433  0.00  0.00    +0.000 A 
ATOM      6  C   UNL     1      46.488   7.355  12.859  0.00  0.00    +0.000 A 
ATOM      7  S   UNL     1      45.237   7.063  11.739  0.00  0.00    +0.000 S 
ATOM      8  C   UNL     1      45.306   5.386  12.018  0.00  0.00    +0.000 A 
ATOM      9  N   UNL     1      44.460   4.536  11.377  0.00  0.00    +0.000 NA
ATOM     10  C   UNL     1      44.596   3.296  11.708  0.00  0.00    +0.000 A 
ATOM     11  N   UNL     1      45.509   2.828  12.617  0.00  0.00    +0.000 N 
ATOM     12  C   UNL     1      46.407   3.644  13.263  0.00  0.00    +0.000 A 
ATOM     13  O   UNL     1      47.246   3.186  14.033  0.00  0.00    +0.000 OA
ATOM     14  C   UNL     1      46.283   5.051  12.938  0.00  0.00    +0.000 A 
ATOM     15  H   UNL     1      45.570   1.842  12.826  0.00  0.00    +0.000 HD
ENDBRANCH   2   5
BRANCH   1  16
ATOM     16  C   UNL     1      48.898   5.822  16.672  0.00  0.00    +0.000 C 
BRANCH  16  22
ATOM     17  C   UNL     1      47.299   6.005  21.447  0.00  0.00    +0.000 C 
ATOM     18  C   UNL     1      47.677   6.718  20.182  0.00  0.00    +0.000 A 
ATOM     19  C   UNL     1      47.657   8.115  20.111  0.00  0.00    +0.000 A 
ATOM     20  C   UNL     1      48.018   8.765  18.930  0.00  0.00    +0.000 A 
ATOM     21  C   UNL     1      48.407   8.027  17.812  0.00  0.00    +0.000 A 
ATOM     22  C   UNL     1      48.440   6.627  17.862  0.00  0.00    +0.000 A 
ATOM     23  C   UNL     1      48.072   5.984  19.055  0.00  0.00    +0.000 A 
ENDBRANCH  16  22
ENDBRANCH   1  16
TORSDOF 3
ENDMDL
MODEL 9
REMARK VINA RESULT:    -6.487      2.702      3.865
REMARK INTER + INTRA:          -8.135
REMARK INTER:                  -7.701
REMARK INTRA:                  -0.434
REMARK UNBOUND:                -0.511
REMARK  Name = 
REMARK  4 active torsions:
REMARK  status: ('A' for Active; 'I' for Inactive)
REMARK    1  A    between atoms: C_1  and  C_2
REMARK    2  A    between atoms: C_6  and  C_7
REMARK    3  A    between atoms: C_7  and  N_8
REMARK    4  A    between atoms: C_9  and  C_11
REMARK                            x       y       z     vdW  Elec       q    Type
REMARK                         _______ _______ _______ _____ _____    ______ ____
ROOT
ATOM      1  N   UNL     1      45.634   5.952  10.780  0.00  0.00    +0.000 N 
ATOM      2  C   UNL     1      45.696   6.621  11.975  0.00  0.00    +0.000 C 
ATOM      3  O   UNL     1      44.841   6.487  12.846  0.00  0.00    +0.000 OA
ATOM      4  H   UNL     1      46.234   6.237  10.012  0.00  0.00    +0.000 HD
ENDROOT
BRANCH   2   5
ATOM      5  C   UNL     1      46.880   7.460  12.194  0.00  0.00    +0.000 A 
ATOM      6  C   UNL     1      48.108   6.859  12.436  0.00  0.00    +0.000 A 
ATOM      7  S   UNL     1      49.389   7.968  12.624  0.00  0.00    +0.000 S 
ATOM      8  C   UNL     1      48.339   9.293  12.439  0.00  0.00    +0.000 A 
ATOM      9  N   UNL     1      48.804  10.569  12.520  0.00  0.00    +0.000 NA
ATOM     10  C   UNL     1      47.895  11.477  12.397  0.00  0.00    +0.000 A 
ATOM     11  N   UNL     1      46.563  11.225  12.192  0.00  0.00    +0.000 N 
ATOM     12  C   UNL     1      46.053   9.955  12.070  0.00  0.00    +0.000 A 
ATOM     13  O   UNL     1      44.864   9.764  11.836  0.00  0.00    +0.000 OA
ATOM     14  C   UNL     1      47.033   8.896  12.217  0.00  0.00    +0.000 A 
ATOM     15  H   UNL     1      45.903  11.983  12.097  0.00  0.00    +0.000 HD
ENDBRANCH   2   5
BRANCH   1  16
ATOM     16  C   UNL     1      44.530   5.085  10.445  0.00  0.00    +0.000 C 
BRANCH  16  22
ATOM     17  C   UNL     1      46.914   3.578   6.269  0.00  0.00    +0.000 C 
ATOM     18  C   UNL     1      46.140   3.240   7.508  0.00  0.00    +0.000 A 
ATOM     19  C   UNL     1      45.867   1.910   7.845  0.00  0.00    +0.000 A 
ATOM     20  C   UNL     1      45.151   1.610   9.005  0.00  0.00    +0.000 A 
ATOM     21  C   UNL     1      44.706   2.634   9.841  0.00  0.00    +0.000 A 
ATOM     22  C   UNL     1      44.973   3.973   9.527  0.00  0.00    +0.000 A 
ATOM     23  C   UNL     1      45.691   4.264   8.355  0.00  0.00    +0.000 A 
ENDBRANCH  16  22
ENDBRANCH   1  16
TORSDOF 3
ENDMDL
