MODEL 1
REMARK VINA RESULT:    -7.359      0.000      0.000
REMARK INTER + INTRA:          -9.183
REMARK INTER:                  -8.650
REMARK INTRA:                  -0.533
REMARK UNBOUND:                -0.533
REMARK  Name = 
REMARK  3 active torsions:
REMARK  status: ('A' for Active; 'I' for Inactive)
REMARK    1  A    between atoms: C_3  and  N_4
REMARK    2  A    between atoms: N_4  and  C_5
REMARK    3  A    between atoms: C_5  and  C_6
REMARK                            x       y       z     vdW  Elec       q    Type
REMARK                         _______ _______ _______ _____ _____    ______ ____
ROOT
ATOM      1  C   UNL     1      44.878   4.538  10.584  0.00  0.00    +0.000 A 
ATOM      2  C   UNL     1      44.676   3.497  11.485  0.00  0.00    +0.000 A 
ATOM      3  C   UNL     1      45.283   3.588  12.726  0.00  0.00    +0.000 A 
ATOM      4  N   UNL     1      46.058   4.626  13.119  0.00  0.00    +0.000 NA
ATOM      5  C   UNL     1      46.239   5.659  12.269  0.00  0.00    +0.000 A 
ATOM      6  N   UNL     1      47.109   6.666  12.610  0.00  0.00    +0.000 N 
ATOM      7  C   UNL     1      46.937   8.052  12.162  0.00  0.00    +0.000 C 
ATOM      8  C   UNL     1      48.328   8.669  11.947  0.00  0.00    +0.000 C 
ATOM      9  O   UNL     1      49.134   8.590  13.136  0.00  0.00    +0.000 OA
ATOM     10  C   UNL     1      49.278   7.220  13.562  0.00  0.00    +0.000 C 
ATOM     11  C   UNL     1      47.912   6.562  13.838  0.00  0.00    +0.000 C 
ATOM     12  C   UNL     1      45.641   5.632  11.008  0.00  0.00    +0.000 A 
ENDROOT
BRANCH   1  13
ATOM     13  C   UNL     1      44.380   4.487   9.160  0.00  0.00    +0.000 C 
BRANCH  13  14
ATOM     14  N   UNL     1      44.428   3.136   8.634  0.00  0.00    +0.000 N 
ATOM     15  H   UNL     1      43.943   2.449   9.207  0.00  0.00    +0.000 HD
BRANCH  14  18
ATOM     16  C   UNL     1      47.607   2.757   6.746  0.00  0.00    +0.000 A 
ATOM     17  C   UNL     1      46.493   3.378   7.297  0.00  0.00    +0.000 A 
ATOM     18  C   UNL     1      45.613   2.632   8.084  0.00  0.00    +0.000 A 
ATOM     19  C   UNL     1      45.889   1.270   8.228  0.00  0.00    +0.000 A 
ATOM     20  C   UNL     1      47.018   0.731   7.628  0.00  0.00    +0.000 A 
ATOM     21  N   UNL     1      47.892   1.449   6.895  0.00  0.00    +0.000 NA
ENDBRANCH  14  18
ENDBRANCH  13  14
ENDBRANCH   1  13
TORSDOF 3
ENDMDL
MODEL 2
REMARK VINA RESULT:    -7.004      1.301      1.878
REMARK INTER + INTRA:          -8.766
REMARK INTER:                  -8.191
REMARK INTRA:                  -0.574
REMARK UNBOUND:                -0.533
REMARK  Name = 
REMARK  3 active torsions:
REMARK  status: ('A' for Active; 'I' for Inactive)
REMARK    1  A    between atoms: C_3  and  N_4
REMARK    2  A    between atoms: N_4  and  C_5
REMARK    3  A    between atoms: C_5  and  C_6
REMARK                            x       y       z     vdW  Elec       q    Type
REMARK                         _______ _______ _______ _____ _____    ______ ____
ROOT
ATOM      1  C   UNL     1      44.674   4.631  11.860  0.00  0.00    +0.000 A 
ATOM      2  C   UNL     1      45.376   3.658  12.564  0.00  0.00    +0.000 A 
ATOM      3  C   UNL     1      46.423   4.071  13.371  0.00  0.00    +0.000 A 
ATOM      4  N   UNL     1      46.804   5.362  13.520  0.00  0.00    +0.000 NA
ATOM      5  C   UNL     1      46.114   6.322  12.869  0.00  0.00    +0.000 A 
ATOM      6  N   UNL     1      46.555   7.621  12.923  0.00  0.00    +0.000 N 
ATOM      7  C   UNL     1      45.650   8.773  12.845  0.00  0.00    +0.000 C 
ATOM      8  C   UNL     1      46.375   9.911  12.108  0.00  0.00    +0.000 C 
ATOM      9  O   UNL     1      47.617  10.252  12.747  0.00  0.00    +0.000 OA
ATOM     10  C   UNL     1      48.483   9.102  12.824  0.00  0.00    +0.000 C 
ATOM     11  C   UNL     1      47.824   7.942  13.595  0.00  0.00    +0.000 C 
ATOM     12  C   UNL     1      45.039   5.969  12.051  0.00  0.00    +0.000 A 
ENDROOT
BRANCH   1  13
ATOM     13  C   UNL     1      43.606   4.290  10.850  0.00  0.00    +0.000 C 
BRANCH  13  14
ATOM     14  N   UNL     1      44.048   4.582   9.499  0.00  0.00    +0.000 N 
ATOM     15  H   UNL     1      43.320   4.954   8.894  0.00  0.00    +0.000 HD
BRANCH  14  18
ATOM     16  C   UNL     1      45.887   1.551   8.384  0.00  0.00    +0.000 A 
ATOM     17  C   UNL     1      44.952   2.324   9.062  0.00  0.00    +0.000 A 
ATOM     18  C   UNL     1      44.902   3.699   8.827  0.00  0.00    +0.000 A 
ATOM     19  C   UNL     1      45.847   4.228   7.944  0.00  0.00    +0.000 A 
ATOM     20  C   UNL     1      46.755   3.382   7.324  0.00  0.00    +0.000 A 
ATOM     21  N   UNL     1      46.790   2.049   7.517  0.00  0.00    +0.000 NA
ENDBRANCH  14  18
ENDBRANCH  13  14
ENDBRANCH   1  13
TORSDOF 3
ENDMDL
MODEL 3
REMARK VINA RESULT:    -6.528      2.906      4.077
REMARK INTER + INTRA:          -8.205
REMARK INTER:                  -7.737
REMARK INTRA:                  -0.469
REMARK UNBOUND:                -0.533
REMARK  Name = 
REMARK  3 active torsions:
REMARK  status: ('A' for Active; 'I' for Inactive)
REMARK    1  A    between atoms: C_3  and  N_4
REMARK    2  A    between atoms: N_4  and  C_5
REMARK    3  A    between atoms: C_5  and  C_6
REMARK                            x       y       z     vdW  Elec       q    Type
REMARK                         _______ _______ _______ _____ _____    ______ ____
ROOT
ATOM      1  C   UNL     1      45.717   5.071  12.797  0.00  0.00    +0.000 A 
ATOM      2  C   UNL     1      46.346   6.190  12.261  0.00  0.00    +0.000 A 
ATOM      3  C   UNL     1      47.427   6.717  12.949  0.00  0.00    +0.000 A 
ATOM      4  N   UNL     1      47.909   6.211  14.108  0.00  0.00    +0.000 NA
ATOM      5  C   UNL     1      47.331   5.108  14.626  0.00  0.00    +0.000 A 
ATOM      6  N   UNL     1      47.737   4.648  15.854  0.00  0.00    +0.000 N 
ATOM      7  C   UNL     1      47.698   3.229  16.227  0.00  0.00    +0.000 C 
ATOM      8  C   UNL     1      47.378   3.130  17.726  0.00  0.00    +0.000 C 
ATOM      9  O   UNL     1      48.326   3.863  18.522  0.00  0.00    +0.000 OA
ATOM     10  C   UNL     1      48.355   5.249  18.130  0.00  0.00    +0.000 C 
ATOM     11  C   UNL     1      48.717   5.413  16.640  0.00  0.00    +0.000 C 
ATOM     12  C   UNL     1      46.246   4.521  13.971  0.00  0.00    +0.000 A 
ENDROOT
BRANCH   1  13
ATOM     13  C   UNL     1      44.453   4.492  12.211  0.00  0.00    +0.000 C 
BRANCH  13  14
ATOM     14  N   UNL     1      44.309   4.852  10.812  0.00  0.00    +0.000 N 
ATOM     15  H   UNL     1      43.391   5.218  10.569  0.00  0.00    +0.000 HD
BRANCH  14  18
ATOM     16  C   UNL     1      45.409   1.915   8.818  0.00  0.00    +0.000 A 
ATOM     17  C   UNL     1      44.790   2.634   9.833  0.00  0.00    +0.000 A 
ATOM     18  C   UNL     1      44.839   4.029   9.811  0.00  0.00    +0.000 A 
ATOM     19  C   UNL     1      45.565   4.624   8.775  0.00  0.00    +0.000 A 
ATOM     20  C   UNL     1      46.165   3.825   7.812  0.00  0.00    +0.000 A 
ATOM     21  N   UNL     1      46.095   2.479   7.805  0.00  0.00    +0.000 NA
ENDBRANCH  14  18
ENDBRANCH  13  14
ENDBRANCH   1  13
TORSDOF 3
ENDMDL
MODEL 4
REMARK VINA RESULT:    -6.251      2.637      4.090
REMARK INTER + INTRA:          -7.880
REMARK INTER:                  -7.412
REMARK INTRA:                  -0.468
REMARK UNBOUND:                -0.533
REMARK  Name = 
REMARK  3 active torsions:
REMARK  status: ('A' for Active; 'I' for Inactive)
REMARK    1  A    between atoms: C_3  and  N_4
REMARK    2  A    between atoms: N_4  and  C_5
REMARK    3  A    between atoms: C_5  and  C_6
REMARK                            x       y       z     vdW  Elec       q    Type
REMARK                         _______ _______ _______ _____ _____    ______ ____
ROOT
ATOM      1  C   UNL     1      46.604   6.371  12.404  0.00  0.00    +0.000 A 
ATOM      2  C   UNL     1      47.642   7.104  11.841  0.00  0.00    +0.000 A 
ATOM      3  C   UNL     1      48.803   7.258  12.581  0.00  0.00    +0.000 A 
ATOM      4  N   UNL     1      48.990   6.738  13.816  0.00  0.00    +0.000 NA
ATOM      5  C   UNL     1      48.005   5.997  14.366  0.00  0.00    +0.000 A 
ATOM      6  N   UNL     1      48.136   5.555  15.659  0.00  0.00    +0.000 N 
ATOM      7  C   UNL     1      47.535   4.305  16.139  0.00  0.00    +0.000 C 
ATOM      8  C   UNL     1      47.120   4.498  17.606  0.00  0.00    +0.000 C 
ATOM      9  O   UNL     1      48.231   4.903  18.424  0.00  0.00    +0.000 OA
ATOM     10  C   UNL     1      48.812   6.125  17.926  0.00  0.00    +0.000 C 
ATOM     11  C   UNL     1      49.290   5.976  16.468  0.00  0.00    +0.000 C 
ATOM     12  C   UNL     1      46.816   5.794  13.662  0.00  0.00    +0.000 A 
ENDROOT
BRANCH   1  13
ATOM     13  C   UNL     1      45.248   6.249  11.752  0.00  0.00    +0.000 C 
BRANCH  13  14
ATOM     14  N   UNL     1      45.370   6.047  10.320  0.00  0.00    +0.000 N 
ATOM     15  H   UNL     1      44.907   6.758   9.759  0.00  0.00    +0.000 HD
BRANCH  14  18
ATOM     16  C   UNL     1      45.357   3.141   8.003  0.00  0.00    +0.000 A 
ATOM     17  C   UNL     1      45.592   4.431   8.463  0.00  0.00    +0.000 A 
ATOM     18  C   UNL     1      45.241   4.765   9.772  0.00  0.00    +0.000 A 
ATOM     19  C   UNL     1      44.619   3.774  10.536  0.00  0.00    +0.000 A 
ATOM     20  C   UNL     1      44.411   2.516   9.989  0.00  0.00    +0.000 A 
ATOM     21  N   UNL     1      44.776   2.173   8.738  0.00  0.00    +0.000 NA
ENDBRANCH  14  18
ENDBRANCH  13  14
ENDBRANCH   1  13
TORSDOF 3
ENDMDL
MODEL 5
REMARK VINA RESULT:    -6.103      1.714      2.467
REMARK INTER + INTRA:          -7.706
REMARK INTER:                  -7.345
REMARK INTRA:                  -0.362
REMARK UNBOUND:                -0.533
REMARK  Name = 
REMARK  3 active torsions:
REMARK  status: ('A' for Active; 'I' for Inactive)
REMARK    1  A    between atoms: C_3  and  N_4
REMARK    2  A    between atoms: N_4  and  C_5
REMARK    3  A    between atoms: C_5  and  C_6
REMARK                            x       y       z     vdW  Elec       q    Type
REMARK                         _______ _______ _______ _____ _____    ______ ____
ROOT
ATOM      1  C   UNL     1      46.068   5.813  12.080  0.00  0.00    +0.000 A 
ATOM      2  C   UNL     1      45.926   4.588  12.721  0.00  0.00    +0.000 A 
ATOM      3  C   UNL     1      46.674   4.364  13.865  0.00  0.00    +0.000 A 
ATOM      4  N   UNL     1      47.532   5.265  14.399  0.00  0.00    +0.000 NA
ATOM      5  C   UNL     1      47.659   6.471  13.808  0.00  0.00    +0.000 A 
ATOM      6  N   UNL     1      48.604   7.353  14.273  0.00  0.00    +0.000 N 
ATOM      7  C   UNL     1      48.441   8.809  14.195  0.00  0.00    +0.000 C 
ATOM      8  C   UNL     1      49.824   9.441  13.969  0.00  0.00    +0.000 C 
ATOM      9  O   UNL     1      50.757   9.063  14.997  0.00  0.00    +0.000 OA
ATOM     10  C   UNL     1      50.890   7.629  15.061  0.00  0.00    +0.000 C 
ATOM     11  C   UNL     1      49.537   6.942  15.333  0.00  0.00    +0.000 C 
ATOM     12  C   UNL     1      46.921   6.761  12.659  0.00  0.00    +0.000 A 
ENDROOT
BRANCH   1  13
ATOM     13  C   UNL     1      45.410   6.119  10.757  0.00  0.00    +0.000 C 
BRANCH  13  14
ATOM     14  N   UNL     1      44.546   5.031  10.336  0.00  0.00    +0.000 N 
ATOM     15  H   UNL     1      43.970   4.646  11.080  0.00  0.00    +0.000 HD
BRANCH  14  18
ATOM     16  C   UNL     1      45.444   1.781   8.773  0.00  0.00    +0.000 A 
ATOM     17  C   UNL     1      44.870   2.673   9.671  0.00  0.00    +0.000 A 
ATOM     18  C   UNL     1      45.023   4.045   9.464  0.00  0.00    +0.000 A 
ATOM     19  C   UNL     1      45.802   4.441   8.373  0.00  0.00    +0.000 A 
ATOM     20  C   UNL     1      46.350   3.478   7.537  0.00  0.00    +0.000 A 
ATOM     21  N   UNL     1      46.180   2.152   7.708  0.00  0.00    +0.000 NA
ENDBRANCH  14  18
ENDBRANCH  13  14
ENDBRANCH   1  13
TORSDOF 3
ENDMDL
MODEL 6
REMARK VINA RESULT:    -5.893      3.512      7.236
REMARK INTER + INTRA:          -7.459
REMARK INTER:                  -6.978
REMARK INTRA:                  -0.481
REMARK UNBOUND:                -0.533
REMARK  Name = 
REMARK  3 active torsions:
REMARK  status: ('A' for Active; 'I' for Inactive)
REMARK    1  A    between atoms: C_3  and  N_4
REMARK    2  A    between atoms: N_4  and  C_5
REMARK    3  A    between atoms: C_5  and  C_6
REMARK                            x       y       z     vdW  Elec       q    Type
REMARK                         _______ _______ _______ _____ _____    ______ ____
ROOT
ATOM      1  C   UNL     1      47.754   6.618  13.732  0.00  0.00    +0.000 A 
ATOM      2  C   UNL     1      48.313   7.376  12.708  0.00  0.00    +0.000 A 
ATOM      3  C   UNL     1      47.747   7.279  11.447  0.00  0.00    +0.000 A 
ATOM      4  N   UNL     1      46.683   6.496  11.150  0.00  0.00    +0.000 NA
ATOM      5  C   UNL     1      46.109   5.778  12.138  0.00  0.00    +0.000 A 
ATOM      6  N   UNL     1      45.101   4.898  11.832  0.00  0.00    +0.000 N 
ATOM      7  C   UNL     1      44.019   4.569  12.767  0.00  0.00    +0.000 C 
ATOM      8  C   UNL     1      43.624   3.099  12.554  0.00  0.00    +0.000 C 
ATOM      9  O   UNL     1      43.245   2.842  11.190  0.00  0.00    +0.000 OA
ATOM     10  C   UNL     1      44.318   3.185  10.291  0.00  0.00    +0.000 C 
ATOM     11  C   UNL     1      44.727   4.665  10.428  0.00  0.00    +0.000 C 
ATOM     12  C   UNL     1      46.626   5.845  13.433  0.00  0.00    +0.000 A 
ENDROOT
BRANCH   1  13
ATOM     13  C   UNL     1      48.365   6.538  15.109  0.00  0.00    +0.000 C 
BRANCH  13  14
ATOM     14  N   UNL     1      47.688   5.549  15.928  0.00  0.00    +0.000 N 
ATOM     15  H   UNL     1      46.980   5.937  16.547  0.00  0.00    +0.000 HD
BRANCH  14  18
ATOM     16  C   UNL     1      50.212   3.591  17.826  0.00  0.00    +0.000 A 
ATOM     17  C   UNL     1      49.530   4.699  17.340  0.00  0.00    +0.000 A 
ATOM     18  C   UNL     1      48.411   4.510  16.526  0.00  0.00    +0.000 A 
ATOM     19  C   UNL     1      48.073   3.193  16.206  0.00  0.00    +0.000 A 
ATOM     20  C   UNL     1      48.822   2.147  16.726  0.00  0.00    +0.000 A 
ATOM     21  N   UNL     1      49.882   2.316  17.540  0.00  0.00    +0.000 NA
ENDBRANCH  14  18
ENDBRANCH  13  14
ENDBRANCH   1  13
TORSDOF 3
ENDMDL
MODEL 7
REMARK VINA RESULT:    -5.859      3.683      7.399
REMARK INTER + INTRA:          -7.419
REMARK INTER:                  -6.957
REMARK INTRA:                  -0.462
REMARK UNBOUND:                -0.533
REMARK  Name = 
REMARK  3 active torsions:
REMARK  status: ('A' for Active; 'I' for Inactive)
REMARK    1  A    between atoms: C_3  and  N_4
REMARK    2  A    between atoms: N_4  and  C_5
REMARK    3  A    between atoms: C_5  and  C_6
REMARK                            x       y       z     vdW  Elec       q    Type
REMARK                         _______ _______ _______ _____ _____    ______ ____
ROOT
ATOM      1  C   UNL     1      47.462   7.207  13.640  0.00  0.00    +0.000 A 
ATOM      2  C   UNL     1      47.303   8.453  13.044  0.00  0.00    +0.000 A 
ATOM      3  C   UNL     1      46.243   8.623  12.170  0.00  0.00    +0.000 A 
ATOM      4  N   UNL     1      45.350   7.654  11.861  0.00  0.00    +0.000 NA
ATOM      5  C   UNL     1      45.470   6.447  12.454  0.00  0.00    +0.000 A 
ATOM      6  N   UNL     1      44.640   5.423  12.069  0.00  0.00    +0.000 N 
ATOM      7  C   UNL     1      44.221   4.353  12.981  0.00  0.00    +0.000 C 
ATOM      8  C   UNL     1      44.082   3.053  12.172  0.00  0.00    +0.000 C 
ATOM      9  O   UNL     1      43.166   3.206  11.073  0.00  0.00    +0.000 OA
ATOM     10  C   UNL     1      43.592   4.271  10.200  0.00  0.00    +0.000 C 
ATOM     11  C   UNL     1      43.705   5.613  10.950  0.00  0.00    +0.000 C 
ATOM     12  C   UNL     1      46.511   6.219  13.356  0.00  0.00    +0.000 A 
ENDROOT
BRANCH   1  13
ATOM     13  C   UNL     1      48.652   6.864  14.502  0.00  0.00    +0.000 C 
BRANCH  13  14
ATOM     14  N   UNL     1      48.256   6.643  15.881  0.00  0.00    +0.000 N 
ATOM     15  H   UNL     1      48.514   7.398  16.513  0.00  0.00    +0.000 HD
BRANCH  14  18
ATOM     16  C   UNL     1      47.661   3.184  17.102  0.00  0.00    +0.000 A 
ATOM     17  C   UNL     1      47.434   4.378  16.427  0.00  0.00    +0.000 A 
ATOM     18  C   UNL     1      48.404   5.381  16.467  0.00  0.00    +0.000 A 
ATOM     19  C   UNL     1      49.543   5.134  17.239  0.00  0.00    +0.000 A 
ATOM     20  C   UNL     1      49.677   3.917  17.892  0.00  0.00    +0.000 A 
ATOM     21  N   UNL     1      48.763   2.929  17.833  0.00  0.00    +0.000 NA
ENDBRANCH  14  18
ENDBRANCH  13  14
ENDBRANCH   1  13
TORSDOF 3
ENDMDL
MODEL 8
REMARK VINA RESULT:    -5.625      3.462      6.889
REMARK INTER + INTRA:          -7.145
REMARK INTER:                  -6.661
REMARK INTRA:                  -0.484
REMARK UNBOUND:                -0.533
REMARK  Name = 
REMARK  3 active torsions:
REMARK  status: ('A' for Active; 'I' for Inactive)
REMARK    1  A    between atoms: C_3  and  N_4
REMARK    2  A    between atoms: N_4  and  C_5
REMARK    3  A    between atoms: C_5  and  C_6
REMARK                            x       y       z     vdW  Elec       q    Type
REMARK                         _______ _______ _______ _____ _____    ______ ____
ROOT
ATOM      1  C   UNL     1      47.266   7.738  13.067  0.00  0.00    +0.000 A 
ATOM      2  C   UNL     1      48.005   7.188  14.109  0.00  0.00    +0.000 A 
ATOM      3  C   UNL     1      47.866   5.833  14.359  0.00  0.00    +0.000 A 
ATOM      4  N   UNL     1      47.058   5.010  13.650  0.00  0.00    +0.000 NA
ATOM      5  C   UNL     1      46.357   5.519  12.616  0.00  0.00    +0.000 A 
ATOM      6  N   UNL     1      45.453   4.722  11.959  0.00  0.00    +0.000 N 
ATOM      7  C   UNL     1      45.130   4.889  10.537  0.00  0.00    +0.000 C 
ATOM      8  C   UNL     1      43.649   4.535  10.331  0.00  0.00    +0.000 C 
ATOM      9  O   UNL     1      43.350   3.206  10.793  0.00  0.00    +0.000 OA
ATOM     10  C   UNL     1      43.687   3.064  12.187  0.00  0.00    +0.000 C 
ATOM     11  C   UNL     1      45.176   3.363  12.447  0.00  0.00    +0.000 C 
ATOM     12  C   UNL     1      46.466   6.876  12.306  0.00  0.00    +0.000 A 
ENDROOT
BRANCH   1  13
ATOM     13  C   UNL     1      47.232   9.220  12.788  0.00  0.00    +0.000 C 
BRANCH  13  14
ATOM     14  N   UNL     1      45.871   9.725  12.789  0.00  0.00    +0.000 N 
ATOM     15  H   UNL     1      45.207   9.127  13.275  0.00  0.00    +0.000 HD
BRANCH  14  18
ATOM     16  C   UNL     1      45.154  11.981   9.924  0.00  0.00    +0.000 A 
ATOM     17  C   UNL     1      45.813  11.463  11.032  0.00  0.00    +0.000 A 
ATOM     18  C   UNL     1      45.329  10.299  11.633  0.00  0.00    +0.000 A 
ATOM     19  C   UNL     1      44.161   9.747  11.100  0.00  0.00    +0.000 A 
ATOM     20  C   UNL     1      43.561  10.342  10.000  0.00  0.00    +0.000 A 
ATOM     21  N   UNL     1      44.038  11.446   9.392  0.00  0.00    +0.000 NA
ENDBRANCH  14  18
ENDBRANCH  13  14
ENDBRANCH   1  13
TORSDOF 3
ENDMDL
MODEL 9
REMARK VINA RESULT:    -5.506      4.225      8.639
REMARK INTER + INTRA:          -7.005
REMARK INTER:                  -6.753
REMARK INTRA:                  -0.252
REMARK UNBOUND:                -0.533
REMARK  Name = 
REMARK  3 active torsions:
REMARK  status: ('A' for Active; 'I' for Inactive)
REMARK    1  A    between atoms: C_3  and  N_4
REMARK    2  A    between atoms: N_4  and  C_5
REMARK    3  A    between atoms: C_5  and  C_6
REMARK                            x       y       z     vdW  Elec       q    Type
REMARK                         _______ _______ _______ _____ _____    ______ ____
ROOT
ATOM      1  C   UNL     1      47.588   5.509  14.665  0.00  0.00    +0.000 A 
ATOM      2  C   UNL     1      48.282   6.497  13.974  0.00  0.00    +0.000 A 
ATOM      3  C   UNL     1      47.866   6.804  12.690  0.00  0.00    +0.000 A 
ATOM      4  N   UNL     1      46.824   6.206  12.066  0.00  0.00    +0.000 NA
ATOM      5  C   UNL     1      46.120   5.268  12.732  0.00  0.00    +0.000 A 
ATOM      6  N   UNL     1      45.132   4.576  12.076  0.00  0.00    +0.000 N 
ATOM      7  C   UNL     1      43.940   4.054  12.754  0.00  0.00    +0.000 C 
ATOM      8  C   UNL     1      43.534   2.735  12.076  0.00  0.00    +0.000 C 
ATOM      9  O   UNL     1      43.311   2.908  10.665  0.00  0.00    +0.000 OA
ATOM     10  C   UNL     1      44.491   3.433  10.025  0.00  0.00    +0.000 C 
ATOM     11  C   UNL     1      44.919   4.783  10.635  0.00  0.00    +0.000 C 
ATOM     12  C   UNL     1      46.483   4.924  14.035  0.00  0.00    +0.000 A 
ENDROOT
BRANCH   1  13
ATOM     13  C   UNL     1      48.031   4.997  16.013  0.00  0.00    +0.000 C 
BRANCH  13  14
ATOM     14  N   UNL     1      48.158   6.079  16.971  0.00  0.00    +0.000 N 
ATOM     15  H   UNL     1      48.803   6.812  16.687  0.00  0.00    +0.000 HD
BRANCH  14  18
ATOM     16  C   UNL     1      48.900   4.532  20.268  0.00  0.00    +0.000 A 
ATOM     17  C   UNL     1      48.956   4.751  18.897  0.00  0.00    +0.000 A 
ATOM     18  C   UNL     1      48.229   5.806  18.343  0.00  0.00    +0.000 A 
ATOM     19  C   UNL     1      47.437   6.559  19.214  0.00  0.00    +0.000 A 
ATOM     20  C   UNL     1      47.431   6.259  20.568  0.00  0.00    +0.000 A 
ATOM     21  N   UNL     1      48.155   5.264  21.119  0.00  0.00    +0.000 NA
ENDBRANCH  14  18
ENDBRANCH  13  14
ENDBRANCH   1  13
TORSDOF 3
ENDMDL
