MODEL 1
REMARK VINA RESULT:    -8.612      0.000      0.000
REMARK INTER + INTRA:         -13.143
REMARK INTER:                 -12.137
REMARK INTRA:                  -1.006
REMARK UNBOUND:                -1.006
REMARK  Name = 
REMARK  8 active torsions:
REMARK  status: ('A' for Active; 'I' for Inactive)
REMARK    1  A    between atoms: C_1  and  C_2
REMARK    2  A    between atoms: C_2  and  N_3
REMARK    3  A    between atoms: C_2  and  C_11
REMARK    4  A    between atoms: N_3  and  C_4
REMARK    5  A    between atoms: C_4  and  C_5
REMARK    6  A    between atoms: C_14  and  C_15
REMARK    7  A    between atoms: C_15  and  N_16
REMARK    8  A    between atoms: C_17  and  C_19
REMARK                            x       y       z     vdW  Elec       q    Type
REMARK                         _______ _______ _______ _____ _____    ______ ____
ROOT
ATOM      1  C   UNL     1      45.446   4.487  12.047  0.00  0.00    +0.000 A 
ATOM      2  C   UNL     1      45.838   5.747  11.560  0.00  0.00    +0.000 A 
ATOM      3  C   UNL     1      46.779   6.523  12.238  0.00  0.00    +0.000 A 
ATOM      4  C   UNL     1      47.388   6.036  13.397  0.00  0.00    +0.000 A 
ATOM      5  C   UNL     1      46.979   4.800  13.910  0.00  0.00    +0.000 A 
ATOM      6  C   UNL     1      46.012   4.038  13.248  0.00  0.00    +0.000 A 
ENDROOT
BRANCH   1   8
ATOM      7  C   UNL     1      43.631   4.546  10.265  0.00  0.00    +0.000 C 
ATOM      8  C   UNL     1      44.411   3.682  11.268  0.00  0.00    +0.000 C 
BRANCH   8   9
ATOM      9  N   UNL     1      44.988   2.534  10.545  0.00  0.00    +0.000 NA
ATOM     10  H   UNL     1      44.751   1.675  11.039  0.00  0.00    +0.000 HD
BRANCH   9  11
ATOM     11  C   UNL     1      44.520   2.441   9.163  0.00  0.00    +0.000 C 
BRANCH  11  12
ATOM     12  C   UNL     1      45.649   2.347   8.176  0.00  0.00    +0.000 A 
ATOM     13  C   UNL     1      45.980   3.403   7.323  0.00  0.00    +0.000 A 
ATOM     14  C   UNL     1      47.007   3.242   6.399  0.00  0.00    +0.000 A 
ATOM     15  C   UNL     1      47.674   2.029   6.356  0.00  0.00    +0.000 A 
ATOM     16  N   UNL     1      47.384   0.985   7.162  0.00  0.00    +0.000 NA
ATOM     17  C   UNL     1      46.384   1.170   8.052  0.00  0.00    +0.000 A 
ENDBRANCH  11  12
ENDBRANCH   9  11
ENDBRANCH   8   9
ENDBRANCH   1   8
BRANCH   4  18
ATOM     18  C   UNL     1      48.465   6.826  14.087  0.00  0.00    +0.000 C 
BRANCH  18  19
ATOM     19  N   UNL     1      48.206   6.965  15.495  0.00  0.00    +0.000 N 
ATOM     20  C   UNL     1      49.063   6.486  16.449  0.00  0.00    +0.000 C 
ATOM     21  O   UNL     1      50.102   5.896  16.160  0.00  0.00    +0.000 OA
ATOM     22  H   UNL     1      47.276   7.272  15.761  0.00  0.00    +0.000 HD
BRANCH  20  23
ATOM     23  C   UNL     1      48.717   6.784  17.844  0.00  0.00    +0.000 A 
ATOM     24  C   UNL     1      48.435   8.094  18.208  0.00  0.00    +0.000 A 
ATOM     25  S   UNL     1      48.009   8.273  19.848  0.00  0.00    +0.000 S 
ATOM     26  C   UNL     1      48.231   6.612  20.143  0.00  0.00    +0.000 A 
ATOM     27  N   UNL     1      48.050   6.095  21.386  0.00  0.00    +0.000 NA
ATOM     28  C   UNL     1      48.286   4.828  21.477  0.00  0.00    +0.000 A 
ATOM     29  N   UNL     1      48.674   4.032  20.435  0.00  0.00    +0.000 N 
ATOM     30  C   UNL     1      48.809   4.496  19.150  0.00  0.00    +0.000 A 
ATOM     31  O   UNL     1      49.044   3.730  18.219  0.00  0.00    +0.000 OA
ATOM     32  C   UNL     1      48.598   5.926  18.999  0.00  0.00    +0.000 A 
ATOM     33  H   UNL     1      48.819   3.041  20.570  0.00  0.00    +0.000 HD
ENDBRANCH  20  23
ENDBRANCH  18  19
ENDBRANCH   4  18
TORSDOF 7
ENDMDL
MODEL 2
REMARK VINA RESULT:    -8.264      1.515      2.261
REMARK INTER + INTRA:         -12.652
REMARK INTER:                 -11.529
REMARK INTRA:                  -1.123
REMARK UNBOUND:                -1.006
REMARK  Name = 
REMARK  8 active torsions:
REMARK  status: ('A' for Active; 'I' for Inactive)
REMARK    1  A    between atoms: C_1  and  C_2
REMARK    2  A    between atoms: C_2  and  N_3
REMARK    3  A    between atoms: C_2  and  C_11
REMARK    4  A    between atoms: N_3  and  C_4
REMARK    5  A    between atoms: C_4  and  C_5
REMARK    6  A    between atoms: C_14  and  C_15
REMARK    7  A    between atoms: C_15  and  N_16
REMARK    8  A    between atoms: C_17  and  C_19
REMARK                            x       y       z     vdW  Elec       q    Type
REMARK                         _______ _______ _______ _____ _____    ______ ____
ROOT
ATOM      1  C   UNL     1      45.761   5.441  11.773  0.00  0.00    +0.000 A 
ATOM      2  C   UNL     1      46.023   4.823  13.009  0.00  0.00    +0.000 A 
ATOM      3  C   UNL     1      47.021   5.300  13.859  0.00  0.00    +0.000 A 
ATOM      4  C   UNL     1      47.753   6.439  13.514  0.00  0.00    +0.000 A 
ATOM      5  C   UNL     1      47.526   7.039  12.271  0.00  0.00    +0.000 A 
ATOM      6  C   UNL     1      46.549   6.541  11.405  0.00  0.00    +0.000 A 
ENDROOT
BRANCH   1   8
ATOM      7  C   UNL     1      43.285   5.491  11.189  0.00  0.00    +0.000 C 
ATOM      8  C   UNL     1      44.660   4.877  10.881  0.00  0.00    +0.000 C 
BRANCH   8   9
ATOM      9  N   UNL     1      44.932   5.043   9.442  0.00  0.00    +0.000 NA
ATOM     10  H   UNL     1      45.938   5.123   9.300  0.00  0.00    +0.000 HD
BRANCH   9  11
ATOM     11  C   UNL     1      44.417   3.938   8.636  0.00  0.00    +0.000 C 
BRANCH  11  12
ATOM     12  C   UNL     1      45.510   3.057   8.098  0.00  0.00    +0.000 A 
ATOM     13  C   UNL     1      46.426   3.509   7.145  0.00  0.00    +0.000 A 
ATOM     14  C   UNL     1      47.389   2.635   6.651  0.00  0.00    +0.000 A 
ATOM     15  C   UNL     1      47.407   1.335   7.126  0.00  0.00    +0.000 A 
ATOM     16  N   UNL     1      46.540   0.859   8.045  0.00  0.00    +0.000 NA
ATOM     17  C   UNL     1      45.617   1.731   8.510  0.00  0.00    +0.000 A 
ENDBRANCH  11  12
ENDBRANCH   9  11
ENDBRANCH   8   9
ENDBRANCH   1   8
BRANCH   4  18
ATOM     18  C   UNL     1      48.771   7.011  14.460  0.00  0.00    +0.000 C 
BRANCH  18  19
ATOM     19  N   UNL     1      48.476   6.677  15.828  0.00  0.00    +0.000 N 
ATOM     20  C   UNL     1      49.413   6.141  16.671  0.00  0.00    +0.000 C 
ATOM     21  O   UNL     1      50.561   5.901  16.306  0.00  0.00    +0.000 OA
ATOM     22  H   UNL     1      47.498   6.683  16.100  0.00  0.00    +0.000 HD
BRANCH  20  23
ATOM     23  C   UNL     1      48.996   5.940  18.063  0.00  0.00    +0.000 A 
ATOM     24  C   UNL     1      49.167   4.693  18.650  0.00  0.00    +0.000 A 
ATOM     25  S   UNL     1      48.677   4.629  20.281  0.00  0.00    +0.000 S 
ATOM     26  C   UNL     1      48.176   6.254  20.250  0.00  0.00    +0.000 A 
ATOM     27  N   UNL     1      47.622   6.834  21.347  0.00  0.00    +0.000 NA
ATOM     28  C   UNL     1      47.254   8.061  21.175  0.00  0.00    +0.000 A 
ATOM     29  N   UNL     1      47.401   8.760  20.010  0.00  0.00    +0.000 N 
ATOM     30  C   UNL     1      48.010   8.239  18.896  0.00  0.00    +0.000 A 
ATOM     31  O   UNL     1      48.231   8.933  17.907  0.00  0.00    +0.000 OA
ATOM     32  C   UNL     1      48.405   6.846  19.020  0.00  0.00    +0.000 A 
ATOM     33  H   UNL     1      47.112   9.728  19.950  0.00  0.00    +0.000 HD
ENDBRANCH  20  23
ENDBRANCH  18  19
ENDBRANCH   4  18
TORSDOF 7
ENDMDL
MODEL 3
REMARK VINA RESULT:    -7.825      1.600      2.074
REMARK INTER + INTRA:         -12.033
REMARK INTER:                 -10.814
REMARK INTRA:                  -1.220
REMARK UNBOUND:                -1.006
REMARK  Name = 
REMARK  8 active torsions:
REMARK  status: ('A' for Active; 'I' for Inactive)
REMARK    1  A    between atoms: C_1  and  C_2
REMARK    2  A    between atoms: C_2  and  N_3
REMARK    3  A    between atoms: C_2  and  C_11
REMARK    4  A    between atoms: N_3  and  C_4
REMARK    5  A    between atoms: C_4  and  C_5
REMARK    6  A    between atoms: C_14  and  C_15
REMARK    7  A    between atoms: C_15  and  N_16
REMARK    8  A    between atoms: C_17  and  C_19
REMARK                            x       y       z     vdW  Elec       q    Type
REMARK                         _______ _______ _______ _____ _____    ______ ____
ROOT
ATOM      1  C   UNL     1      45.246   4.401  11.610  0.00  0.00    +0.000 A 
ATOM      2  C   UNL     1      45.603   5.403  10.690  0.00  0.00    +0.000 A 
ATOM      3  C   UNL     1      46.235   6.575  11.106  0.00  0.00    +0.000 A 
ATOM      4  C   UNL     1      46.570   6.753  12.451  0.00  0.00    +0.000 A 
ATOM      5  C   UNL     1      46.187   5.779  13.379  0.00  0.00    +0.000 A 
ATOM      6  C   UNL     1      45.524   4.621  12.966  0.00  0.00    +0.000 A 
ENDROOT
BRANCH   1   8
ATOM      7  C   UNL     1      43.096   3.040  11.578  0.00  0.00    +0.000 C 
ATOM      8  C   UNL     1      44.553   3.141  11.101  0.00  0.00    +0.000 C 
BRANCH   8   9
ATOM      9  N   UNL     1      44.573   3.016   9.633  0.00  0.00    +0.000 NA
ATOM     10  H   UNL     1      45.029   3.836   9.235  0.00  0.00    +0.000 HD
BRANCH   9  11
ATOM     11  C   UNL     1      45.261   1.810   9.175  0.00  0.00    +0.000 C 
BRANCH  11  12
ATOM     12  C   UNL     1      46.114   2.058   7.962  0.00  0.00    +0.000 A 
ATOM     13  C   UNL     1      46.011   3.230   7.209  0.00  0.00    +0.000 A 
ATOM     14  C   UNL     1      46.795   3.385   6.070  0.00  0.00    +0.000 A 
ATOM     15  C   UNL     1      47.659   2.361   5.719  0.00  0.00    +0.000 A 
ATOM     16  N   UNL     1      47.786   1.213   6.419  0.00  0.00    +0.000 NA
ATOM     17  C   UNL     1      47.015   1.092   7.522  0.00  0.00    +0.000 A 
ENDBRANCH  11  12
ENDBRANCH   9  11
ENDBRANCH   8   9
ENDBRANCH   1   8
BRANCH   4  18
ATOM     18  C   UNL     1      47.328   7.972  12.896  0.00  0.00    +0.000 C 
BRANCH  18  19
ATOM     19  N   UNL     1      47.587   7.953  14.311  0.00  0.00    +0.000 N 
ATOM     20  C   UNL     1      48.244   8.969  14.950  0.00  0.00    +0.000 C 
ATOM     21  O   UNL     1      48.664   9.957  14.352  0.00  0.00    +0.000 OA
ATOM     22  H   UNL     1      47.425   7.074  14.793  0.00  0.00    +0.000 HD
BRANCH  20  23
ATOM     23  C   UNL     1      48.353   8.858  16.410  0.00  0.00    +0.000 A 
ATOM     24  C   UNL     1      47.842   9.874  17.208  0.00  0.00    +0.000 A 
ATOM     25  S   UNL     1      48.005   9.580  18.878  0.00  0.00    +0.000 S 
ATOM     26  C   UNL     1      48.804   8.105  18.596  0.00  0.00    +0.000 A 
ATOM     27  N   UNL     1      49.248   7.344  19.631  0.00  0.00    +0.000 NA
ATOM     28  C   UNL     1      49.869   6.268  19.274  0.00  0.00    +0.000 A 
ATOM     29  N   UNL     1      50.074   5.881  17.979  0.00  0.00    +0.000 N 
ATOM     30  C   UNL     1      49.591   6.583  16.903  0.00  0.00    +0.000 A 
ATOM     31  O   UNL     1      49.691   6.145  15.760  0.00  0.00    +0.000 OA
ATOM     32  C   UNL     1      48.921   7.827  17.245  0.00  0.00    +0.000 A 
ATOM     33  H   UNL     1      50.548   5.013  17.770  0.00  0.00    +0.000 HD
ENDBRANCH  20  23
ENDBRANCH  18  19
ENDBRANCH   4  18
TORSDOF 7
ENDMDL
MODEL 4
REMARK VINA RESULT:    -7.650      3.127      3.923
REMARK INTER + INTRA:         -11.786
REMARK INTER:                 -10.662
REMARK INTRA:                  -1.124
REMARK UNBOUND:                -1.006
REMARK  Name = 
REMARK  8 active torsions:
REMARK  status: ('A' for Active; 'I' for Inactive)
REMARK    1  A    between atoms: C_1  and  C_2
REMARK    2  A    between atoms: C_2  and  N_3
REMARK    3  A    between atoms: C_2  and  C_11
REMARK    4  A    between atoms: N_3  and  C_4
REMARK    5  A    between atoms: C_4  and  C_5
REMARK    6  A    between atoms: C_14  and  C_15
REMARK    7  A    between atoms: C_15  and  N_16
REMARK    8  A    between atoms: C_17  and  C_19
REMARK                            x       y       z     vdW  Elec       q    Type
REMARK                         _______ _______ _______ _____ _____    ______ ____
ROOT
ATOM      1  C   UNL     1      45.062   4.653  11.656  0.00  0.00    +0.000 A 
ATOM      2  C   UNL     1      45.883   4.759  12.794  0.00  0.00    +0.000 A 
ATOM      3  C   UNL     1      46.320   6.000  13.257  0.00  0.00    +0.000 A 
ATOM      4  C   UNL     1      45.908   7.173  12.620  0.00  0.00    +0.000 A 
ATOM      5  C   UNL     1      45.122   7.078  11.466  0.00  0.00    +0.000 A 
ATOM      6  C   UNL     1      44.712   5.833  10.983  0.00  0.00    +0.000 A 
ENDROOT
BRANCH   1   8
ATOM      7  C   UNL     1      43.369   2.776  11.943  0.00  0.00    +0.000 C 
ATOM      8  C   UNL     1      44.615   3.272  11.191  0.00  0.00    +0.000 C 
BRANCH   8   9
ATOM      9  N   UNL     1      44.343   3.202   9.744  0.00  0.00    +0.000 NA
ATOM     10  H   UNL     1      44.809   3.981   9.280  0.00  0.00    +0.000 HD
BRANCH   9  11
ATOM     11  C   UNL     1      44.787   1.946   9.143  0.00  0.00    +0.000 C 
BRANCH  11  12
ATOM     12  C   UNL     1      45.880   2.144   8.131  0.00  0.00    +0.000 A 
ATOM     13  C   UNL     1      46.066   3.360   7.468  0.00  0.00    +0.000 A 
ATOM     14  C   UNL     1      47.067   3.471   6.508  0.00  0.00    +0.000 A 
ATOM     15  C   UNL     1      47.853   2.363   6.242  0.00  0.00    +0.000 A 
ATOM     16  N   UNL     1      47.705   1.171   6.859  0.00  0.00    +0.000 NA
ATOM     17  C   UNL     1      46.727   1.093   7.789  0.00  0.00    +0.000 A 
ENDBRANCH  11  12
ENDBRANCH   9  11
ENDBRANCH   8   9
ENDBRANCH   1   8
BRANCH   4  18
ATOM     18  C   UNL     1      46.304   8.519  13.161  0.00  0.00    +0.000 C 
BRANCH  18  19
ATOM     19  N   UNL     1      47.658   8.522  13.647  0.00  0.00    +0.000 N 
ATOM     20  C   UNL     1      48.736   8.622  12.810  0.00  0.00    +0.000 C 
ATOM     21  O   UNL     1      48.614   8.703  11.590  0.00  0.00    +0.000 OA
ATOM     22  H   UNL     1      47.796   8.265  14.619  0.00  0.00    +0.000 HD
BRANCH  20  23
ATOM     23  C   UNL     1      50.053   8.708  13.453  0.00  0.00    +0.000 A 
ATOM     24  C   UNL     1      50.978   9.633  12.984  0.00  0.00    +0.000 A 
ATOM     25  S   UNL     1      52.440   9.642  13.859  0.00  0.00    +0.000 S 
ATOM     26  C   UNL     1      51.909   8.380  14.867  0.00  0.00    +0.000 A 
ATOM     27  N   UNL     1      52.714   7.880  15.841  0.00  0.00    +0.000 NA
ATOM     28  C   UNL     1      52.199   6.901  16.509  0.00  0.00    +0.000 A 
ATOM     29  N   UNL     1      50.950   6.387  16.298  0.00  0.00    +0.000 N 
ATOM     30  C   UNL     1      50.077   6.899  15.370  0.00  0.00    +0.000 A 
ATOM     31  O   UNL     1      48.922   6.490  15.289  0.00  0.00    +0.000 OA
ATOM     32  C   UNL     1      50.622   7.975  14.559  0.00  0.00    +0.000 A 
ATOM     33  H   UNL     1      50.598   5.634  16.875  0.00  0.00    +0.000 HD
ENDBRANCH  20  23
ENDBRANCH  18  19
ENDBRANCH   4  18
TORSDOF 7
ENDMDL
MODEL 5
REMARK VINA RESULT:    -7.578      2.484      3.320
REMARK INTER + INTRA:         -11.684
REMARK INTER:                 -10.622
REMARK INTRA:                  -1.062
REMARK UNBOUND:                -1.006
REMARK  Name = 
REMARK  8 active torsions:
REMARK  status: ('A' for Active; 'I' for Inactive)
REMARK    1  A    between atoms: C_1  and  C_2
REMARK    2  A    between atoms: C_2  and  N_3
REMARK    3  A    between atoms: C_2  and  C_11
REMARK    4  A    between atoms: N_3  and  C_4
REMARK    5  A    between atoms: C_4  and  C_5
REMARK    6  A    between atoms: C_14  and  C_15
REMARK    7  A    between atoms: C_15  and  N_16
REMARK    8  A    between atoms: C_17  and  C_19
REMARK                            x       y       z     vdW  Elec       q    Type
REMARK                         _______ _______ _______ _____ _____    ______ ____
ROOT
ATOM      1  C   UNL     1      45.513   6.206  11.887  0.00  0.00    +0.000 A 
ATOM      2  C   UNL     1      45.079   7.534  12.057  0.00  0.00    +0.000 A 
ATOM      3  C   UNL     1      45.810   8.442  12.823  0.00  0.00    +0.000 A 
ATOM      4  C   UNL     1      47.022   8.057  13.402  0.00  0.00    +0.000 A 
ATOM      5  C   UNL     1      47.445   6.730  13.270  0.00  0.00    +0.000 A 
ATOM      6  C   UNL     1      46.695   5.812  12.530  0.00  0.00    +0.000 A 
ENDROOT
BRANCH   1   8
ATOM      7  C   UNL     1      43.177   5.603  11.079  0.00  0.00    +0.000 C 
ATOM      8  C   UNL     1      44.674   5.255  11.042  0.00  0.00    +0.000 C 
BRANCH   8   9
ATOM      9  N   UNL     1      45.103   5.193   9.633  0.00  0.00    +0.000 NA
ATOM     10  H   UNL     1      46.117   5.108   9.597  0.00  0.00    +0.000 HD
BRANCH   9  11
ATOM     11  C   UNL     1      44.499   4.079   8.905  0.00  0.00    +0.000 C 
BRANCH  11  12
ATOM     12  C   UNL     1      45.524   3.167   8.291  0.00  0.00    +0.000 A 
ATOM     13  C   UNL     1      46.448   3.618   7.345  0.00  0.00    +0.000 A 
ATOM     14  C   UNL     1      47.345   2.718   6.779  0.00  0.00    +0.000 A 
ATOM     15  C   UNL     1      47.291   1.393   7.178  0.00  0.00    +0.000 A 
ATOM     16  N   UNL     1      46.414   0.917   8.087  0.00  0.00    +0.000 NA
ATOM     17  C   UNL     1      45.557   1.814   8.623  0.00  0.00    +0.000 A 
ENDBRANCH  11  12
ENDBRANCH   9  11
ENDBRANCH   8   9
ENDBRANCH   1   8
BRANCH   4  18
ATOM     18  C   UNL     1      47.860   9.051  14.157  0.00  0.00    +0.000 C 
BRANCH  18  19
ATOM     19  N   UNL     1      47.608   8.996  15.572  0.00  0.00    +0.000 N 
ATOM     20  C   UNL     1      48.510   8.471  16.458  0.00  0.00    +0.000 C 
ATOM     21  O   UNL     1      49.588   8.003  16.096  0.00  0.00    +0.000 OA
ATOM     22  H   UNL     1      46.660   9.195  15.876  0.00  0.00    +0.000 HD
BRANCH  20  23
ATOM     23  C   UNL     1      48.159   8.568  17.879  0.00  0.00    +0.000 A 
ATOM     24  C   UNL     1      48.128   7.413  18.651  0.00  0.00    +0.000 A 
ATOM     25  S   UNL     1      47.746   7.694  20.288  0.00  0.00    +0.000 S 
ATOM     26  C   UNL     1      47.565   9.363  20.016  0.00  0.00    +0.000 A 
ATOM     27  N   UNL     1      47.208  10.199  21.026  0.00  0.00    +0.000 NA
ATOM     28  C   UNL     1      47.070  11.435  20.674  0.00  0.00    +0.000 A 
ATOM     29  N   UNL     1      47.269  11.909  19.407  0.00  0.00    +0.000 N 
ATOM     30  C   UNL     1      47.690  11.116  18.369  0.00  0.00    +0.000 A 
ATOM     31  O   UNL     1      47.971  11.596  17.274  0.00  0.00    +0.000 OA
ATOM     32  C   UNL     1      47.818   9.706  18.700  0.00  0.00    +0.000 A 
ATOM     33  H   UNL     1      47.167  12.894  19.204  0.00  0.00    +0.000 HD
ENDBRANCH  20  23
ENDBRANCH  18  19
ENDBRANCH   4  18
TORSDOF 7
ENDMDL
MODEL 6
REMARK VINA RESULT:    -7.478      3.646      8.673
REMARK INTER + INTRA:         -11.544
REMARK INTER:                  -9.820
REMARK INTRA:                  -1.723
REMARK UNBOUND:                -1.006
REMARK  Name = 
REMARK  8 active torsions:
REMARK  status: ('A' for Active; 'I' for Inactive)
REMARK    1  A    between atoms: C_1  and  C_2
REMARK    2  A    between atoms: C_2  and  N_3
REMARK    3  A    between atoms: C_2  and  C_11
REMARK    4  A    between atoms: N_3  and  C_4
REMARK    5  A    between atoms: C_4  and  C_5
REMARK    6  A    between atoms: C_14  and  C_15
REMARK    7  A    between atoms: C_15  and  N_16
REMARK    8  A    between atoms: C_17  and  C_19
REMARK                            x       y       z     vdW  Elec       q    Type
REMARK                         _______ _______ _______ _____ _____    ______ ____
ROOT
ATOM      1  C   UNL     1      48.818   7.891  16.207  0.00  0.00    +0.000 A 
ATOM      2  C   UNL     1      48.315   9.051  15.590  0.00  0.00    +0.000 A 
ATOM      3  C   UNL     1      48.199   9.140  14.203  0.00  0.00    +0.000 A 
ATOM      4  C   UNL     1      48.539   8.049  13.398  0.00  0.00    +0.000 A 
ATOM      5  C   UNL     1      49.074   6.904  13.999  0.00  0.00    +0.000 A 
ATOM      6  C   UNL     1      49.222   6.829  15.386  0.00  0.00    +0.000 A 
ENDROOT
BRANCH   1   8
ATOM      7  C   UNL     1      49.224   9.231  18.332  0.00  0.00    +0.000 C 
ATOM      8  C   UNL     1      48.927   7.849  17.728  0.00  0.00    +0.000 C 
BRANCH   8   9
ATOM      9  N   UNL     1      47.726   7.303  18.384  0.00  0.00    +0.000 NA
ATOM     10  H   UNL     1      47.029   7.083  17.674  0.00  0.00    +0.000 HD
BRANCH   9  11
ATOM     11  C   UNL     1      48.006   6.105  19.173  0.00  0.00    +0.000 C 
BRANCH  11  12
ATOM     12  C   UNL     1      48.175   4.878  18.320  0.00  0.00    +0.000 A 
ATOM     13  C   UNL     1      49.384   4.182  18.254  0.00  0.00    +0.000 A 
ATOM     14  C   UNL     1      49.496   3.079  17.413  0.00  0.00    +0.000 A 
ATOM     15  C   UNL     1      48.392   2.707  16.664  0.00  0.00    +0.000 A 
ATOM     16  N   UNL     1      47.208   3.354  16.698  0.00  0.00    +0.000 NA
ATOM     17  C   UNL     1      47.128   4.419  17.526  0.00  0.00    +0.000 A 
ENDBRANCH  11  12
ENDBRANCH   9  11
ENDBRANCH   8   9
ENDBRANCH   1   8
BRANCH   4  18
ATOM     18  C   UNL     1      48.337   8.103  11.909  0.00  0.00    +0.000 C 
BRANCH  18  19
ATOM     19  N   UNL     1      47.605   6.962  11.428  0.00  0.00    +0.000 N 
ATOM     20  C   UNL     1      46.237   6.920  11.417  0.00  0.00    +0.000 C 
ATOM     21  O   UNL     1      45.549   7.851  11.829  0.00  0.00    +0.000 OA
ATOM     22  H   UNL     1      48.137   6.113  11.264  0.00  0.00    +0.000 HD
BRANCH  20  23
ATOM     23  C   UNL     1      45.627   5.731  10.811  0.00  0.00    +0.000 A 
ATOM     24  C   UNL     1      45.778   5.511   9.448  0.00  0.00    +0.000 A 
ATOM     25  S   UNL     1      45.051   4.070   8.901  0.00  0.00    +0.000 S 
ATOM     26  C   UNL     1      44.469   3.709  10.458  0.00  0.00    +0.000 A 
ATOM     27  N   UNL     1      43.724   2.595  10.683  0.00  0.00    +0.000 NA
ATOM     28  C   UNL     1      43.316   2.462  11.902  0.00  0.00    +0.000 A 
ATOM     29  N   UNL     1      43.598   3.335  12.916  0.00  0.00    +0.000 N 
ATOM     30  C   UNL     1      44.397   4.439  12.752  0.00  0.00    +0.000 A 
ATOM     31  O   UNL     1      44.725   5.135  13.709  0.00  0.00    +0.000 OA
ATOM     32  C   UNL     1      44.847   4.661  11.388  0.00  0.00    +0.000 A 
ATOM     33  H   UNL     1      43.267   3.158  13.855  0.00  0.00    +0.000 HD
ENDBRANCH  20  23
ENDBRANCH  18  19
ENDBRANCH   4  18
TORSDOF 7
ENDMDL
MODEL 7
REMARK VINA RESULT:    -7.368      3.463      9.075
REMARK INTER + INTRA:         -11.389
REMARK INTER:                  -9.729
REMARK INTRA:                  -1.660
REMARK UNBOUND:                -1.006
REMARK  Name = 
REMARK  8 active torsions:
REMARK  status: ('A' for Active; 'I' for Inactive)
REMARK    1  A    between atoms: C_1  and  C_2
REMARK    2  A    between atoms: C_2  and  N_3
REMARK    3  A    between atoms: C_2  and  C_11
REMARK    4  A    between atoms: N_3  and  C_4
REMARK    5  A    between atoms: C_4  and  C_5
REMARK    6  A    between atoms: C_14  and  C_15
REMARK    7  A    between atoms: C_15  and  N_16
REMARK    8  A    between atoms: C_17  and  C_19
REMARK                            x       y       z     vdW  Elec       q    Type
REMARK                         _______ _______ _______ _____ _____    ______ ____
ROOT
ATOM      1  C   UNL     1      49.395   8.346  15.812  0.00  0.00    +0.000 A 
ATOM      2  C   UNL     1      48.240   9.021  15.375  0.00  0.00    +0.000 A 
ATOM      3  C   UNL     1      47.768   8.876  14.071  0.00  0.00    +0.000 A 
ATOM      4  C   UNL     1      48.413   8.013  13.181  0.00  0.00    +0.000 A 
ATOM      5  C   UNL     1      49.583   7.365  13.593  0.00  0.00    +0.000 A 
ATOM      6  C   UNL     1      50.074   7.538  14.890  0.00  0.00    +0.000 A 
ENDROOT
BRANCH   1   8
ATOM      7  C   UNL     1      48.922   9.439  18.060  0.00  0.00    +0.000 C 
ATOM      8  C   UNL     1      49.869   8.542  17.247  0.00  0.00    +0.000 C 
BRANCH   8   9
ATOM      9  N   UNL     1      50.055   7.277  17.979  0.00  0.00    +0.000 NA
ATOM     10  H   UNL     1      50.631   7.449  18.802  0.00  0.00    +0.000 HD
BRANCH   9  11
ATOM     11  C   UNL     1      48.790   6.670  18.393  0.00  0.00    +0.000 C 
BRANCH  11  12
ATOM     12  C   UNL     1      48.606   5.286  17.837  0.00  0.00    +0.000 A 
ATOM     13  C   UNL     1      47.350   4.678  17.761  0.00  0.00    +0.000 A 
ATOM     14  C   UNL     1      47.246   3.377  17.279  0.00  0.00    +0.000 A 
ATOM     15  C   UNL     1      48.403   2.724  16.886  0.00  0.00    +0.000 A 
ATOM     16  N   UNL     1      49.634   3.275  16.945  0.00  0.00    +0.000 NA
ATOM     17  C   UNL     1      49.704   4.541  17.415  0.00  0.00    +0.000 A 
ENDBRANCH  11  12
ENDBRANCH   9  11
ENDBRANCH   8   9
ENDBRANCH   1   8
BRANCH   4  18
ATOM     18  C   UNL     1      47.863   7.784  11.801  0.00  0.00    +0.000 C 
BRANCH  18  19
ATOM     19  N   UNL     1      47.090   6.573  11.728  0.00  0.00    +0.000 N 
ATOM     20  C   UNL     1      45.723   6.570  11.790  0.00  0.00    +0.000 C 
ATOM     21  O   UNL     1      45.071   7.603  11.923  0.00  0.00    +0.000 OA
ATOM     22  H   UNL     1      47.600   5.699  11.811  0.00  0.00    +0.000 HD
BRANCH  20  23
ATOM     23  C   UNL     1      45.065   5.271  11.607  0.00  0.00    +0.000 A 
ATOM     24  C   UNL     1      44.361   4.712  12.665  0.00  0.00    +0.000 A 
ATOM     25  S   UNL     1      43.619   3.226  12.285  0.00  0.00    +0.000 S 
ATOM     26  C   UNL     1      44.249   3.253  10.706  0.00  0.00    +0.000 A 
ATOM     27  N   UNL     1      44.006   2.233   9.841  0.00  0.00    +0.000 NA
ATOM     28  C   UNL     1      44.574   2.364   8.687  0.00  0.00    +0.000 A 
ATOM     29  N   UNL     1      45.350   3.427   8.319  0.00  0.00    +0.000 N 
ATOM     30  C   UNL     1      45.573   4.509   9.134  0.00  0.00    +0.000 A 
ATOM     31  O   UNL     1      46.177   5.498   8.729  0.00  0.00    +0.000 OA
ATOM     32  C   UNL     1      44.993   4.394  10.462  0.00  0.00    +0.000 A 
ATOM     33  H   UNL     1      45.746   3.479   7.390  0.00  0.00    +0.000 HD
ENDBRANCH  20  23
ENDBRANCH  18  19
ENDBRANCH   4  18
TORSDOF 7
ENDMDL
MODEL 8
REMARK VINA RESULT:    -7.164      3.765      8.644
REMARK INTER + INTRA:         -11.102
REMARK INTER:                  -9.034
REMARK INTRA:                  -2.068
REMARK UNBOUND:                -1.006
REMARK  Name = 
REMARK  8 active torsions:
REMARK  status: ('A' for Active; 'I' for Inactive)
REMARK    1  A    between atoms: C_1  and  C_2
REMARK    2  A    between atoms: C_2  and  N_3
REMARK    3  A    between atoms: C_2  and  C_11
REMARK    4  A    between atoms: N_3  and  C_4
REMARK    5  A    between atoms: C_4  and  C_5
REMARK    6  A    between atoms: C_14  and  C_15
REMARK    7  A    between atoms: C_15  and  N_16
REMARK    8  A    between atoms: C_17  and  C_19
REMARK                            x       y       z     vdW  Elec       q    Type
REMARK                         _______ _______ _______ _____ _____    ______ ____
ROOT
ATOM      1  C   UNL     1      49.965   6.784  18.536  0.00  0.00    +0.000 A 
ATOM      2  C   UNL     1      48.889   7.687  18.447  0.00  0.00    +0.000 A 
ATOM      3  C   UNL     1      48.488   8.214  17.219  0.00  0.00    +0.000 A 
ATOM      4  C   UNL     1      49.122   7.814  16.041  0.00  0.00    +0.000 A 
ATOM      5  C   UNL     1      50.216   6.945  16.121  0.00  0.00    +0.000 A 
ATOM      6  C   UNL     1      50.640   6.444  17.355  0.00  0.00    +0.000 A 
ENDROOT
BRANCH   1   8
ATOM      7  C   UNL     1      49.510   6.826  21.039  0.00  0.00    +0.000 C 
ATOM      8  C   UNL     1      50.365   6.241  19.903  0.00  0.00    +0.000 C 
BRANCH   8   9
ATOM      9  N   UNL     1      50.306   4.771  19.987  0.00  0.00    +0.000 NA
ATOM     10  H   UNL     1      50.720   4.470  20.869  0.00  0.00    +0.000 HD
BRANCH   9  11
ATOM     11  C   UNL     1      48.944   4.250  19.891  0.00  0.00    +0.000 C 
BRANCH  11  12
ATOM     12  C   UNL     1      48.595   3.800  18.500  0.00  0.00    +0.000 A 
ATOM     13  C   UNL     1      47.433   4.224  17.851  0.00  0.00    +0.000 A 
ATOM     14  C   UNL     1      47.140   3.738  16.581  0.00  0.00    +0.000 A 
ATOM     15  C   UNL     1      48.020   2.843  15.997  0.00  0.00    +0.000 A 
ATOM     16  N   UNL     1      49.152   2.407  16.590  0.00  0.00    +0.000 NA
ATOM     17  C   UNL     1      49.413   2.898  17.823  0.00  0.00    +0.000 A 
ENDBRANCH  11  12
ENDBRANCH   9  11
ENDBRANCH   8   9
ENDBRANCH   1   8
BRANCH   4  18
ATOM     18  C   UNL     1      48.642   8.309  14.705  0.00  0.00    +0.000 C 
BRANCH  18  19
ATOM     19  N   UNL     1      47.587   7.485  14.178  0.00  0.00    +0.000 N 
ATOM     20  C   UNL     1      47.820   6.490  13.267  0.00  0.00    +0.000 C 
ATOM     21  O   UNL     1      48.944   6.247  12.834  0.00  0.00    +0.000 OA
ATOM     22  H   UNL     1      46.635   7.783  14.367  0.00  0.00    +0.000 HD
BRANCH  20  23
ATOM     23  C   UNL     1      46.663   5.669  12.890  0.00  0.00    +0.000 A 
ATOM     24  C   UNL     1      46.718   4.294  13.075  0.00  0.00    +0.000 A 
ATOM     25  S   UNL     1      45.285   3.485  12.631  0.00  0.00    +0.000 S 
ATOM     26  C   UNL     1      44.554   4.938  12.133  0.00  0.00    +0.000 A 
ATOM     27  N   UNL     1      43.299   4.945  11.613  0.00  0.00    +0.000 NA
ATOM     28  C   UNL     1      42.881   6.110  11.242  0.00  0.00    +0.000 A 
ATOM     29  N   UNL     1      43.599   7.267  11.358  0.00  0.00    +0.000 N 
ATOM     30  C   UNL     1      44.844   7.321  11.934  0.00  0.00    +0.000 A 
ATOM     31  O   UNL     1      45.411   8.393  12.128  0.00  0.00    +0.000 OA
ATOM     32  C   UNL     1      45.383   6.030  12.329  0.00  0.00    +0.000 A 
ATOM     33  H   UNL     1      43.202   8.152  11.069  0.00  0.00    +0.000 HD
ENDBRANCH  20  23
ENDBRANCH  18  19
ENDBRANCH   4  18
TORSDOF 7
ENDMDL
MODEL 9
REMARK VINA RESULT:    -7.134      5.194      9.532
REMARK INTER + INTRA:         -11.060
REMARK INTER:                 -10.050
REMARK INTRA:                  -1.010
REMARK UNBOUND:                -1.006
REMARK  Name = 
REMARK  8 active torsions:
REMARK  status: ('A' for Active; 'I' for Inactive)
REMARK    1  A    between atoms: C_1  and  C_2
REMARK    2  A    between atoms: C_2  and  N_3
REMARK    3  A    between atoms: C_2  and  C_11
REMARK    4  A    between atoms: N_3  and  C_4
REMARK    5  A    between atoms: C_4  and  C_5
REMARK    6  A    between atoms: C_14  and  C_15
REMARK    7  A    between atoms: C_15  and  N_16
REMARK    8  A    between atoms: C_17  and  C_19
REMARK                            x       y       z     vdW  Elec       q    Type
REMARK                         _______ _______ _______ _____ _____    ______ ____
ROOT
ATOM      1  C   UNL     1      51.554   3.306  17.658  0.00  0.00    +0.000 A 
ATOM      2  C   UNL     1      50.841   4.516  17.743  0.00  0.00    +0.000 A 
ATOM      3  C   UNL     1      49.478   4.574  17.453  0.00  0.00    +0.000 A 
ATOM      4  C   UNL     1      48.781   3.411  17.117  0.00  0.00    +0.000 A 
ATOM      5  C   UNL     1      49.487   2.209  16.994  0.00  0.00    +0.000 A 
ATOM      6  C   UNL     1      50.859   2.158  17.252  0.00  0.00    +0.000 A 
ENDROOT
BRANCH   1   8
ATOM      7  C   UNL     1      53.313   3.273  19.496  0.00  0.00    +0.000 C 
ATOM      8  C   UNL     1      53.044   3.300  17.983  0.00  0.00    +0.000 C 
BRANCH   8   9
ATOM      9  N   UNL     1      53.772   2.180  17.361  0.00  0.00    +0.000 NA
ATOM     10  H   UNL     1      54.466   2.552  16.714  0.00  0.00    +0.000 HD
BRANCH   9  11
ATOM     11  C   UNL     1      54.436   1.321  18.339  0.00  0.00    +0.000 C 
BRANCH  11  12
ATOM     12  C   UNL     1      54.623  -0.085  17.841  0.00  0.00    +0.000 A 
ATOM     13  C   UNL     1      54.952  -0.364  16.512  0.00  0.00    +0.000 A 
ATOM     14  C   UNL     1      55.068  -1.687  16.097  0.00  0.00    +0.000 A 
ATOM     15  C   UNL     1      54.852  -2.691  17.026  0.00  0.00    +0.000 A 
ATOM     16  N   UNL     1      54.532  -2.463  18.318  0.00  0.00    +0.000 NA
ATOM     17  C   UNL     1      54.429  -1.169  18.693  0.00  0.00    +0.000 A 
ENDBRANCH  11  12
ENDBRANCH   9  11
ENDBRANCH   8   9
ENDBRANCH   1   8
BRANCH   4  18
ATOM     18  C   UNL     1      47.296   3.447  16.886  0.00  0.00    +0.000 C 
BRANCH  18  19
ATOM     19  N   UNL     1      46.932   4.428  15.900  0.00  0.00    +0.000 N 
ATOM     20  C   UNL     1      46.958   4.163  14.557  0.00  0.00    +0.000 C 
ATOM     21  O   UNL     1      47.305   3.072  14.111  0.00  0.00    +0.000 OA
ATOM     22  H   UNL     1      46.828   5.385  16.223  0.00  0.00    +0.000 HD
BRANCH  20  23
ATOM     23  C   UNL     1      46.470   5.228  13.673  0.00  0.00    +0.000 A 
ATOM     24  C   UNL     1      47.249   6.362  13.482  0.00  0.00    +0.000 A 
ATOM     25  S   UNL     1      46.569   7.486  12.397  0.00  0.00    +0.000 S 
ATOM     26  C   UNL     1      45.186   6.520  12.178  0.00  0.00    +0.000 A 
ATOM     27  N   UNL     1      44.173   6.927  11.369  0.00  0.00    +0.000 NA
ATOM     28  C   UNL     1      43.169   6.115  11.321  0.00  0.00    +0.000 A 
ATOM     29  N   UNL     1      43.094   4.929  11.998  0.00  0.00    +0.000 N 
ATOM     30  C   UNL     1      44.117   4.446  12.776  0.00  0.00    +0.000 A 
ATOM     31  O   UNL     1      44.064   3.325  13.274  0.00  0.00    +0.000 OA
ATOM     32  C   UNL     1      45.255   5.342  12.901  0.00  0.00    +0.000 A 
ATOM     33  H   UNL     1      42.287   4.328  11.897  0.00  0.00    +0.000 HD
ENDBRANCH  20  23
ENDBRANCH  18  19
ENDBRANCH   4  18
TORSDOF 7
ENDMDL
