MODEL 1
REMARK VINA RESULT:    -8.014      0.000      0.000
REMARK INTER + INTRA:         -12.527
REMARK INTER:                 -11.294
REMARK INTRA:                  -1.233
REMARK UNBOUND:                -1.233
REMARK  Name = 
REMARK  8 active torsions:
REMARK  status: ('A' for Active; 'I' for Inactive)
REMARK    1  A    between atoms: C_1  and  O_2
REMARK    2  A    between atoms: O_2  and  C_3
REMARK    3  A    between atoms: C_8  and  C_9
REMARK    4  A    between atoms: N_11  and  C_12
REMARK    5  A    between atoms: C_12  and  C_13
REMARK    6  A    between atoms: C_16  and  C_17
REMARK    7  A    between atoms: C_17  and  N_18
REMARK    8  A    between atoms: C_19  and  C_21
REMARK                            x       y       z     vdW  Elec       q    Type
REMARK                         _______ _______ _______ _____ _____    ______ ____
ROOT
ATOM      1  C   UNL     1      47.628   7.981  13.720  0.00  0.00    +0.000 A 
ATOM      2  C   UNL     1      46.332   8.505  13.621  0.00  0.00    +0.000 A 
ATOM      3  C   UNL     1      45.462   8.074  12.610  0.00  0.00    +0.000 A 
ATOM      4  C   UNL     1      45.859   7.089  11.694  0.00  0.00    +0.000 A 
ATOM      5  C   UNL     1      47.154   6.566  11.794  0.00  0.00    +0.000 A 
ATOM      6  C   UNL     1      48.015   7.005  12.801  0.00  0.00    +0.000 A 
ATOM      7  F   UNL     1      49.243   6.469  12.875  0.00  0.00    +0.000 F 
ENDROOT
BRANCH   1   8
ATOM      8  C   UNL     1      48.573   8.450  14.793  0.00  0.00    +0.000 C 
BRANCH   8  11
ATOM      9  C   UNL     1      49.451   6.727  16.349  0.00  0.00    +0.000 C 
ATOM     10  O   UNL     1      50.443   6.507  15.659  0.00  0.00    +0.000 OA
ATOM     11  N   UNL     1      48.493   7.642  15.985  0.00  0.00    +0.000 N 
ATOM     12  H   UNL     1      47.714   7.793  16.616  0.00  0.00    +0.000 HD
BRANCH   9  18
ATOM     13  C   UNL     1      48.889   4.646  17.782  0.00  0.00    +0.000 A 
ATOM     14  C   UNL     1      48.666   4.115  19.062  0.00  0.00    +0.000 A 
ATOM     15  C   UNL     1      48.836   4.897  20.206  0.00  0.00    +0.000 A 
ATOM     16  C   UNL     1      49.241   6.221  20.088  0.00  0.00    +0.000 A 
ATOM     17  C   UNL     1      49.449   6.770  18.823  0.00  0.00    +0.000 A 
ATOM     18  C   UNL     1      49.259   6.004  17.656  0.00  0.00    +0.000 A 
BRANCH  13  20
ATOM     19  C   UNL     1      48.803   2.485  16.750  0.00  0.00    +0.000 C 
ATOM     20  O   UNL     1      48.763   3.903  16.633  0.00  0.00    +0.000 OA
ENDBRANCH  13  20
ENDBRANCH   9  18
ENDBRANCH   8  11
ENDBRANCH   1   8
BRANCH   4  21
ATOM     21  C   UNL     1      44.917   6.606  10.619  0.00  0.00    +0.000 C 
BRANCH  21  22
ATOM     22  N   UNL     1      45.358   5.369  10.026  0.00  0.00    +0.000 N 
ATOM     23  C   UNL     1      44.495   4.315   9.848  0.00  0.00    +0.000 C 
ATOM     24  O   UNL     1      43.325   4.359  10.222  0.00  0.00    +0.000 OA
ATOM     25  H   UNL     1      46.322   5.312   9.708  0.00  0.00    +0.000 HD
BRANCH  23  26
ATOM     26  C   UNL     1      45.040   3.134   9.190  0.00  0.00    +0.000 A 
ATOM     27  C   UNL     1      44.598   1.848   9.448  0.00  0.00    +0.000 A 
ATOM     28  O   UNL     1      45.269   0.929   8.709  0.00  0.00    +0.000 OA
ATOM     29  C   UNL     1      46.169   1.605   7.945  0.00  0.00    +0.000 A 
ATOM     30  N   UNL     1      47.023   1.003   7.082  0.00  0.00    +0.000 NA
ATOM     31  C   UNL     1      47.800   1.832   6.465  0.00  0.00    +0.000 A 
ATOM     32  N   UNL     1      47.787   3.199   6.632  0.00  0.00    +0.000 N 
ATOM     33  C   UNL     1      46.925   3.842   7.493  0.00  0.00    +0.000 A 
ATOM     34  O   UNL     1      46.926   5.061   7.625  0.00  0.00    +0.000 OA
ATOM     35  C   UNL     1      46.057   2.958   8.210  0.00  0.00    +0.000 A 
ATOM     36  H   UNL     1      48.426   3.787   6.115  0.00  0.00    +0.000 HD
ENDBRANCH  23  26
ENDBRANCH  21  22
ENDBRANCH   4  21
TORSDOF 7
ENDMDL
MODEL 2
REMARK VINA RESULT:    -8.004      1.337      1.542
REMARK INTER + INTRA:         -12.512
REMARK INTER:                 -11.262
REMARK INTRA:                  -1.250
REMARK UNBOUND:                -1.233
REMARK  Name = 
REMARK  8 active torsions:
REMARK  status: ('A' for Active; 'I' for Inactive)
REMARK    1  A    between atoms: C_1  and  O_2
REMARK    2  A    between atoms: O_2  and  C_3
REMARK    3  A    between atoms: C_8  and  C_9
REMARK    4  A    between atoms: N_11  and  C_12
REMARK    5  A    between atoms: C_12  and  C_13
REMARK    6  A    between atoms: C_16  and  C_17
REMARK    7  A    between atoms: C_17  and  N_18
REMARK    8  A    between atoms: C_19  and  C_21
REMARK                            x       y       z     vdW  Elec       q    Type
REMARK                         _______ _______ _______ _____ _____    ______ ____
ROOT
ATOM      1  C   UNL     1      47.333   8.032  13.521  0.00  0.00    +0.000 A 
ATOM      2  C   UNL     1      46.119   8.663  13.218  0.00  0.00    +0.000 A 
ATOM      3  C   UNL     1      45.229   8.097  12.296  0.00  0.00    +0.000 A 
ATOM      4  C   UNL     1      45.520   6.872  11.676  0.00  0.00    +0.000 A 
ATOM      5  C   UNL     1      46.733   6.242  11.979  0.00  0.00    +0.000 A 
ATOM      6  C   UNL     1      47.616   6.816  12.896  0.00  0.00    +0.000 A 
ATOM      7  F   UNL     1      48.762   6.175  13.173  0.00  0.00    +0.000 F 
ENDROOT
BRANCH   1   8
ATOM      8  C   UNL     1      48.301   8.642  14.498  0.00  0.00    +0.000 C 
BRANCH   8  11
ATOM      9  C   UNL     1      48.508   8.807  16.966  0.00  0.00    +0.000 C 
ATOM     10  O   UNL     1      49.063   9.902  16.918  0.00  0.00    +0.000 OA
ATOM     11  N   UNL     1      48.125   8.128  15.835  0.00  0.00    +0.000 N 
ATOM     12  H   UNL     1      47.647   7.242  15.950  0.00  0.00    +0.000 HD
BRANCH   9  18
ATOM     13  C   UNL     1      48.268   6.784  18.562  0.00  0.00    +0.000 A 
ATOM     14  C   UNL     1      47.878   6.311  19.826  0.00  0.00    +0.000 A 
ATOM     15  C   UNL     1      47.458   7.191  20.825  0.00  0.00    +0.000 A 
ATOM     16  C   UNL     1      47.429   8.558  20.580  0.00  0.00    +0.000 A 
ATOM     17  C   UNL     1      47.796   9.042  19.324  0.00  0.00    +0.000 A 
ATOM     18  C   UNL     1      48.200   8.169  18.296  0.00  0.00    +0.000 A 
BRANCH  13  20
ATOM     19  C   UNL     1      47.896   4.852  17.194  0.00  0.00    +0.000 C 
ATOM     20  O   UNL     1      48.717   5.956  17.562  0.00  0.00    +0.000 OA
ENDBRANCH  13  20
ENDBRANCH   9  18
ENDBRANCH   8  11
ENDBRANCH   1   8
BRANCH   4  21
ATOM     21  C   UNL     1      44.554   6.249  10.701  0.00  0.00    +0.000 C 
BRANCH  21  22
ATOM     22  N   UNL     1      45.116   5.098  10.039  0.00  0.00    +0.000 N 
ATOM     23  C   UNL     1      44.404   3.930   9.910  0.00  0.00    +0.000 C 
ATOM     24  O   UNL     1      43.279   3.795  10.385  0.00  0.00    +0.000 OA
ATOM     25  H   UNL     1      46.046   5.189   9.637  0.00  0.00    +0.000 HD
BRANCH  23  26
ATOM     26  C   UNL     1      45.055   2.852   9.177  0.00  0.00    +0.000 A 
ATOM     27  C   UNL     1      44.734   1.516   9.344  0.00  0.00    +0.000 A 
ATOM     28  O   UNL     1      45.486   0.714   8.548  0.00  0.00    +0.000 OA
ATOM     29  C   UNL     1      46.319   1.521   7.837  0.00  0.00    +0.000 A 
ATOM     30  N   UNL     1      47.224   1.060   6.940  0.00  0.00    +0.000 NA
ATOM     31  C   UNL     1      47.922   1.996   6.385  0.00  0.00    +0.000 A 
ATOM     32  N   UNL     1      47.784   3.342   6.644  0.00  0.00    +0.000 N 
ATOM     33  C   UNL     1      46.867   3.844   7.542  0.00  0.00    +0.000 A 
ATOM     34  O   UNL     1      46.756   5.046   7.757  0.00  0.00    +0.000 OA
ATOM     35  C   UNL     1      46.084   2.836   8.192  0.00  0.00    +0.000 A 
ATOM     36  H   UNL     1      48.365   4.020   6.172  0.00  0.00    +0.000 HD
ENDBRANCH  23  26
ENDBRANCH  21  22
ENDBRANCH   4  21
TORSDOF 7
ENDMDL
MODEL 3
REMARK VINA RESULT:    -7.987      1.867      2.715
REMARK INTER + INTRA:         -12.489
REMARK INTER:                 -11.187
REMARK INTRA:                  -1.302
REMARK UNBOUND:                -1.233
REMARK  Name = 
REMARK  8 active torsions:
REMARK  status: ('A' for Active; 'I' for Inactive)
REMARK    1  A    between atoms: C_1  and  O_2
REMARK    2  A    between atoms: O_2  and  C_3
REMARK    3  A    between atoms: C_8  and  C_9
REMARK    4  A    between atoms: N_11  and  C_12
REMARK    5  A    between atoms: C_12  and  C_13
REMARK    6  A    between atoms: C_16  and  C_17
REMARK    7  A    between atoms: C_17  and  N_18
REMARK    8  A    between atoms: C_19  and  C_21
REMARK                            x       y       z     vdW  Elec       q    Type
REMARK                         _______ _______ _______ _____ _____    ______ ____
ROOT
ATOM      1  C   UNL     1      47.201   8.172  13.310  0.00  0.00    +0.000 A 
ATOM      2  C   UNL     1      45.981   8.761  12.951  0.00  0.00    +0.000 A 
ATOM      3  C   UNL     1      45.062   8.071  12.149  0.00  0.00    +0.000 A 
ATOM      4  C   UNL     1      45.329   6.765  11.713  0.00  0.00    +0.000 A 
ATOM      5  C   UNL     1      46.548   6.176  12.073  0.00  0.00    +0.000 A 
ATOM      6  C   UNL     1      47.460   6.874  12.867  0.00  0.00    +0.000 A 
ATOM      7  F   UNL     1      48.610   6.271  13.205  0.00  0.00    +0.000 F 
ENDROOT
BRANCH   1   8
ATOM      8  C   UNL     1      48.199   8.913  14.157  0.00  0.00    +0.000 C 
BRANCH   8  11
ATOM      9  C   UNL     1      48.513   8.189  16.511  0.00  0.00    +0.000 C 
ATOM     10  O   UNL     1      49.462   7.458  16.234  0.00  0.00    +0.000 OA
ATOM     11  N   UNL     1      47.841   8.911  15.555  0.00  0.00    +0.000 N 
ATOM     12  H   UNL     1      47.085   9.515  15.857  0.00  0.00    +0.000 HD
BRANCH   9  18
ATOM     13  C   UNL     1      47.682   9.558  18.543  0.00  0.00    +0.000 A 
ATOM     14  C   UNL     1      47.355   9.572  19.909  0.00  0.00    +0.000 A 
ATOM     15  C   UNL     1      47.368   8.398  20.663  0.00  0.00    +0.000 A 
ATOM     16  C   UNL     1      47.698   7.190  20.063  0.00  0.00    +0.000 A 
ATOM     17  C   UNL     1      48.044   7.161  18.712  0.00  0.00    +0.000 A 
ATOM     18  C   UNL     1      48.061   8.339  17.940  0.00  0.00    +0.000 A 
BRANCH  13  20
ATOM     19  C   UNL     1      47.327  11.923  18.381  0.00  0.00    +0.000 C 
ATOM     20  O   UNL     1      47.653  10.685  17.757  0.00  0.00    +0.000 OA
ENDBRANCH  13  20
ENDBRANCH   9  18
ENDBRANCH   8  11
ENDBRANCH   1   8
BRANCH   4  21
ATOM     21  C   UNL     1      44.331   6.011  10.870  0.00  0.00    +0.000 C 
BRANCH  21  22
ATOM     22  N   UNL     1      44.945   4.931  10.139  0.00  0.00    +0.000 N 
ATOM     23  C   UNL     1      44.329   3.708  10.022  0.00  0.00    +0.000 C 
ATOM     24  O   UNL     1      43.255   3.463  10.566  0.00  0.00    +0.000 OA
ATOM     25  H   UNL     1      45.833   5.113   9.680  0.00  0.00    +0.000 HD
BRANCH  23  26
ATOM     26  C   UNL     1      45.019   2.709   9.216  0.00  0.00    +0.000 A 
ATOM     27  C   UNL     1      44.767   1.351   9.308  0.00  0.00    +0.000 A 
ATOM     28  O   UNL     1      45.543   0.637   8.453  0.00  0.00    +0.000 OA
ATOM     29  C   UNL     1      46.324   1.525   7.781  0.00  0.00    +0.000 A 
ATOM     30  N   UNL     1      47.234   1.164   6.844  0.00  0.00    +0.000 NA
ATOM     31  C   UNL     1      47.875   2.166   6.336  0.00  0.00    +0.000 A 
ATOM     32  N   UNL     1      47.676   3.485   6.678  0.00  0.00    +0.000 N 
ATOM     33  C   UNL     1      46.751   3.886   7.618  0.00  0.00    +0.000 A 
ATOM     34  O   UNL     1      46.585   5.066   7.906  0.00  0.00    +0.000 OA
ATOM     35  C   UNL     1      46.030   2.804   8.217  0.00  0.00    +0.000 A 
ATOM     36  H   UNL     1      48.214   4.218   6.239  0.00  0.00    +0.000 HD
ENDBRANCH  23  26
ENDBRANCH  21  22
ENDBRANCH   4  21
TORSDOF 7
ENDMDL
MODEL 4
REMARK VINA RESULT:    -7.793      1.684      1.922
REMARK INTER + INTRA:         -12.216
REMARK INTER:                 -10.862
REMARK INTRA:                  -1.353
REMARK UNBOUND:                -1.233
REMARK  Name = 
REMARK  8 active torsions:
REMARK  status: ('A' for Active; 'I' for Inactive)
REMARK    1  A    between atoms: C_1  and  O_2
REMARK    2  A    between atoms: O_2  and  C_3
REMARK    3  A    between atoms: C_8  and  C_9
REMARK    4  A    between atoms: N_11  and  C_12
REMARK    5  A    between atoms: C_12  and  C_13
REMARK    6  A    between atoms: C_16  and  C_17
REMARK    7  A    between atoms: C_17  and  N_18
REMARK    8  A    between atoms: C_19  and  C_21
REMARK                            x       y       z     vdW  Elec       q    Type
REMARK                         _______ _______ _______ _____ _____    ______ ____
ROOT
ATOM      1  C   UNL     1      48.083   7.414  14.254  0.00  0.00    +0.000 A 
ATOM      2  C   UNL     1      47.690   6.082  14.071  0.00  0.00    +0.000 A 
ATOM      3  C   UNL     1      46.752   5.741  13.086  0.00  0.00    +0.000 A 
ATOM      4  C   UNL     1      46.209   6.722  12.243  0.00  0.00    +0.000 A 
ATOM      5  C   UNL     1      46.602   8.054  12.426  0.00  0.00    +0.000 A 
ATOM      6  C   UNL     1      47.533   8.384  13.414  0.00  0.00    +0.000 A 
ATOM      7  F   UNL     1      47.898   9.668  13.549  0.00  0.00    +0.000 F 
ENDROOT
BRANCH   1   8
ATOM      8  C   UNL     1      49.077   7.789  15.319  0.00  0.00    +0.000 C 
BRANCH   8  11
ATOM      9  C   UNL     1      50.307   6.499  17.047  0.00  0.00    +0.000 C 
ATOM     10  O   UNL     1      50.092   7.331  17.924  0.00  0.00    +0.000 OA
ATOM     11  N   UNL     1      49.862   6.661  15.757  0.00  0.00    +0.000 N 
ATOM     12  H   UNL     1      50.052   5.920  15.091  0.00  0.00    +0.000 HD
BRANCH   9  18
ATOM     13  C   UNL     1      50.529   3.930  17.270  0.00  0.00    +0.000 A 
ATOM     14  C   UNL     1      51.316   2.840  17.675  0.00  0.00    +0.000 A 
ATOM     15  C   UNL     1      52.620   3.026  18.137  0.00  0.00    +0.000 A 
ATOM     16  C   UNL     1      53.162   4.304  18.193  0.00  0.00    +0.000 A 
ATOM     17  C   UNL     1      52.388   5.399  17.812  0.00  0.00    +0.000 A 
ATOM     18  C   UNL     1      51.062   5.235  17.367  0.00  0.00    +0.000 A 
BRANCH  13  20
ATOM     19  C   UNL     1      48.378   2.891  17.458  0.00  0.00    +0.000 C 
ATOM     20  O   UNL     1      49.253   3.788  16.782  0.00  0.00    +0.000 OA
ENDBRANCH  13  20
ENDBRANCH   9  18
ENDBRANCH   8  11
ENDBRANCH   1   8
BRANCH   4  21
ATOM     21  C   UNL     1      45.218   6.356  11.167  0.00  0.00    +0.000 C 
BRANCH  21  22
ATOM     22  N   UNL     1      45.574   5.131  10.495  0.00  0.00    +0.000 N 
ATOM     23  C   UNL     1      44.616   4.319   9.938  0.00  0.00    +0.000 C 
ATOM     24  O   UNL     1      43.416   4.571  10.021  0.00  0.00    +0.000 OA
ATOM     25  H   UNL     1      46.561   4.904  10.413  0.00  0.00    +0.000 HD
BRANCH  23  26
ATOM     26  C   UNL     1      45.097   3.135   9.238  0.00  0.00    +0.000 A 
ATOM     27  C   UNL     1      44.628   1.857   9.493  0.00  0.00    +0.000 A 
ATOM     28  O   UNL     1      45.239   0.932   8.711  0.00  0.00    +0.000 OA
ATOM     29  C   UNL     1      46.128   1.595   7.923  0.00  0.00    +0.000 A 
ATOM     30  N   UNL     1      46.927   0.983   7.015  0.00  0.00    +0.000 NA
ATOM     31  C   UNL     1      47.704   1.799   6.380  0.00  0.00    +0.000 A 
ATOM     32  N   UNL     1      47.739   3.163   6.570  0.00  0.00    +0.000 N 
ATOM     33  C   UNL     1      46.933   3.816   7.477  0.00  0.00    +0.000 A 
ATOM     34  O   UNL     1      46.976   5.032   7.629  0.00  0.00    +0.000 OA
ATOM     35  C   UNL     1      46.068   2.945   8.214  0.00  0.00    +0.000 A 
ATOM     36  H   UNL     1      48.374   3.741   6.037  0.00  0.00    +0.000 HD
ENDBRANCH  23  26
ENDBRANCH  21  22
ENDBRANCH   4  21
TORSDOF 7
ENDMDL
MODEL 5
REMARK VINA RESULT:    -7.335      3.211      4.881
REMARK INTER + INTRA:         -11.570
REMARK INTER:                 -10.291
REMARK INTRA:                  -1.280
REMARK UNBOUND:                -1.233
REMARK  Name = 
REMARK  8 active torsions:
REMARK  status: ('A' for Active; 'I' for Inactive)
REMARK    1  A    between atoms: C_1  and  O_2
REMARK    2  A    between atoms: O_2  and  C_3
REMARK    3  A    between atoms: C_8  and  C_9
REMARK    4  A    between atoms: N_11  and  C_12
REMARK    5  A    between atoms: C_12  and  C_13
REMARK    6  A    between atoms: C_16  and  C_17
REMARK    7  A    between atoms: C_17  and  N_18
REMARK    8  A    between atoms: C_19  and  C_21
REMARK                            x       y       z     vdW  Elec       q    Type
REMARK                         _______ _______ _______ _____ _____    ______ ____
ROOT
ATOM      1  C   UNL     1      48.592   4.836  17.058  0.00  0.00    +0.000 A 
ATOM      2  C   UNL     1      49.257   6.056  16.880  0.00  0.00    +0.000 A 
ATOM      3  C   UNL     1      49.023   6.839  15.742  0.00  0.00    +0.000 A 
ATOM      4  C   UNL     1      48.096   6.434  14.770  0.00  0.00    +0.000 A 
ATOM      5  C   UNL     1      47.432   5.214  14.948  0.00  0.00    +0.000 A 
ATOM      6  C   UNL     1      47.676   4.438  16.083  0.00  0.00    +0.000 A 
ATOM      7  F   UNL     1      47.008   3.283  16.227  0.00  0.00    +0.000 F 
ENDROOT
BRANCH   1   8
ATOM      8  C   UNL     1      48.850   3.982  18.269  0.00  0.00    +0.000 C 
BRANCH   8  11
ATOM      9  C   UNL     1      50.693   2.506  17.499  0.00  0.00    +0.000 C 
ATOM     10  O   UNL     1      49.984   1.931  16.677  0.00  0.00    +0.000 OA
ATOM     11  N   UNL     1      50.209   3.498  18.318  0.00  0.00    +0.000 N 
ATOM     12  H   UNL     1      50.856   3.949  18.955  0.00  0.00    +0.000 HD
BRANCH   9  18
ATOM     13  C   UNL     1      53.202   3.091  17.747  0.00  0.00    +0.000 A 
ATOM     14  C   UNL     1      54.528   2.630  17.777  0.00  0.00    +0.000 A 
ATOM     15  C   UNL     1      54.817   1.266  17.720  0.00  0.00    +0.000 A 
ATOM     16  C   UNL     1      53.785   0.339  17.642  0.00  0.00    +0.000 A 
ATOM     17  C   UNL     1      52.463   0.780  17.593  0.00  0.00    +0.000 A 
ATOM     18  C   UNL     1      52.152   2.154  17.625  0.00  0.00    +0.000 A 
BRANCH  13  20
ATOM     19  C   UNL     1      53.931   5.361  17.987  0.00  0.00    +0.000 C 
ATOM     20  O   UNL     1      52.872   4.422  17.831  0.00  0.00    +0.000 OA
ENDBRANCH  13  20
ENDBRANCH   9  18
ENDBRANCH   8  11
ENDBRANCH   1   8
BRANCH   4  21
ATOM     21  C   UNL     1      47.825   7.286  13.556  0.00  0.00    +0.000 C 
BRANCH  21  22
ATOM     22  N   UNL     1      47.421   6.497  12.418  0.00  0.00    +0.000 N 
ATOM     23  C   UNL     1      46.101   6.400  12.049  0.00  0.00    +0.000 C 
ATOM     24  O   UNL     1      45.203   6.940  12.690  0.00  0.00    +0.000 OA
ATOM     25  H   UNL     1      48.149   6.043  11.873  0.00  0.00    +0.000 HD
BRANCH  23  26
ATOM     26  C   UNL     1      45.819   5.618  10.853  0.00  0.00    +0.000 A 
ATOM     27  C   UNL     1      46.147   6.039   9.575  0.00  0.00    +0.000 A 
ATOM     28  O   UNL     1      45.774   5.132   8.636  0.00  0.00    +0.000 OA
ATOM     29  C   UNL     1      45.191   4.092   9.291  0.00  0.00    +0.000 A 
ATOM     30  N   UNL     1      44.689   2.999   8.666  0.00  0.00    +0.000 NA
ATOM     31  C   UNL     1      44.170   2.135   9.476  0.00  0.00    +0.000 A 
ATOM     32  N   UNL     1      44.121   2.269  10.846  0.00  0.00    +0.000 N 
ATOM     33  C   UNL     1      44.632   3.361  11.513  0.00  0.00    +0.000 A 
ATOM     34  O   UNL     1      44.584   3.461  12.734  0.00  0.00    +0.000 OA
ATOM     35  C   UNL     1      45.203   4.351  10.649  0.00  0.00    +0.000 A 
ATOM     36  H   UNL     1      43.699   1.552  11.419  0.00  0.00    +0.000 HD
ENDBRANCH  23  26
ENDBRANCH  21  22
ENDBRANCH   4  21
TORSDOF 7
ENDMDL
MODEL 6
REMARK VINA RESULT:    -7.260      2.532      3.518
REMARK INTER + INTRA:         -11.463
REMARK INTER:                 -10.135
REMARK INTRA:                  -1.328
REMARK UNBOUND:                -1.233
REMARK  Name = 
REMARK  8 active torsions:
REMARK  status: ('A' for Active; 'I' for Inactive)
REMARK    1  A    between atoms: C_1  and  O_2
REMARK    2  A    between atoms: O_2  and  C_3
REMARK    3  A    between atoms: C_8  and  C_9
REMARK    4  A    between atoms: N_11  and  C_12
REMARK    5  A    between atoms: C_12  and  C_13
REMARK    6  A    between atoms: C_16  and  C_17
REMARK    7  A    between atoms: C_17  and  N_18
REMARK    8  A    between atoms: C_19  and  C_21
REMARK                            x       y       z     vdW  Elec       q    Type
REMARK                         _______ _______ _______ _____ _____    ______ ____
ROOT
ATOM      1  C   UNL     1      50.386   7.431  15.256  0.00  0.00    +0.000 A 
ATOM      2  C   UNL     1      49.052   7.027  15.402  0.00  0.00    +0.000 A 
ATOM      3  C   UNL     1      48.143   7.164  14.344  0.00  0.00    +0.000 A 
ATOM      4  C   UNL     1      48.555   7.681  13.107  0.00  0.00    +0.000 A 
ATOM      5  C   UNL     1      49.888   8.085  12.962  0.00  0.00    +0.000 A 
ATOM      6  C   UNL     1      50.785   7.950  14.023  0.00  0.00    +0.000 A 
ATOM      7  F   UNL     1      52.058   8.332  13.841  0.00  0.00    +0.000 F 
ENDROOT
BRANCH   1   8
ATOM      8  C   UNL     1      51.363   7.303  16.393  0.00  0.00    +0.000 C 
BRANCH   8  11
ATOM      9  C   UNL     1      51.254   5.151  17.626  0.00  0.00    +0.000 C 
ATOM     10  O   UNL     1      50.433   5.574  18.436  0.00  0.00    +0.000 OA
ATOM     11  N   UNL     1      51.763   5.935  16.619  0.00  0.00    +0.000 N 
ATOM     12  H   UNL     1      52.416   5.512  15.969  0.00  0.00    +0.000 HD
BRANCH   9  18
ATOM     13  C   UNL     1      50.988   2.607  17.228  0.00  0.00    +0.000 A 
ATOM     14  C   UNL     1      51.506   1.317  17.425  0.00  0.00    +0.000 A 
ATOM     15  C   UNL     1      52.742   1.124  18.043  0.00  0.00    +0.000 A 
ATOM     16  C   UNL     1      53.486   2.219  18.466  0.00  0.00    +0.000 A 
ATOM     17  C   UNL     1      52.978   3.507  18.295  0.00  0.00    +0.000 A 
ATOM     18  C   UNL     1      51.721   3.720  17.695  0.00  0.00    +0.000 A 
BRANCH  13  20
ATOM     19  C   UNL     1      48.597   2.700  17.361  0.00  0.00    +0.000 C 
ATOM     20  O   UNL     1      49.790   2.842  16.597  0.00  0.00    +0.000 OA
ENDBRANCH  13  20
ENDBRANCH   9  18
ENDBRANCH   8  11
ENDBRANCH   1   8
BRANCH   4  21
ATOM     21  C   UNL     1      47.585   7.808  11.960  0.00  0.00    +0.000 C 
BRANCH  21  22
ATOM     22  N   UNL     1      46.897   6.570  11.691  0.00  0.00    +0.000 N 
ATOM     23  C   UNL     1      45.541   6.451  11.881  0.00  0.00    +0.000 C 
ATOM     24  O   UNL     1      44.861   7.372  12.327  0.00  0.00    +0.000 OA
ATOM     25  H   UNL     1      47.441   5.795  11.319  0.00  0.00    +0.000 HD
BRANCH  23  26
ATOM     26  C   UNL     1      44.947   5.168  11.526  0.00  0.00    +0.000 A 
ATOM     27  C   UNL     1      44.180   4.417  12.401  0.00  0.00    +0.000 A 
ATOM     28  O   UNL     1      43.748   3.266  11.828  0.00  0.00    +0.000 OA
ATOM     29  C   UNL     1      44.230   3.243  10.556  0.00  0.00    +0.000 A 
ATOM     30  N   UNL     1      44.002   2.230   9.685  0.00  0.00    +0.000 NA
ATOM     31  C   UNL     1      44.561   2.405   8.532  0.00  0.00    +0.000 A 
ATOM     32  N   UNL     1      45.313   3.504   8.180  0.00  0.00    +0.000 N 
ATOM     33  C   UNL     1      45.554   4.555   9.038  0.00  0.00    +0.000 A 
ATOM     34  O   UNL     1      46.224   5.527   8.704  0.00  0.00    +0.000 OA
ATOM     35  C   UNL     1      44.966   4.392  10.333  0.00  0.00    +0.000 A 
ATOM     36  H   UNL     1      45.721   3.575   7.259  0.00  0.00    +0.000 HD
ENDBRANCH  23  26
ENDBRANCH  21  22
ENDBRANCH   4  21
TORSDOF 7
ENDMDL
MODEL 7
REMARK VINA RESULT:    -7.149      3.054      9.122
REMARK INTER + INTRA:         -11.308
REMARK INTER:                 -10.026
REMARK INTRA:                  -1.282
REMARK UNBOUND:                -1.233
REMARK  Name = 
REMARK  8 active torsions:
REMARK  status: ('A' for Active; 'I' for Inactive)
REMARK    1  A    between atoms: C_1  and  O_2
REMARK    2  A    between atoms: O_2  and  C_3
REMARK    3  A    between atoms: C_8  and  C_9
REMARK    4  A    between atoms: N_11  and  C_12
REMARK    5  A    between atoms: C_12  and  C_13
REMARK    6  A    between atoms: C_16  and  C_17
REMARK    7  A    between atoms: C_17  and  N_18
REMARK    8  A    between atoms: C_19  and  C_21
REMARK                            x       y       z     vdW  Elec       q    Type
REMARK                         _______ _______ _______ _____ _____    ______ ____
ROOT
ATOM      1  C   UNL     1      48.024   7.619  13.530  0.00  0.00    +0.000 A 
ATOM      2  C   UNL     1      48.097   6.343  14.105  0.00  0.00    +0.000 A 
ATOM      3  C   UNL     1      48.462   6.183  15.448  0.00  0.00    +0.000 A 
ATOM      4  C   UNL     1      48.735   7.298  16.255  0.00  0.00    +0.000 A 
ATOM      5  C   UNL     1      48.662   8.573  15.680  0.00  0.00    +0.000 A 
ATOM      6  C   UNL     1      48.302   8.722  14.339  0.00  0.00    +0.000 A 
ATOM      7  F   UNL     1      48.227   9.960  13.829  0.00  0.00    +0.000 F 
ENDROOT
BRANCH   1   8
ATOM      8  C   UNL     1      47.648   7.797  12.084  0.00  0.00    +0.000 C 
BRANCH   8  11
ATOM      9  C   UNL     1      45.722   6.508  11.195  0.00  0.00    +0.000 C 
ATOM     10  O   UNL     1      44.927   7.425  11.388  0.00  0.00    +0.000 OA
ATOM     11  N   UNL     1      47.052   6.609  11.523  0.00  0.00    +0.000 N 
ATOM     12  H   UNL     1      47.657   5.823  11.311  0.00  0.00    +0.000 HD
BRANCH   9  18
ATOM     13  C   UNL     1      44.586   4.183  11.233  0.00  0.00    +0.000 A 
ATOM     14  C   UNL     1      44.280   3.002  10.537  0.00  0.00    +0.000 A 
ATOM     15  C   UNL     1      44.603   2.859   9.187  0.00  0.00    +0.000 A 
ATOM     16  C   UNL     1      45.227   3.898   8.508  0.00  0.00    +0.000 A 
ATOM     17  C   UNL     1      45.555   5.070   9.188  0.00  0.00    +0.000 A 
ATOM     18  C   UNL     1      45.260   5.224  10.557  0.00  0.00    +0.000 A 
BRANCH  13  20
ATOM     19  C   UNL     1      42.964   4.886  12.852  0.00  0.00    +0.000 C 
ATOM     20  O   UNL     1      44.260   4.376  12.554  0.00  0.00    +0.000 OA
ENDBRANCH  13  20
ENDBRANCH   9  18
ENDBRANCH   8  11
ENDBRANCH   1   8
BRANCH   4  21
ATOM     21  C   UNL     1      49.106   7.131  17.707  0.00  0.00    +0.000 C 
BRANCH  21  22
ATOM     22  N   UNL     1      49.948   5.981  17.924  0.00  0.00    +0.000 N 
ATOM     23  C   UNL     1      51.308   6.049  17.740  0.00  0.00    +0.000 C 
ATOM     24  O   UNL     1      51.864   7.071  17.345  0.00  0.00    +0.000 OA
ATOM     25  H   UNL     1      49.509   5.126  18.253  0.00  0.00    +0.000 HD
BRANCH  23  26
ATOM     26  C   UNL     1      52.064   4.839  18.040  0.00  0.00    +0.000 A 
ATOM     27  C   UNL     1      53.319   4.851  18.624  0.00  0.00    +0.000 A 
ATOM     28  O   UNL     1      53.806   3.596  18.794  0.00  0.00    +0.000 OA
ATOM     29  C   UNL     1      52.868   2.732  18.320  0.00  0.00    +0.000 A 
ATOM     30  N   UNL     1      53.019   1.385  18.321  0.00  0.00    +0.000 NA
ATOM     31  C   UNL     1      52.011   0.753  17.815  0.00  0.00    +0.000 A 
ATOM     32  N   UNL     1      50.873   1.351  17.321  0.00  0.00    +0.000 N 
ATOM     33  C   UNL     1      50.684   2.716  17.315  0.00  0.00    +0.000 A 
ATOM     34  O   UNL     1      49.661   3.230  16.875  0.00  0.00    +0.000 OA
ATOM     35  C   UNL     1      51.786   3.455  17.853  0.00  0.00    +0.000 A 
ATOM     36  H   UNL     1      50.122   0.793  16.939  0.00  0.00    +0.000 HD
ENDBRANCH  23  26
ENDBRANCH  21  22
ENDBRANCH   4  21
TORSDOF 7
ENDMDL
MODEL 8
REMARK VINA RESULT:    -6.990      5.883     10.337
REMARK INTER + INTRA:         -11.084
REMARK INTER:                 -10.080
REMARK INTRA:                  -1.004
REMARK UNBOUND:                -1.233
REMARK  Name = 
REMARK  8 active torsions:
REMARK  status: ('A' for Active; 'I' for Inactive)
REMARK    1  A    between atoms: C_1  and  O_2
REMARK    2  A    between atoms: O_2  and  C_3
REMARK    3  A    between atoms: C_8  and  C_9
REMARK    4  A    between atoms: N_11  and  C_12
REMARK    5  A    between atoms: C_12  and  C_13
REMARK    6  A    between atoms: C_16  and  C_17
REMARK    7  A    between atoms: C_17  and  N_18
REMARK    8  A    between atoms: C_19  and  C_21
REMARK                            x       y       z     vdW  Elec       q    Type
REMARK                         _______ _______ _______ _____ _____    ______ ____
ROOT
ATOM      1  C   UNL     1      48.685   3.442  17.311  0.00  0.00    +0.000 A 
ATOM      2  C   UNL     1      49.281   2.215  16.989  0.00  0.00    +0.000 A 
ATOM      3  C   UNL     1      50.649   2.005  17.209  0.00  0.00    +0.000 A 
ATOM      4  C   UNL     1      51.445   3.007  17.784  0.00  0.00    +0.000 A 
ATOM      5  C   UNL     1      50.849   4.232  18.106  0.00  0.00    +0.000 A 
ATOM      6  C   UNL     1      49.486   4.434  17.877  0.00  0.00    +0.000 A 
ATOM      7  F   UNL     1      48.947   5.616  18.213  0.00  0.00    +0.000 F 
ENDROOT
BRANCH   1   8
ATOM      8  C   UNL     1      47.220   3.680  17.061  0.00  0.00    +0.000 C 
BRANCH   8  11
ATOM      9  C   UNL     1      47.023   4.273  14.659  0.00  0.00    +0.000 C 
ATOM     10  O   UNL     1      47.281   3.132  14.283  0.00  0.00    +0.000 OA
ATOM     11  N   UNL     1      46.993   4.617  15.988  0.00  0.00    +0.000 N 
ATOM     12  H   UNL     1      46.746   5.571  16.228  0.00  0.00    +0.000 HD
BRANCH   9  18
ATOM     13  C   UNL     1      45.504   5.429  12.911  0.00  0.00    +0.000 A 
ATOM     14  C   UNL     1      45.364   6.441  11.949  0.00  0.00    +0.000 A 
ATOM     15  C   UNL     1      46.373   7.384  11.743  0.00  0.00    +0.000 A 
ATOM     16  C   UNL     1      47.535   7.334  12.503  0.00  0.00    +0.000 A 
ATOM     17  C   UNL     1      47.699   6.323  13.450  0.00  0.00    +0.000 A 
ATOM     18  C   UNL     1      46.702   5.349  13.655  0.00  0.00    +0.000 A 
BRANCH  13  20
ATOM     19  C   UNL     1      44.280   3.502  12.180  0.00  0.00    +0.000 C 
ATOM     20  O   UNL     1      44.524   4.500  13.166  0.00  0.00    +0.000 OA
ENDBRANCH  13  20
ENDBRANCH   9  18
ENDBRANCH   8  11
ENDBRANCH   1   8
BRANCH   4  21
ATOM     21  C   UNL     1      52.912   2.776  18.044  0.00  0.00    +0.000 C 
BRANCH  21  22
ATOM     22  N   UNL     1      53.370   1.522  17.499  0.00  0.00    +0.000 N 
ATOM     23  C   UNL     1      54.124   0.651  18.248  0.00  0.00    +0.000 C 
ATOM     24  O   UNL     1      54.478   0.913  19.395  0.00  0.00    +0.000 OA
ATOM     25  H   UNL     1      53.086   1.284  16.552  0.00  0.00    +0.000 HD
BRANCH  23  26
ATOM     26  C   UNL     1      54.484  -0.608  17.609  0.00  0.00    +0.000 A 
ATOM     27  C   UNL     1      54.966  -0.693  16.314  0.00  0.00    +0.000 A 
ATOM     28  O   UNL     1      55.223  -1.977  15.957  0.00  0.00    +0.000 OA
ATOM     29  C   UNL     1      54.911  -2.762  17.023  0.00  0.00    +0.000 A 
ATOM     30  N   UNL     1      55.036  -4.112  17.023  0.00  0.00    +0.000 NA
ATOM     31  C   UNL     1      54.675  -4.662  18.136  0.00  0.00    +0.000 A 
ATOM     32  N   UNL     1      54.212  -3.980  19.240  0.00  0.00    +0.000 N 
ATOM     33  C   UNL     1      54.084  -2.609  19.275  0.00  0.00    +0.000 A 
ATOM     34  O   UNL     1      53.674  -2.018  20.269  0.00  0.00    +0.000 OA
ATOM     35  C   UNL     1      54.459  -1.960  18.055  0.00  0.00    +0.000 A 
ATOM     36  H   UNL     1      53.947  -4.476  20.078  0.00  0.00    +0.000 HD
ENDBRANCH  23  26
ENDBRANCH  21  22
ENDBRANCH   4  21
TORSDOF 7
ENDMDL
MODEL 9
REMARK VINA RESULT:    -6.934      3.426      4.704
REMARK INTER + INTRA:         -11.005
REMARK INTER:                  -9.629
REMARK INTRA:                  -1.376
REMARK UNBOUND:                -1.233
REMARK  Name = 
REMARK  8 active torsions:
REMARK  status: ('A' for Active; 'I' for Inactive)
REMARK    1  A    between atoms: C_1  and  O_2
REMARK    2  A    between atoms: O_2  and  C_3
REMARK    3  A    between atoms: C_8  and  C_9
REMARK    4  A    between atoms: N_11  and  C_12
REMARK    5  A    between atoms: C_12  and  C_13
REMARK    6  A    between atoms: C_16  and  C_17
REMARK    7  A    between atoms: C_17  and  N_18
REMARK    8  A    between atoms: C_19  and  C_21
REMARK                            x       y       z     vdW  Elec       q    Type
REMARK                         _______ _______ _______ _____ _____    ______ ____
ROOT
ATOM      1  C   UNL     1      49.903   7.472  15.892  0.00  0.00    +0.000 A 
ATOM      2  C   UNL     1      48.910   6.600  15.429  0.00  0.00    +0.000 A 
ATOM      3  C   UNL     1      48.285   6.818  14.194  0.00  0.00    +0.000 A 
ATOM      4  C   UNL     1      48.661   7.898  13.380  0.00  0.00    +0.000 A 
ATOM      5  C   UNL     1      49.654   8.769  13.844  0.00  0.00    +0.000 A 
ATOM      6  C   UNL     1      50.267   8.547  15.079  0.00  0.00    +0.000 A 
ATOM      7  F   UNL     1      51.226   9.394  15.482  0.00  0.00    +0.000 F 
ENDROOT
BRANCH   1   8
ATOM      8  C   UNL     1      50.566   7.254  17.225  0.00  0.00    +0.000 C 
BRANCH   8  11
ATOM      9  C   UNL     1      50.556   4.890  17.983  0.00  0.00    +0.000 C 
ATOM     10  O   UNL     1      49.473   5.002  18.551  0.00  0.00    +0.000 OA
ATOM     11  N   UNL     1      51.156   5.942  17.334  0.00  0.00    +0.000 N 
ATOM     12  H   UNL     1      52.037   5.771  16.863  0.00  0.00    +0.000 HD
BRANCH   9  18
ATOM     13  C   UNL     1      52.572   3.334  18.446  0.00  0.00    +0.000 A 
ATOM     14  C   UNL     1      53.149   2.064  18.288  0.00  0.00    +0.000 A 
ATOM     15  C   UNL     1      52.440   1.021  17.689  0.00  0.00    +0.000 A 
ATOM     16  C   UNL     1      51.140   1.229  17.246  0.00  0.00    +0.000 A 
ATOM     17  C   UNL     1      50.559   2.491  17.377  0.00  0.00    +0.000 A 
ATOM     18  C   UNL     1      51.266   3.562  17.957  0.00  0.00    +0.000 A 
BRANCH  13  20
ATOM     19  C   UNL     1      53.278   4.388  20.479  0.00  0.00    +0.000 C 
ATOM     20  O   UNL     1      53.223   4.379  19.056  0.00  0.00    +0.000 OA
ENDBRANCH  13  20
ENDBRANCH   9  18
ENDBRANCH   8  11
ENDBRANCH   1   8
BRANCH   4  21
ATOM     21  C   UNL     1      48.007   8.122  12.040  0.00  0.00    +0.000 C 
BRANCH  21  22
ATOM     22  N   UNL     1      46.933   7.191  11.797  0.00  0.00    +0.000 N 
ATOM     23  C   UNL     1      45.637   7.493  12.139  0.00  0.00    +0.000 C 
ATOM     24  O   UNL     1      45.337   8.543  12.702  0.00  0.00    +0.000 OA
ATOM     25  H   UNL     1      47.159   6.317  11.330  0.00  0.00    +0.000 HD
BRANCH  23  26
ATOM     26  C   UNL     1      44.629   6.498  11.797  0.00  0.00    +0.000 A 
ATOM     27  C   UNL     1      43.427   6.811  11.184  0.00  0.00    +0.000 A 
ATOM     28  O   UNL     1      42.666   5.707  10.978  0.00  0.00    +0.000 OA
ATOM     29  C   UNL     1      43.363   4.642  11.456  0.00  0.00    +0.000 A 
ATOM     30  N   UNL     1      42.901   3.368  11.424  0.00  0.00    +0.000 NA
ATOM     31  C   UNL     1      43.719   2.510  11.941  0.00  0.00    +0.000 A 
ATOM     32  N   UNL     1      44.952   2.818  12.473  0.00  0.00    +0.000 N 
ATOM     33  C   UNL     1      45.454   4.101  12.512  0.00  0.00    +0.000 A 
ATOM     34  O   UNL     1      46.556   4.355  12.986  0.00  0.00    +0.000 OA
ATOM     35  C   UNL     1      44.570   5.085  11.963  0.00  0.00    +0.000 A 
ATOM     36  H   UNL     1      45.540   2.095  12.862  0.00  0.00    +0.000 HD
ENDBRANCH  23  26
ENDBRANCH  21  22
ENDBRANCH   4  21
TORSDOF 7
ENDMDL
