MODEL 1
REMARK VINA RESULT:    -8.819      0.000      0.000
REMARK INTER + INTRA:         -12.361
REMARK INTER:                 -11.397
REMARK INTRA:                  -0.964
REMARK UNBOUND:                -0.964
REMARK  Name = 
REMARK  6 active torsions:
REMARK  status: ('A' for Active; 'I' for Inactive)
REMARK    1  A    between atoms: C_1  and  N_2
REMARK    2  A    between atoms: N_2  and  C_3
REMARK    3  A    between atoms: C_3  and  C_4
REMARK    4  A    between atoms: C_4  and  C_5
REMARK    5  A    between atoms: C_9  and  C_10
REMARK    6  A    between atoms: C_20  and  C_21
REMARK                            x       y       z     vdW  Elec       q    Type
REMARK                         _______ _______ _______ _____ _____    ______ ____
ROOT
ATOM      1  C   UNL     1      43.225   5.076  10.807  0.00  0.00    +0.000 C 
ENDROOT
BRANCH   1   3
ATOM      2  C   UNL     1      43.431   2.777  11.796  0.00  0.00    +0.000 C 
ATOM      3  N   UNL     1      43.601   3.662  10.654  0.00  0.00    +0.000 N 
ATOM      4  C   UNL     1      44.502   3.322   9.652  0.00  0.00    +0.000 A 
ATOM      5  C   UNL     1      44.811   1.993   9.364  0.00  0.00    +0.000 A 
ATOM      6  C   UNL     1      45.729   1.678   8.357  0.00  0.00    +0.000 A 
ATOM      7  C   UNL     1      46.351   2.699   7.645  0.00  0.00    +0.000 A 
ATOM      8  C   UNL     1      45.994   3.990   7.978  0.00  0.00    +0.000 A 
ATOM      9  N   UNL     1      45.084   4.310   8.935  0.00  0.00    +0.000 NA
BRANCH   7  10
ATOM     10  C   UNL     1      47.335   2.347   6.592  0.00  0.00    +0.000 C 
ATOM     11  N   UNL     1      47.402   3.114   5.462  0.00  0.00    +0.000 N 
ATOM     12  O   UNL     1      48.087   1.390   6.722  0.00  0.00    +0.000 OA
ATOM     13  H   UNL     1      46.849   3.931   5.261  0.00  0.00    +0.000 HD
ATOM     14  H   UNL     1      48.092   2.836   4.774  0.00  0.00    +0.000 HD
ENDBRANCH   7  10
ENDBRANCH   1   3
BRANCH   1  15
ATOM     15  C   UNL     1      43.524   5.644  12.202  0.00  0.00    +0.000 C 
BRANCH  15  16
ATOM     16  C   UNL     1      45.006   5.829  12.443  0.00  0.00    +0.000 A 
ATOM     17  C   UNL     1      45.780   6.598  11.571  0.00  0.00    +0.000 A 
ATOM     18  C   UNL     1      47.137   6.780  11.821  0.00  0.00    +0.000 A 
ATOM     19  C   UNL     1      47.728   6.211  12.952  0.00  0.00    +0.000 A 
ATOM     20  C   UNL     1      46.978   5.455  13.872  0.00  0.00    +0.000 A 
ATOM     21  C   UNL     1      45.616   5.252  13.571  0.00  0.00    +0.000 A 
BRANCH  20  22
ATOM     22  C   UNL     1      47.568   4.976  15.147  0.00  0.00    +0.000 A 
ATOM     23  C   UNL     1      47.320   3.669  15.609  0.00  0.00    +0.000 A 
ATOM     24  C   UNL     1      47.940   3.164  16.756  0.00  0.00    +0.000 A 
ATOM     25  C   UNL     1      48.831   3.956  17.470  0.00  0.00    +0.000 A 
ATOM     26  C   UNL     1      49.083   5.259  17.050  0.00  0.00    +0.000 A 
ATOM     27  C   UNL     1      48.450   5.764  15.907  0.00  0.00    +0.000 A 
ENDBRANCH  20  22
ENDBRANCH  15  16
ENDBRANCH   1  15
TORSDOF 5
ENDMDL
MODEL 2
REMARK VINA RESULT:    -8.666      1.663      3.659
REMARK INTER + INTRA:         -12.163
REMARK INTER:                 -11.274
REMARK INTRA:                  -0.889
REMARK UNBOUND:                -0.964
REMARK  Name = 
REMARK  6 active torsions:
REMARK  status: ('A' for Active; 'I' for Inactive)
REMARK    1  A    between atoms: C_1  and  N_2
REMARK    2  A    between atoms: N_2  and  C_3
REMARK    3  A    between atoms: C_3  and  C_4
REMARK    4  A    between atoms: C_4  and  C_5
REMARK    5  A    between atoms: C_9  and  C_10
REMARK    6  A    between atoms: C_20  and  C_21
REMARK                            x       y       z     vdW  Elec       q    Type
REMARK                         _______ _______ _______ _____ _____    ______ ____
ROOT
ATOM      1  C   UNL     1      43.325   5.090  10.973  0.00  0.00    +0.000 C 
ENDROOT
BRANCH   1   3
ATOM      2  C   UNL     1      43.372   2.708  11.766  0.00  0.00    +0.000 C 
ATOM      3  N   UNL     1      43.622   3.673  10.707  0.00  0.00    +0.000 N 
ATOM      4  C   UNL     1      44.525   3.365   9.698  0.00  0.00    +0.000 A 
ATOM      5  C   UNL     1      44.763   2.048   9.303  0.00  0.00    +0.000 A 
ATOM      6  C   UNL     1      45.685   1.764   8.291  0.00  0.00    +0.000 A 
ATOM      7  C   UNL     1      46.383   2.801   7.681  0.00  0.00    +0.000 A 
ATOM      8  C   UNL     1      46.094   4.079   8.115  0.00  0.00    +0.000 A 
ATOM      9  N   UNL     1      45.181   4.372   9.078  0.00  0.00    +0.000 NA
BRANCH   7  10
ATOM     10  C   UNL     1      47.370   2.480   6.621  0.00  0.00    +0.000 C 
ATOM     11  N   UNL     1      47.369   3.213   5.467  0.00  0.00    +0.000 N 
ATOM     12  O   UNL     1      48.184   1.577   6.766  0.00  0.00    +0.000 OA
ATOM     13  H   UNL     1      46.761   3.986   5.251  0.00  0.00    +0.000 HD
ATOM     14  H   UNL     1      48.064   2.957   4.775  0.00  0.00    +0.000 HD
ENDBRANCH   7  10
ENDBRANCH   1   3
BRANCH   1  15
ATOM     15  C   UNL     1      43.477   5.483  12.448  0.00  0.00    +0.000 C 
BRANCH  15  16
ATOM     16  C   UNL     1      44.918   5.742  12.831  0.00  0.00    +0.000 A 
ATOM     17  C   UNL     1      45.649   4.787  13.542  0.00  0.00    +0.000 A 
ATOM     18  C   UNL     1      46.982   5.029  13.865  0.00  0.00    +0.000 A 
ATOM     19  C   UNL     1      47.599   6.218  13.466  0.00  0.00    +0.000 A 
ATOM     20  C   UNL     1      46.907   7.192  12.723  0.00  0.00    +0.000 A 
ATOM     21  C   UNL     1      45.548   6.939  12.447  0.00  0.00    +0.000 A 
BRANCH  20  22
ATOM     22  C   UNL     1      47.599   8.383  12.171  0.00  0.00    +0.000 A 
ATOM     23  C   UNL     1      46.944   9.629  12.101  0.00  0.00    +0.000 A 
ATOM     24  C   UNL     1      47.604  10.785  11.675  0.00  0.00    +0.000 A 
ATOM     25  C   UNL     1      48.944  10.725  11.311  0.00  0.00    +0.000 A 
ATOM     26  C   UNL     1      49.614   9.506  11.351  0.00  0.00    +0.000 A 
ATOM     27  C   UNL     1      48.945   8.348  11.767  0.00  0.00    +0.000 A 
ENDBRANCH  20  22
ENDBRANCH  15  16
ENDBRANCH   1  15
TORSDOF 5
ENDMDL
MODEL 3
REMARK VINA RESULT:    -8.179      3.399      7.725
REMARK INTER + INTRA:         -11.534
REMARK INTER:                 -10.780
REMARK INTRA:                  -0.754
REMARK UNBOUND:                -0.964
REMARK  Name = 
REMARK  6 active torsions:
REMARK  status: ('A' for Active; 'I' for Inactive)
REMARK    1  A    between atoms: C_1  and  N_2
REMARK    2  A    between atoms: N_2  and  C_3
REMARK    3  A    between atoms: C_3  and  C_4
REMARK    4  A    between atoms: C_4  and  C_5
REMARK    5  A    between atoms: C_9  and  C_10
REMARK    6  A    between atoms: C_20  and  C_21
REMARK                            x       y       z     vdW  Elec       q    Type
REMARK                         _______ _______ _______ _____ _____    ______ ____
ROOT
ATOM      1  C   UNL     1      47.559   7.103  11.916  0.00  0.00    +0.000 C 
ENDROOT
BRANCH   1   3
ATOM      2  C   UNL     1      49.393   8.209  13.227  0.00  0.00    +0.000 C 
ATOM      3  N   UNL     1      48.233   7.332  13.204  0.00  0.00    +0.000 N 
ATOM      4  C   UNL     1      48.062   6.395  14.215  0.00  0.00    +0.000 A 
ATOM      5  C   UNL     1      48.563   6.602  15.500  0.00  0.00    +0.000 A 
ATOM      6  C   UNL     1      48.386   5.638  16.497  0.00  0.00    +0.000 A 
ATOM      7  C   UNL     1      47.716   4.455  16.204  0.00  0.00    +0.000 A 
ATOM      8  C   UNL     1      47.240   4.318  14.915  0.00  0.00    +0.000 A 
ATOM      9  N   UNL     1      47.382   5.258  13.943  0.00  0.00    +0.000 NA
BRANCH   7  10
ATOM     10  C   UNL     1      47.552   3.435  17.269  0.00  0.00    +0.000 C 
ATOM     11  N   UNL     1      48.615   3.142  18.078  0.00  0.00    +0.000 N 
ATOM     12  O   UNL     1      46.485   2.860  17.437  0.00  0.00    +0.000 OA
ATOM     13  H   UNL     1      49.527   3.567  18.043  0.00  0.00    +0.000 HD
ATOM     14  H   UNL     1      48.452   2.442  18.793  0.00  0.00    +0.000 HD
ENDBRANCH   7  10
ENDBRANCH   1   3
BRANCH   1  15
ATOM     15  C   UNL     1      46.069   7.470  11.928  0.00  0.00    +0.000 C 
BRANCH  15  16
ATOM     16  C   UNL     1      45.201   6.375  11.348  0.00  0.00    +0.000 A 
ATOM     17  C   UNL     1      43.836   6.319  11.638  0.00  0.00    +0.000 A 
ATOM     18  C   UNL     1      43.045   5.320  11.077  0.00  0.00    +0.000 A 
ATOM     19  C   UNL     1      43.607   4.380  10.209  0.00  0.00    +0.000 A 
ATOM     20  C   UNL     1      44.972   4.420   9.866  0.00  0.00    +0.000 A 
ATOM     21  C   UNL     1      45.756   5.416  10.482  0.00  0.00    +0.000 A 
BRANCH  20  22
ATOM     22  C   UNL     1      45.539   3.519   8.832  0.00  0.00    +0.000 A 
ATOM     23  C   UNL     1      46.178   4.043   7.691  0.00  0.00    +0.000 A 
ATOM     24  C   UNL     1      46.803   3.216   6.753  0.00  0.00    +0.000 A 
ATOM     25  C   UNL     1      46.808   1.838   6.935  0.00  0.00    +0.000 A 
ATOM     26  C   UNL     1      46.168   1.288   8.042  0.00  0.00    +0.000 A 
ATOM     27  C   UNL     1      45.534   2.120   8.974  0.00  0.00    +0.000 A 
ENDBRANCH  20  22
ENDBRANCH  15  16
ENDBRANCH   1  15
TORSDOF 5
ENDMDL
MODEL 4
REMARK VINA RESULT:    -7.702      4.145      7.302
REMARK INTER + INTRA:         -10.918
REMARK INTER:                 -10.099
REMARK INTRA:                  -0.819
REMARK UNBOUND:                -0.964
REMARK  Name = 
REMARK  6 active torsions:
REMARK  status: ('A' for Active; 'I' for Inactive)
REMARK    1  A    between atoms: C_1  and  N_2
REMARK    2  A    between atoms: N_2  and  C_3
REMARK    3  A    between atoms: C_3  and  C_4
REMARK    4  A    between atoms: C_4  and  C_5
REMARK    5  A    between atoms: C_9  and  C_10
REMARK    6  A    between atoms: C_20  and  C_21
REMARK                            x       y       z     vdW  Elec       q    Type
REMARK                         _______ _______ _______ _____ _____    ______ ____
ROOT
ATOM      1  C   UNL     1      45.144   7.082  12.554  0.00  0.00    +0.000 C 
ENDROOT
BRANCH   1   3
ATOM      2  C   UNL     1      44.975   9.528  12.010  0.00  0.00    +0.000 C 
ATOM      3  N   UNL     1      45.798   8.389  12.387  0.00  0.00    +0.000 N 
ATOM      4  C   UNL     1      47.164   8.418  12.134  0.00  0.00    +0.000 A 
ATOM      5  C   UNL     1      47.877   9.615  12.089  0.00  0.00    +0.000 A 
ATOM      6  C   UNL     1      49.249   9.617  11.822  0.00  0.00    +0.000 A 
ATOM      7  C   UNL     1      49.909   8.416  11.585  0.00  0.00    +0.000 A 
ATOM      8  C   UNL     1      49.144   7.268  11.652  0.00  0.00    +0.000 A 
ATOM      9  N   UNL     1      47.815   7.249  11.937  0.00  0.00    +0.000 NA
BRANCH   7  10
ATOM     10  C   UNL     1      51.362   8.437  11.287  0.00  0.00    +0.000 C 
ATOM     11  N   UNL     1      51.983   7.276  10.920  0.00  0.00    +0.000 N 
ATOM     12  O   UNL     1      52.008   9.475  11.359  0.00  0.00    +0.000 OA
ATOM     13  H   UNL     1      51.548   6.374  10.809  0.00  0.00    +0.000 HD
ATOM     14  H   UNL     1      52.975   7.342  10.723  0.00  0.00    +0.000 HD
ENDBRANCH   7  10
ENDBRANCH   1   3
BRANCH   1  15
ATOM     15  C   UNL     1      44.172   6.732  11.419  0.00  0.00    +0.000 C 
BRANCH  15  16
ATOM     16  C   UNL     1      44.158   5.252  11.107  0.00  0.00    +0.000 A 
ATOM     17  C   UNL     1      43.339   4.379  11.826  0.00  0.00    +0.000 A 
ATOM     18  C   UNL     1      43.319   3.023  11.511  0.00  0.00    +0.000 A 
ATOM     19  C   UNL     1      44.103   2.532  10.464  0.00  0.00    +0.000 A 
ATOM     20  C   UNL     1      44.919   3.382   9.694  0.00  0.00    +0.000 A 
ATOM     21  C   UNL     1      44.952   4.741  10.063  0.00  0.00    +0.000 A 
BRANCH  20  22
ATOM     22  C   UNL     1      45.636   2.890   8.491  0.00  0.00    +0.000 A 
ATOM     23  C   UNL     1      45.937   3.760   7.425  0.00  0.00    +0.000 A 
ATOM     24  C   UNL     1      46.694   3.344   6.326  0.00  0.00    +0.000 A 
ATOM     25  C   UNL     1      47.174   2.041   6.267  0.00  0.00    +0.000 A 
ATOM     26  C   UNL     1      46.877   1.151   7.295  0.00  0.00    +0.000 A 
ATOM     27  C   UNL     1      46.109   1.570   8.389  0.00  0.00    +0.000 A 
ENDBRANCH  20  22
ENDBRANCH  15  16
ENDBRANCH   1  15
TORSDOF 5
ENDMDL
MODEL 5
REMARK VINA RESULT:    -7.564      3.134      5.651
REMARK INTER + INTRA:         -10.739
REMARK INTER:                  -9.983
REMARK INTRA:                  -0.756
REMARK UNBOUND:                -0.964
REMARK  Name = 
REMARK  6 active torsions:
REMARK  status: ('A' for Active; 'I' for Inactive)
REMARK    1  A    between atoms: C_1  and  N_2
REMARK    2  A    between atoms: N_2  and  C_3
REMARK    3  A    between atoms: C_3  and  C_4
REMARK    4  A    between atoms: C_4  and  C_5
REMARK    5  A    between atoms: C_9  and  C_10
REMARK    6  A    between atoms: C_20  and  C_21
REMARK                            x       y       z     vdW  Elec       q    Type
REMARK                         _______ _______ _______ _____ _____    ______ ____
ROOT
ATOM      1  C   UNL     1      43.612   5.334  10.884  0.00  0.00    +0.000 C 
ENDROOT
BRANCH   1   3
ATOM      2  C   UNL     1      43.577   2.990  11.784  0.00  0.00    +0.000 C 
ATOM      3  N   UNL     1      43.827   3.893  10.672  0.00  0.00    +0.000 N 
ATOM      4  C   UNL     1      44.670   3.495   9.642  0.00  0.00    +0.000 A 
ATOM      5  C   UNL     1      44.825   2.152   9.299  0.00  0.00    +0.000 A 
ATOM      6  C   UNL     1      45.687   1.777   8.264  0.00  0.00    +0.000 A 
ATOM      7  C   UNL     1      46.408   2.749   7.578  0.00  0.00    +0.000 A 
ATOM      8  C   UNL     1      46.201   4.058   7.965  0.00  0.00    +0.000 A 
ATOM      9  N   UNL     1      45.347   4.440   8.950  0.00  0.00    +0.000 NA
BRANCH   7  10
ATOM     10  C   UNL     1      47.332   2.331   6.495  0.00  0.00    +0.000 C 
ATOM     11  N   UNL     1      47.366   3.054   5.335  0.00  0.00    +0.000 N 
ATOM     12  O   UNL     1      48.063   1.358   6.625  0.00  0.00    +0.000 OA
ATOM     13  H   UNL     1      46.826   3.879   5.129  0.00  0.00    +0.000 HD
ATOM     14  H   UNL     1      48.014   2.732   4.626  0.00  0.00    +0.000 HD
ENDBRANCH   7  10
ENDBRANCH   1   3
BRANCH   1  15
ATOM     15  C   UNL     1      44.083   5.830  12.257  0.00  0.00    +0.000 C 
BRANCH  15  16
ATOM     16  C   UNL     1      44.725   7.198  12.187  0.00  0.00    +0.000 A 
ATOM     17  C   UNL     1      45.926   7.458  12.852  0.00  0.00    +0.000 A 
ATOM     18  C   UNL     1      46.517   8.715  12.758  0.00  0.00    +0.000 A 
ATOM     19  C   UNL     1      45.922   9.717  11.985  0.00  0.00    +0.000 A 
ATOM     20  C   UNL     1      44.729   9.487  11.276  0.00  0.00    +0.000 A 
ATOM     21  C   UNL     1      44.131   8.220  11.424  0.00  0.00    +0.000 A 
BRANCH  20  22
ATOM     22  C   UNL     1      44.176  10.498  10.340  0.00  0.00    +0.000 A 
ATOM     23  C   UNL     1      42.844  10.411   9.889  0.00  0.00    +0.000 A 
ATOM     24  C   UNL     1      42.273  11.400   9.084  0.00  0.00    +0.000 A 
ATOM     25  C   UNL     1      43.022  12.510   8.711  0.00  0.00    +0.000 A 
ATOM     26  C   UNL     1      44.347  12.616   9.124  0.00  0.00    +0.000 A 
ATOM     27  C   UNL     1      44.918  11.616   9.921  0.00  0.00    +0.000 A 
ENDBRANCH  20  22
ENDBRANCH  15  16
ENDBRANCH   1  15
TORSDOF 5
ENDMDL
MODEL 6
REMARK VINA RESULT:    -7.498      1.540      2.141
REMARK INTER + INTRA:         -10.654
REMARK INTER:                  -9.883
REMARK INTRA:                  -0.771
REMARK UNBOUND:                -0.964
REMARK  Name = 
REMARK  6 active torsions:
REMARK  status: ('A' for Active; 'I' for Inactive)
REMARK    1  A    between atoms: C_1  and  N_2
REMARK    2  A    between atoms: N_2  and  C_3
REMARK    3  A    between atoms: C_3  and  C_4
REMARK    4  A    between atoms: C_4  and  C_5
REMARK    5  A    between atoms: C_9  and  C_10
REMARK    6  A    between atoms: C_20  and  C_21
REMARK                            x       y       z     vdW  Elec       q    Type
REMARK                         _______ _______ _______ _____ _____    ______ ____
ROOT
ATOM      1  C   UNL     1      43.682   5.340  10.949  0.00  0.00    +0.000 C 
ENDROOT
BRANCH   1   3
ATOM      2  C   UNL     1      43.627   2.984  11.817  0.00  0.00    +0.000 C 
ATOM      3  N   UNL     1      43.876   3.900  10.715  0.00  0.00    +0.000 N 
ATOM      4  C   UNL     1      44.703   3.506   9.670  0.00  0.00    +0.000 A 
ATOM      5  C   UNL     1      44.838   2.166   9.307  0.00  0.00    +0.000 A 
ATOM      6  C   UNL     1      45.683   1.794   8.258  0.00  0.00    +0.000 A 
ATOM      7  C   UNL     1      46.409   2.767   7.578  0.00  0.00    +0.000 A 
ATOM      8  C   UNL     1      46.223   4.073   7.985  0.00  0.00    +0.000 A 
ATOM      9  N   UNL     1      45.384   4.452   8.985  0.00  0.00    +0.000 NA
BRANCH   7  10
ATOM     10  C   UNL     1      47.316   2.353   6.478  0.00  0.00    +0.000 C 
ATOM     11  N   UNL     1      47.325   3.076   5.318  0.00  0.00    +0.000 N 
ATOM     12  O   UNL     1      48.054   1.384   6.597  0.00  0.00    +0.000 OA
ATOM     13  H   UNL     1      46.778   3.898   5.121  0.00  0.00    +0.000 HD
ATOM     14  H   UNL     1      47.963   2.756   4.598  0.00  0.00    +0.000 HD
ENDBRANCH   7  10
ENDBRANCH   1   3
BRANCH   1  15
ATOM     15  C   UNL     1      44.070   5.790  12.364  0.00  0.00    +0.000 C 
BRANCH  15  16
ATOM     16  C   UNL     1      45.105   6.893  12.355  0.00  0.00    +0.000 A 
ATOM     17  C   UNL     1      44.857   8.098  11.693  0.00  0.00    +0.000 A 
ATOM     18  C   UNL     1      45.809   9.114  11.714  0.00  0.00    +0.000 A 
ATOM     19  C   UNL     1      47.009   8.940  12.410  0.00  0.00    +0.000 A 
ATOM     20  C   UNL     1      47.285   7.754  13.115  0.00  0.00    +0.000 A 
ATOM     21  C   UNL     1      46.322   6.728  13.040  0.00  0.00    +0.000 A 
BRANCH  20  22
ATOM     22  C   UNL     1      48.488   7.624  13.974  0.00  0.00    +0.000 A 
ATOM     23  C   UNL     1      48.474   6.796  15.114  0.00  0.00    +0.000 A 
ATOM     24  C   UNL     1      49.621   6.583  15.884  0.00  0.00    +0.000 A 
ATOM     25  C   UNL     1      50.819   7.194  15.530  0.00  0.00    +0.000 A 
ATOM     26  C   UNL     1      50.861   8.033  14.420  0.00  0.00    +0.000 A 
ATOM     27  C   UNL     1      49.706   8.252  13.659  0.00  0.00    +0.000 A 
ENDBRANCH  20  22
ENDBRANCH  15  16
ENDBRANCH   1  15
TORSDOF 5
ENDMDL
MODEL 7
REMARK VINA RESULT:    -6.714      4.038      8.364
REMARK INTER + INTRA:          -9.640
REMARK INTER:                  -8.978
REMARK INTRA:                  -0.662
REMARK UNBOUND:                -0.964
REMARK  Name = 
REMARK  6 active torsions:
REMARK  status: ('A' for Active; 'I' for Inactive)
REMARK    1  A    between atoms: C_1  and  N_2
REMARK    2  A    between atoms: N_2  and  C_3
REMARK    3  A    between atoms: C_3  and  C_4
REMARK    4  A    between atoms: C_4  and  C_5
REMARK    5  A    between atoms: C_9  and  C_10
REMARK    6  A    between atoms: C_20  and  C_21
REMARK                            x       y       z     vdW  Elec       q    Type
REMARK                         _______ _______ _______ _____ _____    ______ ____
ROOT
ATOM      1  C   UNL     1      46.737   6.510  13.539  0.00  0.00    +0.000 C 
ENDROOT
BRANCH   1   3
ATOM      2  C   UNL     1      48.858   7.601  12.755  0.00  0.00    +0.000 C 
ATOM      3  N   UNL     1      48.084   7.018  13.840  0.00  0.00    +0.000 N 
ATOM      4  C   UNL     1      48.740   6.529  14.963  0.00  0.00    +0.000 A 
ATOM      5  C   UNL     1      49.963   7.050  15.384  0.00  0.00    +0.000 A 
ATOM      6  C   UNL     1      50.607   6.534  16.512  0.00  0.00    +0.000 A 
ATOM      7  C   UNL     1      50.031   5.479  17.214  0.00  0.00    +0.000 A 
ATOM      8  C   UNL     1      48.818   5.016  16.747  0.00  0.00    +0.000 A 
ATOM      9  N   UNL     1      48.167   5.526  15.668  0.00  0.00    +0.000 NA
BRANCH   7  10
ATOM     10  C   UNL     1      50.737   4.931  18.399  0.00  0.00    +0.000 C 
ATOM     11  N   UNL     1      50.034   4.191  19.308  0.00  0.00    +0.000 N 
ATOM     12  O   UNL     1      51.933   5.127  18.570  0.00  0.00    +0.000 OA
ATOM     13  H   UNL     1      49.057   3.952  19.256  0.00  0.00    +0.000 HD
ATOM     14  H   UNL     1      50.560   3.836  20.098  0.00  0.00    +0.000 HD
ENDBRANCH   7  10
ENDBRANCH   1   3
BRANCH   1  15
ATOM     15  C   UNL     1      46.098   7.157  12.303  0.00  0.00    +0.000 C 
BRANCH  15  16
ATOM     16  C   UNL     1      45.246   6.184  11.518  0.00  0.00    +0.000 A 
ATOM     17  C   UNL     1      43.854   6.195  11.640  0.00  0.00    +0.000 A 
ATOM     18  C   UNL     1      43.082   5.309  10.892  0.00  0.00    +0.000 A 
ATOM     19  C   UNL     1      43.693   4.420  10.003  0.00  0.00    +0.000 A 
ATOM     20  C   UNL     1      45.089   4.398   9.828  0.00  0.00    +0.000 A 
ATOM     21  C   UNL     1      45.847   5.274  10.629  0.00  0.00    +0.000 A 
BRANCH  20  22
ATOM     22  C   UNL     1      45.726   3.561   8.780  0.00  0.00    +0.000 A 
ATOM     23  C   UNL     1      45.748   2.157   8.893  0.00  0.00    +0.000 A 
ATOM     24  C   UNL     1      46.256   1.345   7.876  0.00  0.00    +0.000 A 
ATOM     25  C   UNL     1      46.755   1.918   6.712  0.00  0.00    +0.000 A 
ATOM     26  C   UNL     1      46.765   3.304   6.578  0.00  0.00    +0.000 A 
ATOM     27  C   UNL     1      46.265   4.114   7.605  0.00  0.00    +0.000 A 
ENDBRANCH  20  22
ENDBRANCH  15  16
ENDBRANCH   1  15
TORSDOF 5
ENDMDL
MODEL 8
REMARK VINA RESULT:    -6.710      4.031      8.107
REMARK INTER + INTRA:          -9.635
REMARK INTER:                  -8.651
REMARK INTRA:                  -0.984
REMARK UNBOUND:                -0.964
REMARK  Name = 
REMARK  6 active torsions:
REMARK  status: ('A' for Active; 'I' for Inactive)
REMARK    1  A    between atoms: C_1  and  N_2
REMARK    2  A    between atoms: N_2  and  C_3
REMARK    3  A    between atoms: C_3  and  C_4
REMARK    4  A    between atoms: C_4  and  C_5
REMARK    5  A    between atoms: C_9  and  C_10
REMARK    6  A    between atoms: C_20  and  C_21
REMARK                            x       y       z     vdW  Elec       q    Type
REMARK                         _______ _______ _______ _____ _____    ______ ____
ROOT
ATOM      1  C   UNL     1      49.844   7.600  12.542  0.00  0.00    +0.000 C 
ENDROOT
BRANCH   1   3
ATOM      2  C   UNL     1      51.467   8.612  14.170  0.00  0.00    +0.000 C 
ATOM      3  N   UNL     1      50.197   7.943  13.929  0.00  0.00    +0.000 N 
ATOM      4  C   UNL     1      49.586   7.240  14.959  0.00  0.00    +0.000 A 
ATOM      5  C   UNL     1      49.773   7.589  16.297  0.00  0.00    +0.000 A 
ATOM      6  C   UNL     1      49.154   6.859  17.316  0.00  0.00    +0.000 A 
ATOM      7  C   UNL     1      48.356   5.766  16.996  0.00  0.00    +0.000 A 
ATOM      8  C   UNL     1      48.209   5.480  15.654  0.00  0.00    +0.000 A 
ATOM      9  N   UNL     1      48.782   6.197  14.651  0.00  0.00    +0.000 NA
BRANCH   7  10
ATOM     10  C   UNL     1      47.721   4.992  18.092  0.00  0.00    +0.000 C 
ATOM     11  N   UNL     1      46.608   5.498  18.704  0.00  0.00    +0.000 N 
ATOM     12  O   UNL     1      48.173   3.912  18.449  0.00  0.00    +0.000 OA
ATOM     13  H   UNL     1      46.142   6.361  18.479  0.00  0.00    +0.000 HD
ATOM     14  H   UNL     1      46.209   4.931  19.444  0.00  0.00    +0.000 HD
ENDBRANCH   7  10
ENDBRANCH   1   3
BRANCH   1  15
ATOM     15  C   UNL     1      48.830   8.562  11.910  0.00  0.00    +0.000 C 
BRANCH  15  16
ATOM     16  C   UNL     1      47.417   8.021  11.953  0.00  0.00    +0.000 A 
ATOM     17  C   UNL     1      46.403   8.729  12.602  0.00  0.00    +0.000 A 
ATOM     18  C   UNL     1      45.102   8.230  12.612  0.00  0.00    +0.000 A 
ATOM     19  C   UNL     1      44.803   7.031  11.959  0.00  0.00    +0.000 A 
ATOM     20  C   UNL     1      45.790   6.303  11.268  0.00  0.00    +0.000 A 
ATOM     21  C   UNL     1      47.104   6.809  11.312  0.00  0.00    +0.000 A 
BRANCH  20  22
ATOM     22  C   UNL     1      45.447   5.112  10.452  0.00  0.00    +0.000 A 
ATOM     23  C   UNL     1      44.762   4.021  11.022  0.00  0.00    +0.000 A 
ATOM     24  C   UNL     1      44.345   2.930  10.253  0.00  0.00    +0.000 A 
ATOM     25  C   UNL     1      44.599   2.907   8.886  0.00  0.00    +0.000 A 
ATOM     26  C   UNL     1      45.290   3.961   8.296  0.00  0.00    +0.000 A 
ATOM     27  C   UNL     1      45.716   5.045   9.073  0.00  0.00    +0.000 A 
ENDBRANCH  20  22
ENDBRANCH  15  16
ENDBRANCH   1  15
TORSDOF 5
ENDMDL
MODEL 9
REMARK VINA RESULT:    -6.686      3.288      5.999
REMARK INTER + INTRA:          -9.604
REMARK INTER:                  -8.773
REMARK INTRA:                  -0.832
REMARK UNBOUND:                -0.964
REMARK  Name = 
REMARK  6 active torsions:
REMARK  status: ('A' for Active; 'I' for Inactive)
REMARK    1  A    between atoms: C_1  and  N_2
REMARK    2  A    between atoms: N_2  and  C_3
REMARK    3  A    between atoms: C_3  and  C_4
REMARK    4  A    between atoms: C_4  and  C_5
REMARK    5  A    between atoms: C_9  and  C_10
REMARK    6  A    between atoms: C_20  and  C_21
REMARK                            x       y       z     vdW  Elec       q    Type
REMARK                         _______ _______ _______ _____ _____    ______ ____
ROOT
ATOM      1  C   UNL     1      49.159   6.891  14.580  0.00  0.00    +0.000 C 
ENDROOT
BRANCH   1   3
ATOM      2  C   UNL     1      47.460   8.635  13.964  0.00  0.00    +0.000 C 
ATOM      3  N   UNL     1      47.972   7.282  13.804  0.00  0.00    +0.000 N 
ATOM      4  C   UNL     1      47.129   6.282  13.335  0.00  0.00    +0.000 A 
ATOM      5  C   UNL     1      46.056   6.563  12.490  0.00  0.00    +0.000 A 
ATOM      6  C   UNL     1      45.217   5.539  12.040  0.00  0.00    +0.000 A 
ATOM      7  C   UNL     1      45.444   4.229  12.450  0.00  0.00    +0.000 A 
ATOM      8  C   UNL     1      46.527   4.021  13.281  0.00  0.00    +0.000 A 
ATOM      9  N   UNL     1      47.366   5.003  13.705  0.00  0.00    +0.000 NA
BRANCH   7  10
ATOM     10  C   UNL     1      44.533   3.157  11.977  0.00  0.00    +0.000 C 
ATOM     11  N   UNL     1      44.722   2.626  10.732  0.00  0.00    +0.000 N 
ATOM     12  O   UNL     1      43.625   2.741  12.684  0.00  0.00    +0.000 OA
ATOM     13  H   UNL     1      45.446   2.877  10.078  0.00  0.00    +0.000 HD
ATOM     14  H   UNL     1      44.077   1.895  10.456  0.00  0.00    +0.000 HD
ENDBRANCH   7  10
ENDBRANCH   1   3
BRANCH   1  15
ATOM     15  C   UNL     1      48.966   7.005  16.098  0.00  0.00    +0.000 C 
BRANCH  15  16
ATOM     16  C   UNL     1      48.921   5.654  16.777  0.00  0.00    +0.000 A 
ATOM     17  C   UNL     1      47.700   5.066  17.117  0.00  0.00    +0.000 A 
ATOM     18  C   UNL     1      47.675   3.811  17.718  0.00  0.00    +0.000 A 
ATOM     19  C   UNL     1      48.867   3.126  17.969  0.00  0.00    +0.000 A 
ATOM     20  C   UNL     1      50.116   3.669  17.615  0.00  0.00    +0.000 A 
ATOM     21  C   UNL     1      50.114   4.958  17.047  0.00  0.00    +0.000 A 
BRANCH  20  22
ATOM     22  C   UNL     1      51.368   2.883  17.744  0.00  0.00    +0.000 A 
ATOM     23  C   UNL     1      52.517   3.448  18.333  0.00  0.00    +0.000 A 
ATOM     24  C   UNL     1      53.677   2.699  18.552  0.00  0.00    +0.000 A 
ATOM     25  C   UNL     1      53.716   1.358  18.188  0.00  0.00    +0.000 A 
ATOM     26  C   UNL     1      52.605   0.775  17.586  0.00  0.00    +0.000 A 
ATOM     27  C   UNL     1      51.449   1.533  17.359  0.00  0.00    +0.000 A 
ENDBRANCH  20  22
ENDBRANCH  15  16
ENDBRANCH   1  15
TORSDOF 5
ENDMDL
