MODEL 1
REMARK VINA RESULT:    -9.201      0.000      0.000
REMARK INTER + INTRA:         -14.160
REMARK INTER:                 -12.967
REMARK INTRA:                  -1.193
REMARK UNBOUND:                -1.193
REMARK  Name = 
REMARK  8 active torsions:
REMARK  status: ('A' for Active; 'I' for Inactive)
REMARK    1  A    between atoms: C_1  and  O_2
REMARK    2  A    between atoms: O_2  and  C_3
REMARK    3  A    between atoms: C_6  and  C_7
REMARK    4  A    between atoms: C_7  and  N_8
REMARK    5  A    between atoms: C_9  and  C_11
REMARK    6  A    between atoms: C_22  and  C_23
REMARK    7  A    between atoms: C_23  and  N_24
REMARK    8  A    between atoms: C_25  and  C_27
REMARK                            x       y       z     vdW  Elec       q    Type
REMARK                         _______ _______ _______ _____ _____    ______ ____
ROOT
ATOM      1  C   UNL     1      45.428   6.802  11.971  0.00  0.00    +0.000 A 
ATOM      2  C   UNL     1      46.430   7.013  12.926  0.00  0.00    +0.000 A 
ATOM      3  C   UNL     1      46.918   5.955  13.693  0.00  0.00    +0.000 A 
ATOM      4  C   UNL     1      46.403   4.667  13.532  0.00  0.00    +0.000 A 
ATOM      5  C   UNL     1      45.432   4.447  12.545  0.00  0.00    +0.000 A 
ATOM      6  C   UNL     1      44.953   5.498  11.740  0.00  0.00    +0.000 A 
ENDROOT
BRANCH   1   8
ATOM      7  C   UNL     1      44.965   9.110  11.775  0.00  0.00    +0.000 C 
ATOM      8  O   UNL     1      44.908   7.807  11.195  0.00  0.00    +0.000 OA
ENDBRANCH   1   8
BRANCH   4   9
ATOM      9  C   UNL     1      46.916   3.535  14.377  0.00  0.00    +0.000 C 
BRANCH   9  10
ATOM     10  N   UNL     1      47.798   4.007  15.417  0.00  0.00    +0.000 N 
ATOM     11  C   UNL     1      47.542   3.796  16.746  0.00  0.00    +0.000 C 
ATOM     12  O   UNL     1      46.539   3.203  17.135  0.00  0.00    +0.000 OA
ATOM     13  H   UNL     1      48.528   4.655  15.139  0.00  0.00    +0.000 HD
BRANCH  11  14
ATOM     14  C   UNL     1      48.566   4.256  17.695  0.00  0.00    +0.000 A 
ATOM     15  C   UNL     1      48.287   5.337  18.522  0.00  0.00    +0.000 A 
ATOM     16  S   UNL     1      49.563   5.744  19.576  0.00  0.00    +0.000 S 
ATOM     17  C   UNL     1      50.551   4.515  18.937  0.00  0.00    +0.000 A 
ATOM     18  N   UNL     1      51.823   4.342  19.388  0.00  0.00    +0.000 NA
ATOM     19  C   UNL     1      52.471   3.393  18.800  0.00  0.00    +0.000 A 
ATOM     20  N   UNL     1      51.959   2.593  17.812  0.00  0.00    +0.000 N 
ATOM     21  C   UNL     1      50.661   2.691  17.368  0.00  0.00    +0.000 A 
ATOM     22  O   UNL     1      50.202   1.893  16.558  0.00  0.00    +0.000 OA
ATOM     23  C   UNL     1      49.903   3.779  17.960  0.00  0.00    +0.000 A 
ATOM     24  H   UNL     1      52.510   1.849  17.413  0.00  0.00    +0.000 HD
ENDBRANCH  11  14
ENDBRANCH   9  10
ENDBRANCH   4   9
BRANCH   6  25
ATOM     25  C   UNL     1      43.954   5.180  10.654  0.00  0.00    +0.000 C 
BRANCH  25  26
ATOM     26  N   UNL     1      44.548   4.516   9.514  0.00  0.00    +0.000 N 
ATOM     27  C   UNL     1      44.471   3.155   9.317  0.00  0.00    +0.000 C 
ATOM     28  O   UNL     1      43.904   2.398  10.102  0.00  0.00    +0.000 OA
ATOM     29  H   UNL     1      45.010   5.102   8.836  0.00  0.00    +0.000 HD
BRANCH  27  30
ATOM     30  C   UNL     1      45.214   2.658   8.068  0.00  0.00    +0.000 C 
ATOM     31  C   UNL     1      46.104   1.449   8.391  0.00  0.00    +0.000 C 
ATOM     32  C   UNL     1      46.890   0.977   7.169  0.00  0.00    +0.000 C 
ATOM     33  C   UNL     1      47.721   2.104   6.569  0.00  0.00    +0.000 C 
ATOM     34  C   UNL     1      46.851   3.306   6.223  0.00  0.00    +0.000 C 
ATOM     35  C   UNL     1      46.046   3.785   7.431  0.00  0.00    +0.000 C 
ENDBRANCH  27  30
ENDBRANCH  25  26
ENDBRANCH   6  25
TORSDOF 7
ENDMDL
MODEL 2
REMARK VINA RESULT:    -8.762      1.766      2.152
REMARK INTER + INTRA:         -13.541
REMARK INTER:                 -12.390
REMARK INTRA:                  -1.151
REMARK UNBOUND:                -1.193
REMARK  Name = 
REMARK  8 active torsions:
REMARK  status: ('A' for Active; 'I' for Inactive)
REMARK    1  A    between atoms: C_1  and  O_2
REMARK    2  A    between atoms: O_2  and  C_3
REMARK    3  A    between atoms: C_6  and  C_7
REMARK    4  A    between atoms: C_7  and  N_8
REMARK    5  A    between atoms: C_9  and  C_11
REMARK    6  A    between atoms: C_22  and  C_23
REMARK    7  A    between atoms: C_23  and  N_24
REMARK    8  A    between atoms: C_25  and  C_27
REMARK                            x       y       z     vdW  Elec       q    Type
REMARK                         _______ _______ _______ _____ _____    ______ ____
ROOT
ATOM      1  C   UNL     1      44.944   7.320  11.830  0.00  0.00    +0.000 A 
ATOM      2  C   UNL     1      45.958   7.831  12.649  0.00  0.00    +0.000 A 
ATOM      3  C   UNL     1      46.761   6.979  13.406  0.00  0.00    +0.000 A 
ATOM      4  C   UNL     1      46.556   5.598  13.372  0.00  0.00    +0.000 A 
ATOM      5  C   UNL     1      45.572   5.082  12.517  0.00  0.00    +0.000 A 
ATOM      6  C   UNL     1      44.775   5.928  11.722  0.00  0.00    +0.000 A 
ENDROOT
BRANCH   1   8
ATOM      7  C   UNL     1      44.336   9.517  11.213  0.00  0.00    +0.000 C 
ATOM      8  O   UNL     1      44.122   8.114  11.070  0.00  0.00    +0.000 OA
ENDBRANCH   1   8
BRANCH   4   9
ATOM      9  C   UNL     1      47.410   4.685  14.208  0.00  0.00    +0.000 C 
BRANCH   9  10
ATOM     10  N   UNL     1      47.502   5.146  15.572  0.00  0.00    +0.000 N 
ATOM     11  C   UNL     1      48.572   5.869  16.029  0.00  0.00    +0.000 C 
ATOM     12  O   UNL     1      49.524   6.159  15.309  0.00  0.00    +0.000 OA
ATOM     13  H   UNL     1      46.829   4.768  16.229  0.00  0.00    +0.000 HD
BRANCH  11  14
ATOM     14  C   UNL     1      48.498   6.349  17.416  0.00  0.00    +0.000 A 
ATOM     15  C   UNL     1      48.454   7.717  17.659  0.00  0.00    +0.000 A 
ATOM     16  S   UNL     1      48.357   8.118  19.313  0.00  0.00    +0.000 S 
ATOM     17  C   UNL     1      48.411   6.480  19.767  0.00  0.00    +0.000 A 
ATOM     18  N   UNL     1      48.401   6.123  21.080  0.00  0.00    +0.000 NA
ATOM     19  C   UNL     1      48.475   4.850  21.286  0.00  0.00    +0.000 A 
ATOM     20  N   UNL     1      48.542   3.902  20.298  0.00  0.00    +0.000 N 
ATOM     21  C   UNL     1      48.493   4.212  18.960  0.00  0.00    +0.000 A 
ATOM     22  O   UNL     1      48.449   3.336  18.103  0.00  0.00    +0.000 OA
ATOM     23  C   UNL     1      48.463   5.635  18.671  0.00  0.00    +0.000 A 
ATOM     24  H   UNL     1      48.568   2.920  20.526  0.00  0.00    +0.000 HD
ENDBRANCH  11  14
ENDBRANCH   9  10
ENDBRANCH   4   9
BRANCH   6  25
ATOM     25  C   UNL     1      43.778   5.303  10.777  0.00  0.00    +0.000 C 
BRANCH  25  26
ATOM     26  N   UNL     1      44.400   4.637   9.654  0.00  0.00    +0.000 N 
ATOM     27  C   UNL     1      44.357   3.272   9.475  0.00  0.00    +0.000 C 
ATOM     28  O   UNL     1      43.798   2.513  10.264  0.00  0.00    +0.000 OA
ATOM     29  H   UNL     1      44.857   5.224   8.973  0.00  0.00    +0.000 HD
BRANCH  27  30
ATOM     30  C   UNL     1      45.126   2.775   8.242  0.00  0.00    +0.000 C 
ATOM     31  C   UNL     1      45.968   1.534   8.572  0.00  0.00    +0.000 C 
ATOM     32  C   UNL     1      46.779   1.060   7.367  0.00  0.00    +0.000 C 
ATOM     33  C   UNL     1      47.664   2.171   6.816  0.00  0.00    +0.000 C 
ATOM     34  C   UNL     1      46.842   3.405   6.465  0.00  0.00    +0.000 C 
ATOM     35  C   UNL     1      46.012   3.887   7.654  0.00  0.00    +0.000 C 
ENDBRANCH  27  30
ENDBRANCH  25  26
ENDBRANCH   6  25
TORSDOF 7
ENDMDL
MODEL 3
REMARK VINA RESULT:    -8.541      2.149      2.916
REMARK INTER + INTRA:         -13.230
REMARK INTER:                 -11.974
REMARK INTRA:                  -1.255
REMARK UNBOUND:                -1.193
REMARK  Name = 
REMARK  8 active torsions:
REMARK  status: ('A' for Active; 'I' for Inactive)
REMARK    1  A    between atoms: C_1  and  O_2
REMARK    2  A    between atoms: O_2  and  C_3
REMARK    3  A    between atoms: C_6  and  C_7
REMARK    4  A    between atoms: C_7  and  N_8
REMARK    5  A    between atoms: C_9  and  C_11
REMARK    6  A    between atoms: C_22  and  C_23
REMARK    7  A    between atoms: C_23  and  N_24
REMARK    8  A    between atoms: C_25  and  C_27
REMARK                            x       y       z     vdW  Elec       q    Type
REMARK                         _______ _______ _______ _____ _____    ______ ____
ROOT
ATOM      1  C   UNL     1      45.789   4.429  12.656  0.00  0.00    +0.000 A 
ATOM      2  C   UNL     1      46.333   4.278  13.936  0.00  0.00    +0.000 A 
ATOM      3  C   UNL     1      47.188   5.244  14.466  0.00  0.00    +0.000 A 
ATOM      4  C   UNL     1      47.528   6.374  13.720  0.00  0.00    +0.000 A 
ATOM      5  C   UNL     1      46.947   6.548  12.456  0.00  0.00    +0.000 A 
ATOM      6  C   UNL     1      46.056   5.598  11.921  0.00  0.00    +0.000 A 
ENDROOT
BRANCH   1   8
ATOM      7  C   UNL     1      43.606   3.528  12.573  0.00  0.00    +0.000 C 
ATOM      8  O   UNL     1      44.947   3.506  12.085  0.00  0.00    +0.000 OA
ENDBRANCH   1   8
BRANCH   4   9
ATOM      9  C   UNL     1      48.468   7.401  14.286  0.00  0.00    +0.000 C 
BRANCH   9  10
ATOM     10  N   UNL     1      48.475   7.376  15.729  0.00  0.00    +0.000 N 
ATOM     11  C   UNL     1      49.496   6.812  16.446  0.00  0.00    +0.000 C 
ATOM     12  O   UNL     1      50.463   6.282  15.906  0.00  0.00    +0.000 OA
ATOM     13  H   UNL     1      47.612   7.635  16.195  0.00  0.00    +0.000 HD
BRANCH  11  14
ATOM     14  C   UNL     1      49.417   6.931  17.909  0.00  0.00    +0.000 A 
ATOM     15  C   UNL     1      49.692   8.156  18.505  0.00  0.00    +0.000 A 
ATOM     16  S   UNL     1      49.547   8.143  20.203  0.00  0.00    +0.000 S 
ATOM     17  C   UNL     1      49.151   6.488  20.208  0.00  0.00    +0.000 A 
ATOM     18  N   UNL     1      48.934   5.829  21.378  0.00  0.00    +0.000 NA
ATOM     19  C   UNL     1      48.670   4.573  21.241  0.00  0.00    +0.000 A 
ATOM     20  N   UNL     1      48.590   3.919  20.039  0.00  0.00    +0.000 N 
ATOM     21  C   UNL     1      48.741   4.556  18.830  0.00  0.00    +0.000 A 
ATOM     22  O   UNL     1      48.560   3.965  17.771  0.00  0.00    +0.000 OA
ATOM     23  C   UNL     1      49.092   5.961  18.929  0.00  0.00    +0.000 A 
ATOM     24  H   UNL     1      48.350   2.940  19.999  0.00  0.00    +0.000 HD
ENDBRANCH  11  14
ENDBRANCH   9  10
ENDBRANCH   4   9
BRANCH   6  25
ATOM     25  C   UNL     1      45.418   5.878  10.583  0.00  0.00    +0.000 C 
BRANCH  25  26
ATOM     26  N   UNL     1      45.770   4.906   9.571  0.00  0.00    +0.000 N 
ATOM     27  C   UNL     1      44.831   4.181   8.872  0.00  0.00    +0.000 C 
ATOM     28  O   UNL     1      43.622   4.294   9.063  0.00  0.00    +0.000 OA
ATOM     29  H   UNL     1      46.751   4.793   9.371  0.00  0.00    +0.000 HD
BRANCH  27  30
ATOM     30  C   UNL     1      45.428   3.170   7.882  0.00  0.00    +0.000 C 
ATOM     31  C   UNL     1      45.945   1.918   8.605  0.00  0.00    +0.000 C 
ATOM     32  C   UNL     1      46.590   0.927   7.638  0.00  0.00    +0.000 C 
ATOM     33  C   UNL     1      47.709   1.576   6.833  0.00  0.00    +0.000 C 
ATOM     34  C   UNL     1      47.209   2.811   6.092  0.00  0.00    +0.000 C 
ATOM     35  C   UNL     1      46.548   3.809   7.042  0.00  0.00    +0.000 C 
ENDBRANCH  27  30
ENDBRANCH  25  26
ENDBRANCH   6  25
TORSDOF 7
ENDMDL
MODEL 4
REMARK VINA RESULT:    -8.185      2.548      3.119
REMARK INTER + INTRA:         -12.728
REMARK INTER:                 -11.683
REMARK INTRA:                  -1.045
REMARK UNBOUND:                -1.193
REMARK  Name = 
REMARK  8 active torsions:
REMARK  status: ('A' for Active; 'I' for Inactive)
REMARK    1  A    between atoms: C_1  and  O_2
REMARK    2  A    between atoms: O_2  and  C_3
REMARK    3  A    between atoms: C_6  and  C_7
REMARK    4  A    between atoms: C_7  and  N_8
REMARK    5  A    between atoms: C_9  and  C_11
REMARK    6  A    between atoms: C_22  and  C_23
REMARK    7  A    between atoms: C_23  and  N_24
REMARK    8  A    between atoms: C_25  and  C_27
REMARK                            x       y       z     vdW  Elec       q    Type
REMARK                         _______ _______ _______ _____ _____    ______ ____
ROOT
ATOM      1  C   UNL     1      45.527   4.728  12.794  0.00  0.00    +0.000 A 
ATOM      2  C   UNL     1      46.383   4.849  13.895  0.00  0.00    +0.000 A 
ATOM      3  C   UNL     1      47.421   5.781  13.893  0.00  0.00    +0.000 A 
ATOM      4  C   UNL     1      47.634   6.600  12.782  0.00  0.00    +0.000 A 
ATOM      5  C   UNL     1      46.750   6.510  11.698  0.00  0.00    +0.000 A 
ATOM      6  C   UNL     1      45.677   5.598  11.699  0.00  0.00    +0.000 A 
ENDROOT
BRANCH   1   8
ATOM      7  C   UNL     1      43.260   4.287  13.287  0.00  0.00    +0.000 C 
ATOM      8  O   UNL     1      44.495   3.824  12.741  0.00  0.00    +0.000 OA
ENDBRANCH   1   8
BRANCH   4   9
ATOM      9  C   UNL     1      48.769   7.586  12.775  0.00  0.00    +0.000 C 
BRANCH   9  10
ATOM     10  N   UNL     1      49.853   7.153  13.623  0.00  0.00    +0.000 N 
ATOM     11  C   UNL     1      50.118   7.744  14.830  0.00  0.00    +0.000 C 
ATOM     12  O   UNL     1      49.457   8.685  15.260  0.00  0.00    +0.000 OA
ATOM     13  H   UNL     1      50.523   6.510  13.216  0.00  0.00    +0.000 HD
BRANCH  11  14
ATOM     14  C   UNL     1      51.198   7.149  15.631  0.00  0.00    +0.000 A 
ATOM     15  C   UNL     1      52.507   7.564  15.417  0.00  0.00    +0.000 A 
ATOM     16  S   UNL     1      53.645   6.796  16.428  0.00  0.00    +0.000 S 
ATOM     17  C   UNL     1      52.435   5.851  17.160  0.00  0.00    +0.000 A 
ATOM     18  N   UNL     1      52.751   4.932  18.112  0.00  0.00    +0.000 NA
ATOM     19  C   UNL     1      51.743   4.265  18.564  0.00  0.00    +0.000 A 
ATOM     20  N   UNL     1      50.445   4.443  18.161  0.00  0.00    +0.000 N 
ATOM     21  C   UNL     1      50.070   5.400  17.248  0.00  0.00    +0.000 A 
ATOM     22  O   UNL     1      48.890   5.606  16.988  0.00  0.00    +0.000 OA
ATOM     23  C   UNL     1      51.174   6.145  16.668  0.00  0.00    +0.000 A 
ATOM     24  H   UNL     1      49.698   3.908  18.577  0.00  0.00    +0.000 HD
ENDBRANCH  11  14
ENDBRANCH   9  10
ENDBRANCH   4   9
BRANCH   6  25
ATOM     25  C   UNL     1      44.727   5.598  10.527  0.00  0.00    +0.000 C 
BRANCH  25  26
ATOM     26  N   UNL     1      45.186   4.784   9.423  0.00  0.00    +0.000 N 
ATOM     27  C   UNL     1      44.670   3.538   9.147  0.00  0.00    +0.000 C 
ATOM     28  O   UNL     1      43.789   3.015   9.826  0.00  0.00    +0.000 OA
ATOM     29  H   UNL     1      45.899   5.182   8.830  0.00  0.00    +0.000 HD
BRANCH  27  30
ATOM     30  C   UNL     1      45.339   2.829   7.960  0.00  0.00    +0.000 C 
ATOM     31  C   UNL     1      46.144   1.605   8.421  0.00  0.00    +0.000 C 
ATOM     32  C   UNL     1      46.858   0.922   7.256  0.00  0.00    +0.000 C 
ATOM     33  C   UNL     1      47.756   1.894   6.501  0.00  0.00    +0.000 C 
ATOM     34  C   UNL     1      46.970   3.107   6.019  0.00  0.00    +0.000 C 
ATOM     35  C   UNL     1      46.237   3.797   7.169  0.00  0.00    +0.000 C 
ENDBRANCH  27  30
ENDBRANCH  25  26
ENDBRANCH   6  25
TORSDOF 7
ENDMDL
MODEL 5
REMARK VINA RESULT:    -8.070      2.630      3.475
REMARK INTER + INTRA:         -12.565
REMARK INTER:                 -11.437
REMARK INTRA:                  -1.128
REMARK UNBOUND:                -1.193
REMARK  Name = 
REMARK  8 active torsions:
REMARK  status: ('A' for Active; 'I' for Inactive)
REMARK    1  A    between atoms: C_1  and  O_2
REMARK    2  A    between atoms: O_2  and  C_3
REMARK    3  A    between atoms: C_6  and  C_7
REMARK    4  A    between atoms: C_7  and  N_8
REMARK    5  A    between atoms: C_9  and  C_11
REMARK    6  A    between atoms: C_22  and  C_23
REMARK    7  A    between atoms: C_23  and  N_24
REMARK    8  A    between atoms: C_25  and  C_27
REMARK                            x       y       z     vdW  Elec       q    Type
REMARK                         _______ _______ _______ _____ _____    ______ ____
ROOT
ATOM      1  C   UNL     1      44.717   7.855  11.679  0.00  0.00    +0.000 A 
ATOM      2  C   UNL     1      45.741   8.565  12.315  0.00  0.00    +0.000 A 
ATOM      3  C   UNL     1      46.771   7.894  12.976  0.00  0.00    +0.000 A 
ATOM      4  C   UNL     1      46.787   6.499  13.027  0.00  0.00    +0.000 A 
ATOM      5  C   UNL     1      45.786   5.787  12.352  0.00  0.00    +0.000 A 
ATOM      6  C   UNL     1      44.759   6.449  11.652  0.00  0.00    +0.000 A 
ENDROOT
BRANCH   1   8
ATOM      7  C   UNL     1      43.826   9.871  10.831  0.00  0.00    +0.000 C 
ATOM      8  O   UNL     1      43.678   8.465  11.020  0.00  0.00    +0.000 OA
ENDBRANCH   1   8
BRANCH   4   9
ATOM      9  C   UNL     1      47.886   5.781  13.760  0.00  0.00    +0.000 C 
BRANCH   9  10
ATOM     10  N   UNL     1      47.740   5.908  15.190  0.00  0.00    +0.000 N 
ATOM     11  C   UNL     1      48.777   6.290  16.000  0.00  0.00    +0.000 C 
ATOM     12  O   UNL     1      49.897   6.536  15.561  0.00  0.00    +0.000 OA
ATOM     13  H   UNL     1      46.890   5.535  15.598  0.00  0.00    +0.000 HD
BRANCH  11  14
ATOM     14  C   UNL     1      48.468   6.461  17.427  0.00  0.00    +0.000 A 
ATOM     15  C   UNL     1      48.438   5.344  18.253  0.00  0.00    +0.000 A 
ATOM     16  S   UNL     1      48.080   5.701  19.881  0.00  0.00    +0.000 S 
ATOM     17  C   UNL     1      47.913   7.358  19.534  0.00  0.00    +0.000 A 
ATOM     18  N   UNL     1      47.567   8.241  20.510  0.00  0.00    +0.000 NA
ATOM     19  C   UNL     1      47.447   9.461  20.106  0.00  0.00    +0.000 A 
ATOM     20  N   UNL     1      47.655   9.881  18.818  0.00  0.00    +0.000 N 
ATOM     21  C   UNL     1      48.065   9.037  17.813  0.00  0.00    +0.000 A 
ATOM     22  O   UNL     1      48.344   9.462  16.697  0.00  0.00    +0.000 OA
ATOM     23  C   UNL     1      48.164   7.641  18.202  0.00  0.00    +0.000 A 
ATOM     24  H   UNL     1      47.573  10.856  18.574  0.00  0.00    +0.000 HD
ENDBRANCH  11  14
ENDBRANCH   9  10
ENDBRANCH   4   9
BRANCH   6  25
ATOM     25  C   UNL     1      43.750   5.621  10.894  0.00  0.00    +0.000 C 
BRANCH  25  26
ATOM     26  N   UNL     1      44.332   4.887   9.792  0.00  0.00    +0.000 N 
ATOM     27  C   UNL     1      44.215   3.521   9.658  0.00  0.00    +0.000 C 
ATOM     28  O   UNL     1      43.618   2.820  10.472  0.00  0.00    +0.000 OA
ATOM     29  H   UNL     1      44.818   5.426   9.092  0.00  0.00    +0.000 HD
BRANCH  27  30
ATOM     30  C   UNL     1      44.952   2.944   8.441  0.00  0.00    +0.000 C 
ATOM     31  C   UNL     1      45.779   1.707   8.823  0.00  0.00    +0.000 C 
ATOM     32  C   UNL     1      46.560   1.154   7.633  0.00  0.00    +0.000 C 
ATOM     33  C   UNL     1      47.452   2.217   7.005  0.00  0.00    +0.000 C 
ATOM     34  C   UNL     1      46.645   3.445   6.601  0.00  0.00    +0.000 C 
ATOM     35  C   UNL     1      45.846   4.006   7.776  0.00  0.00    +0.000 C 
ENDBRANCH  27  30
ENDBRANCH  25  26
ENDBRANCH   6  25
TORSDOF 7
ENDMDL
MODEL 6
REMARK VINA RESULT:    -7.709      2.197      3.244
REMARK INTER + INTRA:         -12.057
REMARK INTER:                 -10.952
REMARK INTRA:                  -1.105
REMARK UNBOUND:                -1.193
REMARK  Name = 
REMARK  8 active torsions:
REMARK  status: ('A' for Active; 'I' for Inactive)
REMARK    1  A    between atoms: C_1  and  O_2
REMARK    2  A    between atoms: O_2  and  C_3
REMARK    3  A    between atoms: C_6  and  C_7
REMARK    4  A    between atoms: C_7  and  N_8
REMARK    5  A    between atoms: C_9  and  C_11
REMARK    6  A    between atoms: C_22  and  C_23
REMARK    7  A    between atoms: C_23  and  N_24
REMARK    8  A    between atoms: C_25  and  C_27
REMARK                            x       y       z     vdW  Elec       q    Type
REMARK                         _______ _______ _______ _____ _____    ______ ____
ROOT
ATOM      1  C   UNL     1      45.545   8.846  11.875  0.00  0.00    +0.000 A 
ATOM      2  C   UNL     1      46.560   9.808  11.824  0.00  0.00    +0.000 A 
ATOM      3  C   UNL     1      47.841   9.520  12.296  0.00  0.00    +0.000 A 
ATOM      4  C   UNL     1      48.127   8.268  12.845  0.00  0.00    +0.000 A 
ATOM      5  C   UNL     1      47.124   7.290  12.854  0.00  0.00    +0.000 A 
ATOM      6  C   UNL     1      45.835   7.555  12.350  0.00  0.00    +0.000 A 
ENDROOT
BRANCH   1   8
ATOM      7  C   UNL     1      43.871  10.450  11.422  0.00  0.00    +0.000 C 
ATOM      8  O   UNL     1      44.267   9.079  11.430  0.00  0.00    +0.000 OA
ENDBRANCH   1   8
BRANCH   4   9
ATOM      9  C   UNL     1      49.502   7.970  13.374  0.00  0.00    +0.000 C 
BRANCH   9  10
ATOM     10  N   UNL     1      49.451   7.110  14.531  0.00  0.00    +0.000 N 
ATOM     11  C   UNL     1      49.253   7.596  15.796  0.00  0.00    +0.000 C 
ATOM     12  O   UNL     1      49.120   8.795  16.025  0.00  0.00    +0.000 OA
ATOM     13  H   UNL     1      49.741   6.147  14.399  0.00  0.00    +0.000 HD
BRANCH  11  14
ATOM     14  C   UNL     1      49.137   6.602  16.873  0.00  0.00    +0.000 A 
ATOM     15  C   UNL     1      49.737   6.860  18.100  0.00  0.00    +0.000 A 
ATOM     16  S   UNL     1      49.505   5.624  19.251  0.00  0.00    +0.000 S 
ATOM     17  C   UNL     1      48.629   4.681  18.139  0.00  0.00    +0.000 A 
ATOM     18  N   UNL     1      48.161   3.452  18.486  0.00  0.00    +0.000 NA
ATOM     19  C   UNL     1      47.538   2.832  17.541  0.00  0.00    +0.000 A 
ATOM     20  N   UNL     1      47.329   3.336  16.283  0.00  0.00    +0.000 N 
ATOM     21  C   UNL     1      47.728   4.596  15.906  0.00  0.00    +0.000 A 
ATOM     22  O   UNL     1      47.433   5.057  14.809  0.00  0.00    +0.000 OA
ATOM     23  C   UNL     1      48.481   5.317  16.917  0.00  0.00    +0.000 A 
ATOM     24  H   UNL     1      46.807   2.811  15.598  0.00  0.00    +0.000 HD
ENDBRANCH  11  14
ENDBRANCH   9  10
ENDBRANCH   4   9
BRANCH   6  25
ATOM     25  C   UNL     1      44.822   6.437  12.334  0.00  0.00    +0.000 C 
BRANCH  25  26
ATOM     26  N   UNL     1      44.967   5.557  11.195  0.00  0.00    +0.000 N 
ATOM     27  C   UNL     1      43.899   4.922  10.600  0.00  0.00    +0.000 C 
ATOM     28  O   UNL     1      42.743   5.042  11.000  0.00  0.00    +0.000 OA
ATOM     29  H   UNL     1      45.897   5.442  10.824  0.00  0.00    +0.000 HD
BRANCH  27  30
ATOM     30  C   UNL     1      44.288   3.996   9.437  0.00  0.00    +0.000 C 
ATOM     31  C   UNL     1      44.558   2.566   9.928  0.00  0.00    +0.000 C 
ATOM     32  C   UNL     1      44.998   1.647   8.790  0.00  0.00    +0.000 C 
ATOM     33  C   UNL     1      46.217   2.199   8.062  0.00  0.00    +0.000 C 
ATOM     34  C   UNL     1      45.960   3.611   7.551  0.00  0.00    +0.000 C 
ATOM     35  C   UNL     1      45.507   4.544   8.674  0.00  0.00    +0.000 C 
ENDBRANCH  27  30
ENDBRANCH  25  26
ENDBRANCH   6  25
TORSDOF 7
ENDMDL
MODEL 7
REMARK VINA RESULT:    -7.655      3.460      9.025
REMARK INTER + INTRA:         -11.981
REMARK INTER:                 -10.680
REMARK INTRA:                  -1.301
REMARK UNBOUND:                -1.193
REMARK  Name = 
REMARK  8 active torsions:
REMARK  status: ('A' for Active; 'I' for Inactive)
REMARK    1  A    between atoms: C_1  and  O_2
REMARK    2  A    between atoms: O_2  and  C_3
REMARK    3  A    between atoms: C_6  and  C_7
REMARK    4  A    between atoms: C_7  and  N_8
REMARK    5  A    between atoms: C_9  and  C_11
REMARK    6  A    between atoms: C_22  and  C_23
REMARK    7  A    between atoms: C_23  and  N_24
REMARK    8  A    between atoms: C_25  and  C_27
REMARK                            x       y       z     vdW  Elec       q    Type
REMARK                         _______ _______ _______ _____ _____    ______ ____
ROOT
ATOM      1  C   UNL     1      48.451   5.615  19.446  0.00  0.00    +0.000 A 
ATOM      2  C   UNL     1      48.232   6.996  19.376  0.00  0.00    +0.000 A 
ATOM      3  C   UNL     1      48.338   7.675  18.162  0.00  0.00    +0.000 A 
ATOM      4  C   UNL     1      48.682   6.988  16.996  0.00  0.00    +0.000 A 
ATOM      5  C   UNL     1      48.856   5.599  17.056  0.00  0.00    +0.000 A 
ATOM      6  C   UNL     1      48.720   4.894  18.268  0.00  0.00    +0.000 A 
ENDROOT
BRANCH   1   8
ATOM      7  C   UNL     1      49.087   5.452  21.715  0.00  0.00    +0.000 C 
ATOM      8  O   UNL     1      48.365   4.900  20.614  0.00  0.00    +0.000 OA
ENDBRANCH   1   8
BRANCH   4   9
ATOM      9  C   UNL     1      48.818   7.729  15.694  0.00  0.00    +0.000 C 
BRANCH   9  10
ATOM     10  N   UNL     1      47.725   7.434  14.799  0.00  0.00    +0.000 N 
ATOM     11  C   UNL     1      47.890   6.682  13.666  0.00  0.00    +0.000 C 
ATOM     12  O   UNL     1      48.979   6.222  13.336  0.00  0.00    +0.000 OA
ATOM     13  H   UNL     1      46.864   7.950  14.944  0.00  0.00    +0.000 HD
BRANCH  11  14
ATOM     14  C   UNL     1      46.677   6.387  12.890  0.00  0.00    +0.000 A 
ATOM     15  C   UNL     1      45.998   7.430  12.271  0.00  0.00    +0.000 A 
ATOM     16  S   UNL     1      44.621   6.932  11.398  0.00  0.00    +0.000 S 
ATOM     17  C   UNL     1      44.858   5.309  11.849  0.00  0.00    +0.000 A 
ATOM     18  N   UNL     1      43.985   4.344  11.454  0.00  0.00    +0.000 NA
ATOM     19  C   UNL     1      44.266   3.161  11.888  0.00  0.00    +0.000 A 
ATOM     20  N   UNL     1      45.350   2.854  12.670  0.00  0.00    +0.000 N 
ATOM     21  C   UNL     1      46.292   3.784  13.041  0.00  0.00    +0.000 A 
ATOM     22  O   UNL     1      47.304   3.458  13.651  0.00  0.00    +0.000 OA
ATOM     23  C   UNL     1      45.994   5.143  12.623  0.00  0.00    +0.000 A 
ATOM     24  H   UNL     1      45.530   1.902  12.951  0.00  0.00    +0.000 HD
ENDBRANCH  11  14
ENDBRANCH   9  10
ENDBRANCH   4   9
BRANCH   6  25
ATOM     25  C   UNL     1      48.859   3.392  18.250  0.00  0.00    +0.000 C 
BRANCH  25  26
ATOM     26  N   UNL     1      50.233   2.951  18.156  0.00  0.00    +0.000 N 
ATOM     27  C   UNL     1      50.691   2.142  17.140  0.00  0.00    +0.000 C 
ATOM     28  O   UNL     1      49.964   1.721  16.243  0.00  0.00    +0.000 OA
ATOM     29  H   UNL     1      50.868   3.286  18.864  0.00  0.00    +0.000 HD
BRANCH  27  30
ATOM     30  C   UNL     1      52.172   1.755  17.263  0.00  0.00    +0.000 C 
ATOM     31  C   UNL     1      52.337   0.369  17.904  0.00  0.00    +0.000 C 
ATOM     32  C   UNL     1      53.807  -0.005  18.082  0.00  0.00    +0.000 C 
ATOM     33  C   UNL     1      54.560   1.046  18.888  0.00  0.00    +0.000 C 
ATOM     34  C   UNL     1      54.423   2.426  18.256  0.00  0.00    +0.000 C 
ATOM     35  C   UNL     1      52.958   2.813  18.058  0.00  0.00    +0.000 C 
ENDBRANCH  27  30
ENDBRANCH  25  26
ENDBRANCH   6  25
TORSDOF 7
ENDMDL
MODEL 8
REMARK VINA RESULT:    -7.576      3.194      6.861
REMARK INTER + INTRA:         -11.869
REMARK INTER:                  -9.642
REMARK INTRA:                  -2.227
REMARK UNBOUND:                -1.193
REMARK  Name = 
REMARK  8 active torsions:
REMARK  status: ('A' for Active; 'I' for Inactive)
REMARK    1  A    between atoms: C_1  and  O_2
REMARK    2  A    between atoms: O_2  and  C_3
REMARK    3  A    between atoms: C_6  and  C_7
REMARK    4  A    between atoms: C_7  and  N_8
REMARK    5  A    between atoms: C_9  and  C_11
REMARK    6  A    between atoms: C_22  and  C_23
REMARK    7  A    between atoms: C_23  and  N_24
REMARK    8  A    between atoms: C_25  and  C_27
REMARK                            x       y       z     vdW  Elec       q    Type
REMARK                         _______ _______ _______ _____ _____    ______ ____
ROOT
ATOM      1  C   UNL     1      45.224   4.510  11.818  0.00  0.00    +0.000 A 
ATOM      2  C   UNL     1      44.697   5.574  11.076  0.00  0.00    +0.000 A 
ATOM      3  C   UNL     1      44.952   6.895  11.444  0.00  0.00    +0.000 A 
ATOM      4  C   UNL     1      45.726   7.179  12.571  0.00  0.00    +0.000 A 
ATOM      5  C   UNL     1      46.291   6.115  13.287  0.00  0.00    +0.000 A 
ATOM      6  C   UNL     1      46.071   4.776  12.909  0.00  0.00    +0.000 A 
ENDROOT
BRANCH   1   8
ATOM      7  C   UNL     1      43.634   2.782  11.558  0.00  0.00    +0.000 C 
ATOM      8  O   UNL     1      45.000   3.192  11.504  0.00  0.00    +0.000 OA
ENDBRANCH   1   8
BRANCH   4   9
ATOM      9  C   UNL     1      45.978   8.604  12.977  0.00  0.00    +0.000 C 
BRANCH   9  10
ATOM     10  N   UNL     1      46.904   8.686  14.080  0.00  0.00    +0.000 N 
ATOM     11  C   UNL     1      48.134   9.277  13.961  0.00  0.00    +0.000 C 
ATOM     12  O   UNL     1      48.529   9.763  12.904  0.00  0.00    +0.000 OA
ATOM     13  H   UNL     1      46.685   8.135  14.903  0.00  0.00    +0.000 HD
BRANCH  11  14
ATOM     14  C   UNL     1      48.943   9.368  15.185  0.00  0.00    +0.000 A 
ATOM     15  C   UNL     1      49.126  10.608  15.786  0.00  0.00    +0.000 A 
ATOM     16  S   UNL     1      50.073  10.552  17.202  0.00  0.00    +0.000 S 
ATOM     17  C   UNL     1      50.307   8.875  17.041  0.00  0.00    +0.000 A 
ATOM     18  N   UNL     1      51.078   8.192  17.931  0.00  0.00    +0.000 NA
ATOM     19  C   UNL     1      51.195   6.932  17.677  0.00  0.00    +0.000 A 
ATOM     20  N   UNL     1      50.600   6.290  16.623  0.00  0.00    +0.000 N 
ATOM     21  C   UNL     1      49.765   6.925  15.735  0.00  0.00    +0.000 A 
ATOM     22  O   UNL     1      49.165   6.302  14.866  0.00  0.00    +0.000 OA
ATOM     23  C   UNL     1      49.640   8.357  15.944  0.00  0.00    +0.000 A 
ATOM     24  H   UNL     1      50.708   5.295  16.497  0.00  0.00    +0.000 HD
ENDBRANCH  11  14
ENDBRANCH   9  10
ENDBRANCH   4   9
BRANCH   6  25
ATOM     25  C   UNL     1      46.761   3.682  13.686  0.00  0.00    +0.000 C 
BRANCH  25  26
ATOM     26  N   UNL     1      46.841   3.958  15.104  0.00  0.00    +0.000 N 
ATOM     27  C   UNL     1      47.723   3.313  15.942  0.00  0.00    +0.000 C 
ATOM     28  O   UNL     1      48.500   2.444  15.553  0.00  0.00    +0.000 OA
ATOM     29  H   UNL     1      46.232   4.676  15.463  0.00  0.00    +0.000 HD
BRANCH  27  30
ATOM     30  C   UNL     1      47.604   3.725  17.417  0.00  0.00    +0.000 C 
ATOM     31  C   UNL     1      47.128   5.179  17.554  0.00  0.00    +0.000 C 
ATOM     32  C   UNL     1      47.056   5.620  19.015  0.00  0.00    +0.000 C 
ATOM     33  C   UNL     1      48.390   5.428  19.725  0.00  0.00    +0.000 C 
ATOM     34  C   UNL     1      48.869   3.985  19.616  0.00  0.00    +0.000 C 
ATOM     35  C   UNL     1      48.935   3.521  18.161  0.00  0.00    +0.000 C 
ENDBRANCH  27  30
ENDBRANCH  25  26
ENDBRANCH   6  25
TORSDOF 7
ENDMDL
MODEL 9
REMARK VINA RESULT:    -7.559      2.910      3.321
REMARK INTER + INTRA:         -11.845
REMARK INTER:                 -10.439
REMARK INTRA:                  -1.406
REMARK UNBOUND:                -1.193
REMARK  Name = 
REMARK  8 active torsions:
REMARK  status: ('A' for Active; 'I' for Inactive)
REMARK    1  A    between atoms: C_1  and  O_2
REMARK    2  A    between atoms: O_2  and  C_3
REMARK    3  A    between atoms: C_6  and  C_7
REMARK    4  A    between atoms: C_7  and  N_8
REMARK    5  A    between atoms: C_9  and  C_11
REMARK    6  A    between atoms: C_22  and  C_23
REMARK    7  A    between atoms: C_23  and  N_24
REMARK    8  A    between atoms: C_25  and  C_27
REMARK                            x       y       z     vdW  Elec       q    Type
REMARK                         _______ _______ _______ _____ _____    ______ ____
ROOT
ATOM      1  C   UNL     1      45.705   4.769  12.793  0.00  0.00    +0.000 A 
ATOM      2  C   UNL     1      46.310   4.638  14.049  0.00  0.00    +0.000 A 
ATOM      3  C   UNL     1      47.371   5.465  14.419  0.00  0.00    +0.000 A 
ATOM      4  C   UNL     1      47.859   6.428  13.534  0.00  0.00    +0.000 A 
ATOM      5  C   UNL     1      47.224   6.590  12.295  0.00  0.00    +0.000 A 
ATOM      6  C   UNL     1      46.131   5.786  11.920  0.00  0.00    +0.000 A 
ENDROOT
BRANCH   1   8
ATOM      7  C   UNL     1      43.401   4.279  12.974  0.00  0.00    +0.000 C 
ATOM      8  O   UNL     1      44.662   3.979  12.377  0.00  0.00    +0.000 OA
ENDBRANCH   1   8
BRANCH   4   9
ATOM      9  C   UNL     1      49.018   7.300  13.928  0.00  0.00    +0.000 C 
BRANCH   9  10
ATOM     10  N   UNL     1      49.302   7.200  15.339  0.00  0.00    +0.000 N 
ATOM     11  C   UNL     1      48.829   8.109  16.248  0.00  0.00    +0.000 C 
ATOM     12  O   UNL     1      48.143   9.073  15.916  0.00  0.00    +0.000 OA
ATOM     13  H   UNL     1      50.011   6.530  15.617  0.00  0.00    +0.000 HD
BRANCH  11  14
ATOM     14  C   UNL     1      49.122   7.839  17.663  0.00  0.00    +0.000 A 
ATOM     15  C   UNL     1      48.069   7.617  18.543  0.00  0.00    +0.000 A 
ATOM     16  S   UNL     1      48.565   7.305  20.143  0.00  0.00    +0.000 S 
ATOM     17  C   UNL     1      50.203   7.497  19.728  0.00  0.00    +0.000 A 
ATOM     18  N   UNL     1      51.176   7.393  20.673  0.00  0.00    +0.000 NA
ATOM     19  C   UNL     1      52.372   7.588  20.230  0.00  0.00    +0.000 A 
ATOM     20  N   UNL     1      52.685   7.863  18.924  0.00  0.00    +0.000 N 
ATOM     21  C   UNL     1      51.743   7.917  17.924  0.00  0.00    +0.000 A 
ATOM     22  O   UNL     1      52.066   8.060  16.750  0.00  0.00    +0.000 OA
ATOM     23  C   UNL     1      50.373   7.757  18.379  0.00  0.00    +0.000 A 
ATOM     24  H   UNL     1      53.646   7.975  18.636  0.00  0.00    +0.000 HD
ENDBRANCH  11  14
ENDBRANCH   9  10
ENDBRANCH   4   9
BRANCH   6  25
ATOM     25  C   UNL     1      45.454   6.056  10.598  0.00  0.00    +0.000 C 
BRANCH  25  26
ATOM     26  N   UNL     1      45.765   5.067   9.590  0.00  0.00    +0.000 N 
ATOM     27  C   UNL     1      44.808   4.266   9.007  0.00  0.00    +0.000 C 
ATOM     28  O   UNL     1      43.618   4.320   9.310  0.00  0.00    +0.000 OA
ATOM     29  H   UNL     1      46.729   4.999   9.300  0.00  0.00    +0.000 HD
BRANCH  27  30
ATOM     30  C   UNL     1      45.367   3.252   7.997  0.00  0.00    +0.000 C 
ATOM     31  C   UNL     1      45.805   1.955   8.692  0.00  0.00    +0.000 C 
ATOM     32  C   UNL     1      46.412   0.958   7.707  0.00  0.00    +0.000 C 
ATOM     33  C   UNL     1      47.577   1.568   6.938  0.00  0.00    +0.000 C 
ATOM     34  C   UNL     1      47.155   2.848   6.225  0.00  0.00    +0.000 C 
ATOM     35  C   UNL     1      46.533   3.854   7.193  0.00  0.00    +0.000 C 
ENDBRANCH  27  30
ENDBRANCH  25  26
ENDBRANCH   6  25
TORSDOF 7
ENDMDL
