MODEL 1
REMARK VINA RESULT:    -7.922      0.000      0.000
REMARK INTER + INTRA:         -12.328
REMARK INTER:                 -11.163
REMARK INTRA:                  -1.164
REMARK UNBOUND:                -1.164
REMARK  Name = 
REMARK  8 active torsions:
REMARK  status: ('A' for Active; 'I' for Inactive)
REMARK    1  A    between atoms: C_1  and  O_2
REMARK    2  A    between atoms: O_2  and  C_3
REMARK    3  A    between atoms: C_7  and  C_8
REMARK    4  A    between atoms: C_8  and  N_9
REMARK    5  A    between atoms: N_9  and  C_10
REMARK    6  A    between atoms: C_13  and  C_14
REMARK    7  A    between atoms: C_14  and  N_15
REMARK    8  A    between atoms: C_16  and  C_18
REMARK                            x       y       z     vdW  Elec       q    Type
REMARK                         _______ _______ _______ _____ _____    ______ ____
ROOT
ATOM      1  C   UNL     1      44.987   5.285  11.032  0.00  0.00    +0.000 C 
ATOM      2  C   UNL     1      44.103   6.294  11.788  0.00  0.00    +0.000 C 
ATOM      3  C   UNL     1      44.898   7.092  12.825  0.00  0.00    +0.000 C 
ATOM      4  C   UNL     1      46.111   7.798  12.197  0.00  0.00    +0.000 C 
ATOM      5  C   UNL     1      46.988   6.782  11.458  0.00  0.00    +0.000 C 
ATOM      6  C   UNL     1      46.200   5.998  10.415  0.00  0.00    +0.000 C 
ENDROOT
BRANCH   1   7
ATOM      7  N   UNL     1      44.158   4.612  10.024  0.00  0.00    +0.000 NA
ATOM      8  H   UNL     1      43.182   4.638  10.322  0.00  0.00    +0.000 HD
BRANCH   7   9
ATOM      9  C   UNL     1      44.531   3.211   9.809  0.00  0.00    +0.000 C 
BRANCH   9  14
ATOM     10  C   UNL     1      46.899   1.569   7.313  0.00  0.00    +0.000 A 
ATOM     11  C   UNL     1      47.144   2.614   6.421  0.00  0.00    +0.000 A 
ATOM     12  C   UNL     1      46.573   3.868   6.639  0.00  0.00    +0.000 A 
ATOM     13  C   UNL     1      45.737   4.079   7.735  0.00  0.00    +0.000 A 
ATOM     14  C   UNL     1      45.442   3.029   8.614  0.00  0.00    +0.000 A 
ATOM     15  C   UNL     1      46.062   1.788   8.410  0.00  0.00    +0.000 A 
BRANCH  10  17
ATOM     16  C   UNL     1      46.559  -0.752   7.663  0.00  0.00    +0.000 C 
ATOM     17  O   UNL     1      47.409   0.302   7.229  0.00  0.00    +0.000 OA
ENDBRANCH  10  17
ENDBRANCH   9  14
ENDBRANCH   7   9
ENDBRANCH   1   7
BRANCH   4  18
ATOM     18  C   UNL     1      46.968   8.531  13.242  0.00  0.00    +0.000 C 
BRANCH  18  19
ATOM     19  N   UNL     1      47.330   7.697  14.363  0.00  0.00    +0.000 N 
ATOM     20  C   UNL     1      48.627   7.331  14.620  0.00  0.00    +0.000 C 
ATOM     21  O   UNL     1      49.561   7.701  13.915  0.00  0.00    +0.000 OA
ATOM     22  H   UNL     1      46.575   7.275  14.894  0.00  0.00    +0.000 HD
BRANCH  20  23
ATOM     23  C   UNL     1      48.854   6.520  15.821  0.00  0.00    +0.000 A 
ATOM     24  C   UNL     1      49.780   6.944  16.763  0.00  0.00    +0.000 A 
ATOM     25  S   UNL     1      49.914   5.908  18.110  0.00  0.00    +0.000 S 
ATOM     26  C   UNL     1      48.765   4.827  17.458  0.00  0.00    +0.000 A 
ATOM     27  N   UNL     1      48.434   3.687  18.115  0.00  0.00    +0.000 NA
ATOM     28  C   UNL     1      47.586   2.940  17.494  0.00  0.00    +0.000 A 
ATOM     29  N   UNL     1      47.028   3.240  16.277  0.00  0.00    +0.000 N 
ATOM     30  C   UNL     1      47.287   4.413  15.607  0.00  0.00    +0.000 A 
ATOM     31  O   UNL     1      46.695   4.694  14.568  0.00  0.00    +0.000 OA
ATOM     32  C   UNL     1      48.272   5.269  16.245  0.00  0.00    +0.000 A 
ATOM     33  H   UNL     1      46.349   2.623  15.855  0.00  0.00    +0.000 HD
ENDBRANCH  20  23
ENDBRANCH  18  19
ENDBRANCH   4  18
TORSDOF 7
ENDMDL
MODEL 2
REMARK VINA RESULT:    -7.780      1.900      2.598
REMARK INTER + INTRA:         -12.128
REMARK INTER:                 -10.971
REMARK INTRA:                  -1.157
REMARK UNBOUND:                -1.164
REMARK  Name = 
REMARK  8 active torsions:
REMARK  status: ('A' for Active; 'I' for Inactive)
REMARK    1  A    between atoms: C_1  and  O_2
REMARK    2  A    between atoms: O_2  and  C_3
REMARK    3  A    between atoms: C_7  and  C_8
REMARK    4  A    between atoms: C_8  and  N_9
REMARK    5  A    between atoms: N_9  and  C_10
REMARK    6  A    between atoms: C_13  and  C_14
REMARK    7  A    between atoms: C_14  and  N_15
REMARK    8  A    between atoms: C_16  and  C_18
REMARK                            x       y       z     vdW  Elec       q    Type
REMARK                         _______ _______ _______ _____ _____    ______ ____
ROOT
ATOM      1  C   UNL     1      44.526   5.384  12.520  0.00  0.00    +0.000 C 
ATOM      2  C   UNL     1      44.940   6.635  11.723  0.00  0.00    +0.000 C 
ATOM      3  C   UNL     1      46.045   7.427  12.425  0.00  0.00    +0.000 C 
ATOM      4  C   UNL     1      47.270   6.551  12.732  0.00  0.00    +0.000 C 
ATOM      5  C   UNL     1      46.848   5.316  13.536  0.00  0.00    +0.000 C 
ATOM      6  C   UNL     1      45.758   4.520  12.829  0.00  0.00    +0.000 C 
ENDROOT
BRANCH   1   7
ATOM      7  N   UNL     1      43.510   4.659  11.747  0.00  0.00    +0.000 NA
ATOM      8  H   UNL     1      43.645   3.656  11.876  0.00  0.00    +0.000 HD
BRANCH   7   9
ATOM      9  C   UNL     1      43.564   4.944  10.310  0.00  0.00    +0.000 C 
BRANCH   9  14
ATOM     10  C   UNL     1      45.852   3.383   7.691  0.00  0.00    +0.000 A 
ATOM     11  C   UNL     1      45.837   2.038   8.063  0.00  0.00    +0.000 A 
ATOM     12  C   UNL     1      45.059   1.620   9.143  0.00  0.00    +0.000 A 
ATOM     13  C   UNL     1      44.311   2.545   9.870  0.00  0.00    +0.000 A 
ATOM     14  C   UNL     1      44.352   3.906   9.541  0.00  0.00    +0.000 A 
ATOM     15  C   UNL     1      45.099   4.304   8.423  0.00  0.00    +0.000 A 
BRANCH  10  17
ATOM     16  C   UNL     1      46.939   3.023   5.613  0.00  0.00    +0.000 C 
ATOM     17  O   UNL     1      46.551   3.921   6.645  0.00  0.00    +0.000 OA
ENDBRANCH  10  17
ENDBRANCH   9  14
ENDBRANCH   7   9
ENDBRANCH   1   7
BRANCH   4  18
ATOM     18  C   UNL     1      48.353   7.311  13.516  0.00  0.00    +0.000 C 
BRANCH  18  19
ATOM     19  N   UNL     1      48.166   7.247  14.946  0.00  0.00    +0.000 N 
ATOM     20  C   UNL     1      49.182   6.911  15.806  0.00  0.00    +0.000 C 
ATOM     21  O   UNL     1      50.315   6.655  15.409  0.00  0.00    +0.000 OA
ATOM     22  H   UNL     1      47.218   7.331  15.298  0.00  0.00    +0.000 HD
BRANCH  20  23
ATOM     23  C   UNL     1      48.861   6.931  17.237  0.00  0.00    +0.000 A 
ATOM     24  C   UNL     1      48.502   8.130  17.837  0.00  0.00    +0.000 A 
ATOM     25  S   UNL     1      48.138   7.987  19.496  0.00  0.00    +0.000 S 
ATOM     26  C   UNL     1      48.494   6.317  19.482  0.00  0.00    +0.000 A 
ATOM     27  N   UNL     1      48.409   5.581  20.619  0.00  0.00    +0.000 NA
ATOM     28  C   UNL     1      48.744   4.343  20.480  0.00  0.00    +0.000 A 
ATOM     29  N   UNL     1      49.143   3.773  19.297  0.00  0.00    +0.000 N 
ATOM     30  C   UNL     1      49.183   4.466  18.110  0.00  0.00    +0.000 A 
ATOM     31  O   UNL     1      49.450   3.900  17.053  0.00  0.00    +0.000 OA
ATOM     32  C   UNL     1      48.857   5.877  18.224  0.00  0.00    +0.000 A 
ATOM     33  H   UNL     1      49.369   2.789  19.250  0.00  0.00    +0.000 HD
ENDBRANCH  20  23
ENDBRANCH  18  19
ENDBRANCH   4  18
TORSDOF 7
ENDMDL
MODEL 3
REMARK VINA RESULT:    -7.620      2.376      3.227
REMARK INTER + INTRA:         -11.903
REMARK INTER:                 -10.630
REMARK INTRA:                  -1.273
REMARK UNBOUND:                -1.164
REMARK  Name = 
REMARK  8 active torsions:
REMARK  status: ('A' for Active; 'I' for Inactive)
REMARK    1  A    between atoms: C_1  and  O_2
REMARK    2  A    between atoms: O_2  and  C_3
REMARK    3  A    between atoms: C_7  and  C_8
REMARK    4  A    between atoms: C_8  and  N_9
REMARK    5  A    between atoms: N_9  and  C_10
REMARK    6  A    between atoms: C_13  and  C_14
REMARK    7  A    between atoms: C_14  and  N_15
REMARK    8  A    between atoms: C_16  and  C_18
REMARK                            x       y       z     vdW  Elec       q    Type
REMARK                         _______ _______ _______ _____ _____    ______ ____
ROOT
ATOM      1  C   UNL     1      44.438   5.219  12.686  0.00  0.00    +0.000 C 
ATOM      2  C   UNL     1      44.922   6.524  12.028  0.00  0.00    +0.000 C 
ATOM      3  C   UNL     1      46.017   7.211  12.848  0.00  0.00    +0.000 C 
ATOM      4  C   UNL     1      47.202   6.270  13.121  0.00  0.00    +0.000 C 
ATOM      5  C   UNL     1      46.709   4.981  13.787  0.00  0.00    +0.000 C 
ATOM      6  C   UNL     1      45.630   4.289  12.963  0.00  0.00    +0.000 C 
ENDROOT
BRANCH   1   7
ATOM      7  N   UNL     1      43.437   4.602  11.806  0.00  0.00    +0.000 NA
ATOM      8  H   UNL     1      43.515   3.586  11.872  0.00  0.00    +0.000 HD
BRANCH   7   9
ATOM      9  C   UNL     1      43.594   4.979  10.399  0.00  0.00    +0.000 C 
BRANCH   9  14
ATOM     10  C   UNL     1      45.855   3.445   7.740  0.00  0.00    +0.000 A 
ATOM     11  C   UNL     1      45.813   2.092   8.075  0.00  0.00    +0.000 A 
ATOM     12  C   UNL     1      45.024   1.659   9.142  0.00  0.00    +0.000 A 
ATOM     13  C   UNL     1      44.294   2.579   9.894  0.00  0.00    +0.000 A 
ATOM     14  C   UNL     1      44.362   3.947   9.602  0.00  0.00    +0.000 A 
ATOM     15  C   UNL     1      45.119   4.361   8.496  0.00  0.00    +0.000 A 
BRANCH  10  17
ATOM     16  C   UNL     1      46.953   3.118   5.663  0.00  0.00    +0.000 C 
ATOM     17  O   UNL     1      46.567   3.999   6.711  0.00  0.00    +0.000 OA
ENDBRANCH  10  17
ENDBRANCH   9  14
ENDBRANCH   7   9
ENDBRANCH   1   7
BRANCH   4  18
ATOM     18  C   UNL     1      48.270   6.918  14.018  0.00  0.00    +0.000 C 
BRANCH  18  19
ATOM     19  N   UNL     1      48.136   6.558  15.409  0.00  0.00    +0.000 N 
ATOM     20  C   UNL     1      49.220   6.307  16.212  0.00  0.00    +0.000 C 
ATOM     21  O   UNL     1      50.372   6.385  15.795  0.00  0.00    +0.000 OA
ATOM     22  H   UNL     1      47.202   6.364  15.753  0.00  0.00    +0.000 HD
BRANCH  20  23
ATOM     23  C   UNL     1      48.938   5.997  17.617  0.00  0.00    +0.000 A 
ATOM     24  C   UNL     1      49.196   4.720  18.097  0.00  0.00    +0.000 A 
ATOM     25  S   UNL     1      48.837   4.522  19.752  0.00  0.00    +0.000 S 
ATOM     26  C   UNL     1      48.279   6.131  19.875  0.00  0.00    +0.000 A 
ATOM     27  N   UNL     1      47.792   6.608  21.049  0.00  0.00    +0.000 NA
ATOM     28  C   UNL     1      47.367   7.824  20.996  0.00  0.00    +0.000 A 
ATOM     29  N   UNL     1      47.398   8.612  19.873  0.00  0.00    +0.000 N 
ATOM     30  C   UNL     1      47.940   8.190  18.681  0.00  0.00    +0.000 A 
ATOM     31  O   UNL     1      48.041   8.955  17.725  0.00  0.00    +0.000 OA
ATOM     32  C   UNL     1      48.393   6.810  18.678  0.00  0.00    +0.000 A 
ATOM     33  H   UNL     1      47.071   9.567  19.904  0.00  0.00    +0.000 HD
ENDBRANCH  20  23
ENDBRANCH  18  19
ENDBRANCH   4  18
TORSDOF 7
ENDMDL
MODEL 4
REMARK VINA RESULT:    -7.565      1.491      2.195
REMARK INTER + INTRA:         -11.824
REMARK INTER:                 -10.430
REMARK INTRA:                  -1.394
REMARK UNBOUND:                -1.164
REMARK  Name = 
REMARK  8 active torsions:
REMARK  status: ('A' for Active; 'I' for Inactive)
REMARK    1  A    between atoms: C_1  and  O_2
REMARK    2  A    between atoms: O_2  and  C_3
REMARK    3  A    between atoms: C_7  and  C_8
REMARK    4  A    between atoms: C_8  and  N_9
REMARK    5  A    between atoms: N_9  and  C_10
REMARK    6  A    between atoms: C_13  and  C_14
REMARK    7  A    between atoms: C_14  and  N_15
REMARK    8  A    between atoms: C_16  and  C_18
REMARK                            x       y       z     vdW  Elec       q    Type
REMARK                         _______ _______ _______ _____ _____    ______ ____
ROOT
ATOM      1  C   UNL     1      45.571   6.795  11.809  0.00  0.00    +0.000 C 
ATOM      2  C   UNL     1      45.400   8.239  12.316  0.00  0.00    +0.000 C 
ATOM      3  C   UNL     1      46.486   8.628  13.323  0.00  0.00    +0.000 C 
ATOM      4  C   UNL     1      47.897   8.418  12.751  0.00  0.00    +0.000 C 
ATOM      5  C   UNL     1      48.059   6.975  12.261  0.00  0.00    +0.000 C 
ATOM      6  C   UNL     1      46.986   6.592  11.248  0.00  0.00    +0.000 C 
ENDROOT
BRANCH   1   7
ATOM      7  N   UNL     1      44.527   6.531  10.810  0.00  0.00    +0.000 NA
ATOM      8  H   UNL     1      43.811   7.255  10.876  0.00  0.00    +0.000 HD
BRANCH   7   9
ATOM      9  C   UNL     1      43.876   5.230  10.983  0.00  0.00    +0.000 C 
BRANCH   9  14
ATOM     10  C   UNL     1      45.709   3.635   8.046  0.00  0.00    +0.000 A 
ATOM     11  C   UNL     1      45.476   2.278   8.267  0.00  0.00    +0.000 A 
ATOM     12  C   UNL     1      44.695   1.869   9.348  0.00  0.00    +0.000 A 
ATOM     13  C   UNL     1      44.162   2.811  10.227  0.00  0.00    +0.000 A 
ATOM     14  C   UNL     1      44.425   4.176  10.048  0.00  0.00    +0.000 A 
ATOM     15  C   UNL     1      45.171   4.575   8.929  0.00  0.00    +0.000 A 
BRANCH  10  17
ATOM     16  C   UNL     1      46.800   3.282   5.970  0.00  0.00    +0.000 C 
ATOM     17  O   UNL     1      46.436   4.171   7.018  0.00  0.00    +0.000 OA
ENDBRANCH  10  17
ENDBRANCH   9  14
ENDBRANCH   7   9
ENDBRANCH   1   7
BRANCH   4  18
ATOM     18  C   UNL     1      48.998   8.721  13.781  0.00  0.00    +0.000 C 
BRANCH  18  19
ATOM     19  N   UNL     1      49.147   7.683  14.773  0.00  0.00    +0.000 N 
ATOM     20  C   UNL     1      48.776   7.857  16.082  0.00  0.00    +0.000 C 
ATOM     21  O   UNL     1      48.285   8.907  16.487  0.00  0.00    +0.000 OA
ATOM     22  H   UNL     1      49.659   6.849  14.504  0.00  0.00    +0.000 HD
BRANCH  20  23
ATOM     23  C   UNL     1      48.940   6.701  16.970  0.00  0.00    +0.000 A 
ATOM     24  C   UNL     1      49.720   6.825  18.112  0.00  0.00    +0.000 A 
ATOM     25  S   UNL     1      49.795   5.405  19.051  0.00  0.00    +0.000 S 
ATOM     26  C   UNL     1      48.821   4.556  17.936  0.00  0.00    +0.000 A 
ATOM     27  N   UNL     1      48.520   3.247  18.135  0.00  0.00    +0.000 NA
ATOM     28  C   UNL     1      47.811   2.715  17.199  0.00  0.00    +0.000 A 
ATOM     29  N   UNL     1      47.364   3.380  16.085  0.00  0.00    +0.000 N 
ATOM     30  C   UNL     1      47.593   4.720  15.875  0.00  0.00    +0.000 A 
ATOM     31  O   UNL     1      47.094   5.307  14.918  0.00  0.00    +0.000 OA
ATOM     32  C   UNL     1      48.425   5.355  16.882  0.00  0.00    +0.000 A 
ATOM     33  H   UNL     1      46.790   2.910  15.400  0.00  0.00    +0.000 HD
ENDBRANCH  20  23
ENDBRANCH  18  19
ENDBRANCH   4  18
TORSDOF 7
ENDMDL
MODEL 5
REMARK VINA RESULT:    -7.477      2.011      2.515
REMARK INTER + INTRA:         -11.702
REMARK INTER:                 -10.895
REMARK INTRA:                  -0.807
REMARK UNBOUND:                -1.164
REMARK  Name = 
REMARK  8 active torsions:
REMARK  status: ('A' for Active; 'I' for Inactive)
REMARK    1  A    between atoms: C_1  and  O_2
REMARK    2  A    between atoms: O_2  and  C_3
REMARK    3  A    between atoms: C_7  and  C_8
REMARK    4  A    between atoms: C_8  and  N_9
REMARK    5  A    between atoms: N_9  and  C_10
REMARK    6  A    between atoms: C_13  and  C_14
REMARK    7  A    between atoms: C_14  and  N_15
REMARK    8  A    between atoms: C_16  and  C_18
REMARK                            x       y       z     vdW  Elec       q    Type
REMARK                         _______ _______ _______ _____ _____    ______ ____
ROOT
ATOM      1  C   UNL     1      44.439   4.859  11.574  0.00  0.00    +0.000 C 
ATOM      2  C   UNL     1      45.081   6.090  10.907  0.00  0.00    +0.000 C 
ATOM      3  C   UNL     1      45.943   6.891  11.886  0.00  0.00    +0.000 C 
ATOM      4  C   UNL     1      47.016   6.015  12.552  0.00  0.00    +0.000 C 
ATOM      5  C   UNL     1      46.364   4.800  13.222  0.00  0.00    +0.000 C 
ATOM      6  C   UNL     1      45.518   3.995  12.244  0.00  0.00    +0.000 C 
ENDROOT
BRANCH   1   7
ATOM      7  N   UNL     1      43.683   4.123  10.552  0.00  0.00    +0.000 NA
ATOM      8  H   UNL     1      42.731   3.970  10.886  0.00  0.00    +0.000 HD
BRANCH   7   9
ATOM      9  C   UNL     1      44.268   2.820  10.228  0.00  0.00    +0.000 C 
BRANCH   9  14
ATOM     10  C   UNL     1      46.731   1.727   7.530  0.00  0.00    +0.000 A 
ATOM     11  C   UNL     1      46.867   2.894   6.778  0.00  0.00    +0.000 A 
ATOM     12  C   UNL     1      46.191   4.054   7.157  0.00  0.00    +0.000 A 
ATOM     13  C   UNL     1      45.357   4.048   8.276  0.00  0.00    +0.000 A 
ATOM     14  C   UNL     1      45.171   2.873   9.015  0.00  0.00    +0.000 A 
ATOM     15  C   UNL     1      45.896   1.728   8.650  0.00  0.00    +0.000 A 
BRANCH  10  17
ATOM     16  C   UNL     1      46.603  -0.641   7.580  0.00  0.00    +0.000 C 
ATOM     17  O   UNL     1      47.350   0.532   7.283  0.00  0.00    +0.000 OA
ENDBRANCH  10  17
ENDBRANCH   9  14
ENDBRANCH   7   9
ENDBRANCH   1   7
BRANCH   4  18
ATOM     18  C   UNL     1      47.833   6.785  13.602  0.00  0.00    +0.000 C 
BRANCH  18  19
ATOM     19  N   UNL     1      47.864   6.130  14.888  0.00  0.00    +0.000 N 
ATOM     20  C   UNL     1      48.708   6.525  15.895  0.00  0.00    +0.000 C 
ATOM     21  O   UNL     1      49.481   7.470  15.766  0.00  0.00    +0.000 OA
ATOM     22  H   UNL     1      47.330   5.273  14.988  0.00  0.00    +0.000 HD
BRANCH  20  23
ATOM     23  C   UNL     1      48.599   5.798  17.165  0.00  0.00    +0.000 A 
ATOM     24  C   UNL     1      48.842   4.432  17.189  0.00  0.00    +0.000 A 
ATOM     25  S   UNL     1      48.699   3.735  18.738  0.00  0.00    +0.000 S 
ATOM     26  C   UNL     1      48.259   5.234  19.427  0.00  0.00    +0.000 A 
ATOM     27  N   UNL     1      47.964   5.329  20.748  0.00  0.00    +0.000 NA
ATOM     28  C   UNL     1      47.609   6.508  21.132  0.00  0.00    +0.000 A 
ATOM     29  N   UNL     1      47.535   7.606  20.311  0.00  0.00    +0.000 N 
ATOM     30  C   UNL     1      47.885   7.567  18.981  0.00  0.00    +0.000 A 
ATOM     31  O   UNL     1      47.902   8.589  18.300  0.00  0.00    +0.000 OA
ATOM     32  C   UNL     1      48.251   6.250  18.491  0.00  0.00    +0.000 A 
ATOM     33  H   UNL     1      47.273   8.508  20.680  0.00  0.00    +0.000 HD
ENDBRANCH  20  23
ENDBRANCH  18  19
ENDBRANCH   4  18
TORSDOF 7
ENDMDL
MODEL 6
REMARK VINA RESULT:    -7.004      2.533      3.275
REMARK INTER + INTRA:         -11.035
REMARK INTER:                 -10.209
REMARK INTRA:                  -0.825
REMARK UNBOUND:                -1.164
REMARK  Name = 
REMARK  8 active torsions:
REMARK  status: ('A' for Active; 'I' for Inactive)
REMARK    1  A    between atoms: C_1  and  O_2
REMARK    2  A    between atoms: O_2  and  C_3
REMARK    3  A    between atoms: C_7  and  C_8
REMARK    4  A    between atoms: C_8  and  N_9
REMARK    5  A    between atoms: N_9  and  C_10
REMARK    6  A    between atoms: C_13  and  C_14
REMARK    7  A    between atoms: C_14  and  N_15
REMARK    8  A    between atoms: C_16  and  C_18
REMARK                            x       y       z     vdW  Elec       q    Type
REMARK                         _______ _______ _______ _____ _____    ______ ____
ROOT
ATOM      1  C   UNL     1      45.807   5.162  11.200  0.00  0.00    +0.000 C 
ATOM      2  C   UNL     1      45.061   4.094  12.019  0.00  0.00    +0.000 C 
ATOM      3  C   UNL     1      45.906   3.564  13.180  0.00  0.00    +0.000 C 
ATOM      4  C   UNL     1      46.400   4.698  14.092  0.00  0.00    +0.000 C 
ATOM      5  C   UNL     1      47.151   5.749  13.267  0.00  0.00    +0.000 C 
ATOM      6  C   UNL     1      46.304   6.287  12.120  0.00  0.00    +0.000 C 
ENDROOT
BRANCH   1   7
ATOM      7  N   UNL     1      44.903   5.653  10.151  0.00  0.00    +0.000 NA
ATOM      8  H   UNL     1      44.179   6.232  10.578  0.00  0.00    +0.000 HD
BRANCH   7   9
ATOM      9  C   UNL     1      44.245   4.578   9.405  0.00  0.00    +0.000 C 
BRANCH   9  14
ATOM     10  C   UNL     1      46.139   1.558   8.051  0.00  0.00    +0.000 A 
ATOM     11  C   UNL     1      47.001   2.152   7.129  0.00  0.00    +0.000 A 
ATOM     12  C   UNL     1      47.003   3.537   6.963  0.00  0.00    +0.000 A 
ATOM     13  C   UNL     1      46.126   4.334   7.699  0.00  0.00    +0.000 A 
ATOM     14  C   UNL     1      45.220   3.751   8.594  0.00  0.00    +0.000 A 
ATOM     15  C   UNL     1      45.265   2.362   8.786  0.00  0.00    +0.000 A 
BRANCH  10  17
ATOM     16  C   UNL     1      46.864  -0.642   7.542  0.00  0.00    +0.000 C 
ATOM     17  O   UNL     1      46.050   0.221   8.326  0.00  0.00    +0.000 OA
ENDBRANCH  10  17
ENDBRANCH   9  14
ENDBRANCH   7   9
ENDBRANCH   1   7
BRANCH   4  18
ATOM     18  C   UNL     1      47.323   4.190  15.212  0.00  0.00    +0.000 C 
BRANCH  18  19
ATOM     19  N   UNL     1      47.523   5.158  16.264  0.00  0.00    +0.000 N 
ATOM     20  C   UNL     1      48.640   5.159  17.060  0.00  0.00    +0.000 C 
ATOM     21  O   UNL     1      49.543   4.340  16.918  0.00  0.00    +0.000 OA
ATOM     22  H   UNL     1      46.745   5.770  16.489  0.00  0.00    +0.000 HD
BRANCH  20  23
ATOM     23  C   UNL     1      48.733   6.230  18.058  0.00  0.00    +0.000 A 
ATOM     24  C   UNL     1      48.793   7.551  17.636  0.00  0.00    +0.000 A 
ATOM     25  S   UNL     1      48.874   8.678  18.911  0.00  0.00    +0.000 S 
ATOM     26  C   UNL     1      48.878   7.433  20.079  0.00  0.00    +0.000 A 
ATOM     27  N   UNL     1      48.963   7.724  21.402  0.00  0.00    +0.000 NA
ATOM     28  C   UNL     1      48.997   6.692  22.174  0.00  0.00    +0.000 A 
ATOM     29  N   UNL     1      48.939   5.392  21.740  0.00  0.00    +0.000 N 
ATOM     30  C   UNL     1      48.789   5.054  20.415  0.00  0.00    +0.000 A 
ATOM     31  O   UNL     1      48.641   3.884  20.071  0.00  0.00    +0.000 OA
ATOM     32  C   UNL     1      48.790   6.182  19.500  0.00  0.00    +0.000 A 
ATOM     33  H   UNL     1      48.945   4.627  22.399  0.00  0.00    +0.000 HD
ENDBRANCH  20  23
ENDBRANCH  18  19
ENDBRANCH   4  18
TORSDOF 7
ENDMDL
MODEL 7
REMARK VINA RESULT:    -6.848      2.163      3.112
REMARK INTER + INTRA:         -10.815
REMARK INTER:                  -9.556
REMARK INTRA:                  -1.259
REMARK UNBOUND:                -1.164
REMARK  Name = 
REMARK  8 active torsions:
REMARK  status: ('A' for Active; 'I' for Inactive)
REMARK    1  A    between atoms: C_1  and  O_2
REMARK    2  A    between atoms: O_2  and  C_3
REMARK    3  A    between atoms: C_7  and  C_8
REMARK    4  A    between atoms: C_8  and  N_9
REMARK    5  A    between atoms: N_9  and  C_10
REMARK    6  A    between atoms: C_13  and  C_14
REMARK    7  A    between atoms: C_14  and  N_15
REMARK    8  A    between atoms: C_16  and  C_18
REMARK                            x       y       z     vdW  Elec       q    Type
REMARK                         _______ _______ _______ _____ _____    ______ ____
ROOT
ATOM      1  C   UNL     1      45.619   6.694  13.065  0.00  0.00    +0.000 C 
ATOM      2  C   UNL     1      45.738   8.005  12.267  0.00  0.00    +0.000 C 
ATOM      3  C   UNL     1      47.113   8.657  12.432  0.00  0.00    +0.000 C 
ATOM      4  C   UNL     1      48.251   7.693  12.062  0.00  0.00    +0.000 C 
ATOM      5  C   UNL     1      48.129   6.397  12.871  0.00  0.00    +0.000 C 
ATOM      6  C   UNL     1      46.765   5.740  12.695  0.00  0.00    +0.000 C 
ENDROOT
BRANCH   1   7
ATOM      7  N   UNL     1      44.296   6.113  12.801  0.00  0.00    +0.000 NA
ATOM      8  H   UNL     1      44.307   5.126  13.061  0.00  0.00    +0.000 HD
BRANCH   7   9
ATOM      9  C   UNL     1      43.892   6.208  11.396  0.00  0.00    +0.000 C 
BRANCH   9  14
ATOM     10  C   UNL     1      45.466   4.041   8.683  0.00  0.00    +0.000 A 
ATOM     11  C   UNL     1      45.045   2.765   9.056  0.00  0.00    +0.000 A 
ATOM     12  C   UNL     1      44.219   2.598  10.168  0.00  0.00    +0.000 A 
ATOM     13  C   UNL     1      43.830   3.702  10.926  0.00  0.00    +0.000 A 
ATOM     14  C   UNL     1      44.282   4.986  10.595  0.00  0.00    +0.000 A 
ATOM     15  C   UNL     1      45.071   5.143   9.445  0.00  0.00    +0.000 A 
BRANCH  10  17
ATOM     16  C   UNL     1      46.689   3.253   6.810  0.00  0.00    +0.000 C 
ATOM     17  O   UNL     1      46.256   4.347   7.608  0.00  0.00    +0.000 OA
ENDBRANCH  10  17
ENDBRANCH   9  14
ENDBRANCH   7   9
ENDBRANCH   1   7
BRANCH   4  18
ATOM     18  C   UNL     1      49.641   8.304  12.306  0.00  0.00    +0.000 C 
BRANCH  18  19
ATOM     19  N   UNL     1      50.393   7.611  13.325  0.00  0.00    +0.000 N 
ATOM     20  C   UNL     1      50.472   8.063  14.618  0.00  0.00    +0.000 C 
ATOM     21  O   UNL     1      49.897   9.082  14.988  0.00  0.00    +0.000 OA
ATOM     22  H   UNL     1      50.978   6.837  13.028  0.00  0.00    +0.000 HD
BRANCH  20  23
ATOM     23  C   UNL     1      51.233   7.233  15.558  0.00  0.00    +0.000 A 
ATOM     24  C   UNL     1      52.615   7.351  15.604  0.00  0.00    +0.000 A 
ATOM     25  S   UNL     1      53.352   6.339  16.760  0.00  0.00    +0.000 S 
ATOM     26  C   UNL     1      51.848   5.671  17.211  0.00  0.00    +0.000 A 
ATOM     27  N   UNL     1      51.775   4.701  18.157  0.00  0.00    +0.000 NA
ATOM     28  C   UNL     1      50.585   4.255  18.374  0.00  0.00    +0.000 A 
ATOM     29  N   UNL     1      49.456   4.705  17.736  0.00  0.00    +0.000 N 
ATOM     30  C   UNL     1      49.476   5.729  16.818  0.00  0.00    +0.000 A 
ATOM     31  O   UNL     1      48.435   6.173  16.341  0.00  0.00    +0.000 OA
ATOM     32  C   UNL     1      50.801   6.235  16.507  0.00  0.00    +0.000 A 
ATOM     33  H   UNL     1      48.548   4.330  17.971  0.00  0.00    +0.000 HD
ENDBRANCH  20  23
ENDBRANCH  18  19
ENDBRANCH   4  18
TORSDOF 7
ENDMDL
MODEL 8
REMARK VINA RESULT:    -6.801      4.084      6.303
REMARK INTER + INTRA:         -10.749
REMARK INTER:                  -9.952
REMARK INTRA:                  -0.796
REMARK UNBOUND:                -1.164
REMARK  Name = 
REMARK  8 active torsions:
REMARK  status: ('A' for Active; 'I' for Inactive)
REMARK    1  A    between atoms: C_1  and  O_2
REMARK    2  A    between atoms: O_2  and  C_3
REMARK    3  A    between atoms: C_7  and  C_8
REMARK    4  A    between atoms: C_8  and  N_9
REMARK    5  A    between atoms: N_9  and  C_10
REMARK    6  A    between atoms: C_13  and  C_14
REMARK    7  A    between atoms: C_14  and  N_15
REMARK    8  A    between atoms: C_16  and  C_18
REMARK                            x       y       z     vdW  Elec       q    Type
REMARK                         _______ _______ _______ _____ _____    ______ ____
ROOT
ATOM      1  C   UNL     1      44.557   6.661  11.561  0.00  0.00    +0.000 C 
ATOM      2  C   UNL     1      43.734   5.720  12.460  0.00  0.00    +0.000 C 
ATOM      3  C   UNL     1      44.574   4.563  13.004  0.00  0.00    +0.000 C 
ATOM      4  C   UNL     1      45.824   5.063  13.746  0.00  0.00    +0.000 C 
ATOM      5  C   UNL     1      46.641   5.989  12.838  0.00  0.00    +0.000 C 
ATOM      6  C   UNL     1      45.808   7.149  12.307  0.00  0.00    +0.000 C 
ENDROOT
BRANCH   1   7
ATOM      7  N   UNL     1      43.690   7.768  11.135  0.00  0.00    +0.000 NA
ATOM      8  H   UNL     1      43.335   7.572  10.198  0.00  0.00    +0.000 HD
BRANCH   7   9
ATOM      9  C   UNL     1      44.377   9.061  11.100  0.00  0.00    +0.000 C 
BRANCH   9  14
ATOM     10  C   UNL     1      41.346  11.049   9.921  0.00  0.00    +0.000 A 
ATOM     11  C   UNL     1      41.946  12.109   9.241  0.00  0.00    +0.000 A 
ATOM     12  C   UNL     1      43.335  12.172   9.129  0.00  0.00    +0.000 A 
ATOM     13  C   UNL     1      44.132  11.188   9.714  0.00  0.00    +0.000 A 
ATOM     14  C   UNL     1      43.549  10.142  10.441  0.00  0.00    +0.000 A 
ATOM     15  C   UNL     1      42.150  10.066  10.503  0.00  0.00    +0.000 A 
BRANCH  10  17
ATOM     16  C   UNL     1      39.586  10.344  11.346  0.00  0.00    +0.000 C 
ATOM     17  O   UNL     1      40.001  10.857  10.087  0.00  0.00    +0.000 OA
ENDBRANCH  10  17
ENDBRANCH   9  14
ENDBRANCH   7   9
ENDBRANCH   1   7
BRANCH   4  18
ATOM     18  C   UNL     1      46.724   3.910  14.223  0.00  0.00    +0.000 C 
BRANCH  18  19
ATOM     19  N   UNL     1      47.667   4.312  15.238  0.00  0.00    +0.000 N 
ATOM     20  C   UNL     1      47.507   3.987  16.561  0.00  0.00    +0.000 C 
ATOM     21  O   UNL     1      46.553   3.325  16.959  0.00  0.00    +0.000 OA
ATOM     22  H   UNL     1      48.398   4.961  14.966  0.00  0.00    +0.000 HD
BRANCH  20  23
ATOM     23  C   UNL     1      48.568   4.422  17.476  0.00  0.00    +0.000 A 
ATOM     24  C   UNL     1      48.395   5.583  18.216  0.00  0.00    +0.000 A 
ATOM     25  S   UNL     1      49.703   5.942  19.248  0.00  0.00    +0.000 S 
ATOM     26  C   UNL     1      50.571   4.576  18.707  0.00  0.00    +0.000 A 
ATOM     27  N   UNL     1      51.814   4.310  19.184  0.00  0.00    +0.000 NA
ATOM     28  C   UNL     1      52.375   3.272  18.663  0.00  0.00    +0.000 A 
ATOM     29  N   UNL     1      51.796   2.467  17.715  0.00  0.00    +0.000 N 
ATOM     30  C   UNL     1      50.517   2.663  17.250  0.00  0.00    +0.000 A 
ATOM     31  O   UNL     1      49.994   1.866  16.475  0.00  0.00    +0.000 OA
ATOM     32  C   UNL     1      49.858   3.847  17.775  0.00  0.00    +0.000 A 
ATOM     33  H   UNL     1      52.280   1.653  17.365  0.00  0.00    +0.000 HD
ENDBRANCH  20  23
ENDBRANCH  18  19
ENDBRANCH   4  18
TORSDOF 7
ENDMDL
MODEL 9
REMARK VINA RESULT:    -6.751      2.800      4.276
REMARK INTER + INTRA:         -10.678
REMARK INTER:                  -9.591
REMARK INTRA:                  -1.087
REMARK UNBOUND:                -1.164
REMARK  Name = 
REMARK  8 active torsions:
REMARK  status: ('A' for Active; 'I' for Inactive)
REMARK    1  A    between atoms: C_1  and  O_2
REMARK    2  A    between atoms: O_2  and  C_3
REMARK    3  A    between atoms: C_7  and  C_8
REMARK    4  A    between atoms: C_8  and  N_9
REMARK    5  A    between atoms: N_9  and  C_10
REMARK    6  A    between atoms: C_13  and  C_14
REMARK    7  A    between atoms: C_14  and  N_15
REMARK    8  A    between atoms: C_16  and  C_18
REMARK                            x       y       z     vdW  Elec       q    Type
REMARK                         _______ _______ _______ _____ _____    ______ ____
ROOT
ATOM      1  C   UNL     1      44.458   4.986  11.196  0.00  0.00    +0.000 C 
ATOM      2  C   UNL     1      45.545   6.019  10.848  0.00  0.00    +0.000 C 
ATOM      3  C   UNL     1      46.247   6.560  12.096  0.00  0.00    +0.000 C 
ATOM      4  C   UNL     1      46.831   5.429  12.958  0.00  0.00    +0.000 C 
ATOM      5  C   UNL     1      45.738   4.414  13.308  0.00  0.00    +0.000 C 
ATOM      6  C   UNL     1      45.049   3.865  12.065  0.00  0.00    +0.000 C 
ENDROOT
BRANCH   1   7
ATOM      7  N   UNL     1      43.882   4.482   9.943  0.00  0.00    +0.000 NA
ATOM      8  H   UNL     1      42.864   4.508  10.008  0.00  0.00    +0.000 HD
BRANCH   7   9
ATOM      9  C   UNL     1      44.283   3.107   9.634  0.00  0.00    +0.000 C 
BRANCH   9  14
ATOM     10  C   UNL     1      46.920   1.685   7.276  0.00  0.00    +0.000 A 
ATOM     11  C   UNL     1      47.368   2.833   6.623  0.00  0.00    +0.000 A 
ATOM     12  C   UNL     1      46.847   4.081   6.965  0.00  0.00    +0.000 A 
ATOM     13  C   UNL     1      45.859   4.186   7.944  0.00  0.00    +0.000 A 
ATOM     14  C   UNL     1      45.362   3.039   8.576  0.00  0.00    +0.000 A 
ATOM     15  C   UNL     1      45.931   1.797   8.257  0.00  0.00    +0.000 A 
BRANCH  10  17
ATOM     16  C   UNL     1      46.625  -0.633   7.687  0.00  0.00    +0.000 C 
ATOM     17  O   UNL     1      47.358   0.408   7.054  0.00  0.00    +0.000 OA
ENDBRANCH  10  17
ENDBRANCH   9  14
ENDBRANCH   7   9
ENDBRANCH   1   7
BRANCH   4  18
ATOM     18  C   UNL     1      47.463   5.950  14.260  0.00  0.00    +0.000 C 
BRANCH  18  19
ATOM     19  N   UNL     1      48.796   6.472  14.072  0.00  0.00    +0.000 N 
ATOM     20  C   UNL     1      49.127   7.770  14.371  0.00  0.00    +0.000 C 
ATOM     21  O   UNL     1      48.308   8.563  14.827  0.00  0.00    +0.000 OA
ATOM     22  H   UNL     1      49.464   5.884  13.585  0.00  0.00    +0.000 HD
BRANCH  20  23
ATOM     23  C   UNL     1      50.529   8.151  14.175  0.00  0.00    +0.000 A 
ATOM     24  C   UNL     1      51.418   8.046  15.236  0.00  0.00    +0.000 A 
ATOM     25  S   UNL     1      53.013   8.503  14.845  0.00  0.00    +0.000 S 
ATOM     26  C   UNL     1      52.561   8.902  13.248  0.00  0.00    +0.000 A 
ATOM     27  N   UNL     1      53.474   9.396  12.373  0.00  0.00    +0.000 NA
ATOM     28  C   UNL     1      52.994   9.695  11.214  0.00  0.00    +0.000 A 
ATOM     29  N   UNL     1      51.682   9.530  10.848  0.00  0.00    +0.000 N 
ATOM     30  C   UNL     1      50.738   8.976  11.681  0.00  0.00    +0.000 A 
ATOM     31  O   UNL     1      49.597   8.751  11.288  0.00  0.00    +0.000 OA
ATOM     32  C   UNL     1      51.221   8.663  13.015  0.00  0.00    +0.000 A 
ATOM     33  H   UNL     1      51.374   9.761   9.914  0.00  0.00    +0.000 HD
ENDBRANCH  20  23
ENDBRANCH  18  19
ENDBRANCH   4  18
TORSDOF 7
ENDMDL
