MODEL 1
REMARK VINA RESULT:    -8.102      0.000      0.000
REMARK INTER + INTRA:         -11.466
REMARK INTER:                 -10.470
REMARK INTRA:                  -0.997
REMARK UNBOUND:                -0.997
REMARK  Name = 
REMARK  6 active torsions:
REMARK  status: ('A' for Active; 'I' for Inactive)
REMARK    1  A    between atoms: C_1  and  C_2
REMARK    2  A    between atoms: C_2  and  C_3
REMARK    3  A    between atoms: C_2  and  C_14
REMARK    4  A    between atoms: C_3  and  N_4
REMARK    5  A    between atoms: C_8  and  C_9
REMARK    6  A    between atoms: C_18  and  N_19
REMARK                            x       y       z     vdW  Elec       q    Type
REMARK                         _______ _______ _______ _____ _____    ______ ____
ROOT
ATOM      1  C   UNL     1      42.508   6.110  12.253  0.00  0.00    +0.000 C 
ATOM      2  C   UNL     1      43.170   4.733  12.334  0.00  0.00    +0.000 C 
ENDROOT
BRANCH   2   3
ATOM      3  C   UNL     1      44.614   4.863  12.815  0.00  0.00    +0.000 A 
ATOM      4  C   UNL     1      45.386   3.725  13.052  0.00  0.00    +0.000 A 
ATOM      5  C   UNL     1      46.722   3.858  13.422  0.00  0.00    +0.000 A 
ATOM      6  C   UNL     1      47.298   5.128  13.535  0.00  0.00    +0.000 A 
ATOM      7  C   UNL     1      46.562   6.298  13.304  0.00  0.00    +0.000 A 
ATOM      8  C   UNL     1      45.211   6.135  12.971  0.00  0.00    +0.000 A 
BRANCH   7   9
ATOM      9  N   UNL     1      47.158   7.541  13.418  0.00  0.00    +0.000 N 
ATOM     10  C   UNL     1      46.398   8.801  13.408  0.00  0.00    +0.000 C 
ATOM     11  C   UNL     1      46.662   9.599  12.122  0.00  0.00    +0.000 C 
ATOM     12  O   UNL     1      48.068   9.814  11.916  0.00  0.00    +0.000 OA
ATOM     13  C   UNL     1      48.745   8.551  11.802  0.00  0.00    +0.000 C 
ATOM     14  C   UNL     1      48.585   7.695  13.071  0.00  0.00    +0.000 C 
ENDBRANCH   7   9
ENDBRANCH   2   3
BRANCH   2  15
ATOM     15  C   UNL     1      43.152   3.978  10.987  0.00  0.00    +0.000 C 
BRANCH  15  16
ATOM     16  N   UNL     1      43.839   4.703   9.912  0.00  0.00    +0.000 N 
ATOM     17  C   UNL     1      44.720   3.866   9.192  0.00  0.00    +0.000 A 
ATOM     18  C   UNL     1      45.476   4.420   8.164  0.00  0.00    +0.000 A 
ATOM     19  C   UNL     1      46.343   3.603   7.433  0.00  0.00    +0.000 A 
ATOM     20  C   UNL     1      46.440   2.243   7.739  0.00  0.00    +0.000 A 
ATOM     21  C   UNL     1      45.646   1.776   8.769  0.00  0.00    +0.000 A 
ATOM     22  N   UNL     1      44.799   2.553   9.487  0.00  0.00    +0.000 NA
ATOM     23  H   UNL     1      44.376   5.492  10.259  0.00  0.00    +0.000 HD
BRANCH  20  24
ATOM     24  C   UNL     1      47.359   1.381   6.962  0.00  0.00    +0.000 C 
ATOM     25  N   UNL     1      48.504   1.921   6.453  0.00  0.00    +0.000 N 
ATOM     26  O   UNL     1      47.103   0.198   6.764  0.00  0.00    +0.000 OA
ATOM     27  H   UNL     1      48.818   2.868   6.560  0.00  0.00    +0.000 HD
ATOM     28  H   UNL     1      49.105   1.293   5.932  0.00  0.00    +0.000 HD
ENDBRANCH  20  24
ENDBRANCH  15  16
ENDBRANCH   2  15
TORSDOF 5
ENDMDL
MODEL 2
REMARK VINA RESULT:    -7.573      2.114      3.022
REMARK INTER + INTRA:         -10.783
REMARK INTER:                 -10.238
REMARK INTRA:                  -0.546
REMARK UNBOUND:                -0.997
REMARK  Name = 
REMARK  6 active torsions:
REMARK  status: ('A' for Active; 'I' for Inactive)
REMARK    1  A    between atoms: C_1  and  C_2
REMARK    2  A    between atoms: C_2  and  C_3
REMARK    3  A    between atoms: C_2  and  C_14
REMARK    4  A    between atoms: C_3  and  N_4
REMARK    5  A    between atoms: C_8  and  C_9
REMARK    6  A    between atoms: C_18  and  N_19
REMARK                            x       y       z     vdW  Elec       q    Type
REMARK                         _______ _______ _______ _____ _____    ______ ____
ROOT
ATOM      1  C   UNL     1      42.164   6.034  12.171  0.00  0.00    +0.000 C 
ATOM      2  C   UNL     1      43.274   4.990  12.320  0.00  0.00    +0.000 C 
ENDROOT
BRANCH   2   3
ATOM      3  C   UNL     1      44.604   5.668  12.637  0.00  0.00    +0.000 A 
ATOM      4  C   UNL     1      44.899   6.928  12.112  0.00  0.00    +0.000 A 
ATOM      5  C   UNL     1      46.085   7.567  12.465  0.00  0.00    +0.000 A 
ATOM      6  C   UNL     1      46.970   6.960  13.363  0.00  0.00    +0.000 A 
ATOM      7  C   UNL     1      46.716   5.699  13.917  0.00  0.00    +0.000 A 
ATOM      8  C   UNL     1      45.534   5.063  13.514  0.00  0.00    +0.000 A 
BRANCH   7   9
ATOM      9  N   UNL     1      47.607   5.125  14.806  0.00  0.00    +0.000 N 
ATOM     10  C   UNL     1      47.384   3.812  15.432  0.00  0.00    +0.000 C 
ATOM     11  C   UNL     1      47.101   3.954  16.935  0.00  0.00    +0.000 C 
ATOM     12  O   UNL     1      48.136   4.700  17.597  0.00  0.00    +0.000 OA
ATOM     13  C   UNL     1      48.224   6.020  17.035  0.00  0.00    +0.000 C 
ATOM     14  C   UNL     1      48.560   5.986  15.533  0.00  0.00    +0.000 C 
ENDBRANCH   7   9
ENDBRANCH   2   3
BRANCH   2  15
ATOM     15  C   UNL     1      43.442   4.109  11.062  0.00  0.00    +0.000 C 
BRANCH  15  16
ATOM     16  N   UNL     1      44.093   4.812   9.951  0.00  0.00    +0.000 N 
ATOM     17  C   UNL     1      44.898   3.945   9.179  0.00  0.00    +0.000 A 
ATOM     18  C   UNL     1      45.614   4.474   8.110  0.00  0.00    +0.000 A 
ATOM     19  C   UNL     1      46.405   3.627   7.328  0.00  0.00    +0.000 A 
ATOM     20  C   UNL     1      46.467   2.264   7.625  0.00  0.00    +0.000 A 
ATOM     21  C   UNL     1      45.716   1.823   8.698  0.00  0.00    +0.000 A 
ATOM     22  N   UNL     1      44.943   2.629   9.466  0.00  0.00    +0.000 NA
ATOM     23  H   UNL     1      44.680   5.579  10.268  0.00  0.00    +0.000 HD
BRANCH  20  24
ATOM     24  C   UNL     1      47.304   1.370   6.794  0.00  0.00    +0.000 C 
ATOM     25  N   UNL     1      48.331   1.906   6.071  0.00  0.00    +0.000 N 
ATOM     26  O   UNL     1      47.086   0.165   6.740  0.00  0.00    +0.000 OA
ATOM     27  H   UNL     1      48.606   2.871   6.047  0.00  0.00    +0.000 HD
ATOM     28  H   UNL     1      48.880   1.257   5.521  0.00  0.00    +0.000 HD
ENDBRANCH  20  24
ENDBRANCH  15  16
ENDBRANCH   2  15
TORSDOF 5
ENDMDL
MODEL 3
REMARK VINA RESULT:    -7.231      2.982      7.272
REMARK INTER + INTRA:         -10.342
REMARK INTER:                  -9.673
REMARK INTRA:                  -0.669
REMARK UNBOUND:                -0.997
REMARK  Name = 
REMARK  6 active torsions:
REMARK  status: ('A' for Active; 'I' for Inactive)
REMARK    1  A    between atoms: C_1  and  C_2
REMARK    2  A    between atoms: C_2  and  C_3
REMARK    3  A    between atoms: C_2  and  C_14
REMARK    4  A    between atoms: C_3  and  N_4
REMARK    5  A    between atoms: C_8  and  C_9
REMARK    6  A    between atoms: C_18  and  N_19
REMARK                            x       y       z     vdW  Elec       q    Type
REMARK                         _______ _______ _______ _____ _____    ______ ____
ROOT
ATOM      1  C   UNL     1      45.941   8.233  13.122  0.00  0.00    +0.000 C 
ATOM      2  C   UNL     1      46.423   7.330  11.982  0.00  0.00    +0.000 C 
ENDROOT
BRANCH   2   3
ATOM      3  C   UNL     1      45.430   6.194  11.747  0.00  0.00    +0.000 A 
ATOM      4  C   UNL     1      44.400   5.955  12.658  0.00  0.00    +0.000 A 
ATOM      5  C   UNL     1      43.459   4.962  12.396  0.00  0.00    +0.000 A 
ATOM      6  C   UNL     1      43.530   4.220  11.212  0.00  0.00    +0.000 A 
ATOM      7  C   UNL     1      44.544   4.427  10.268  0.00  0.00    +0.000 A 
ATOM      8  C   UNL     1      45.498   5.405  10.575  0.00  0.00    +0.000 A 
BRANCH   7   9
ATOM      9  N   UNL     1      44.588   3.682   9.103  0.00  0.00    +0.000 N 
ATOM     10  C   UNL     1      44.470   2.215   9.082  0.00  0.00    +0.000 C 
ATOM     11  C   UNL     1      45.800   1.556   8.693  0.00  0.00    +0.000 C 
ATOM     12  O   UNL     1      46.301   2.075   7.450  0.00  0.00    +0.000 OA
ATOM     13  C   UNL     1      46.523   3.490   7.564  0.00  0.00    +0.000 C 
ATOM     14  C   UNL     1      45.228   4.252   7.902  0.00  0.00    +0.000 C 
ENDBRANCH   7   9
ENDBRANCH   2   3
BRANCH   2  15
ATOM     15  C   UNL     1      47.823   6.732  12.242  0.00  0.00    +0.000 C 
BRANCH  15  16
ATOM     16  N   UNL     1      48.405   7.162  13.519  0.00  0.00    +0.000 N 
ATOM     17  C   UNL     1      48.159   6.229  14.550  0.00  0.00    +0.000 A 
ATOM     18  C   UNL     1      48.615   6.516  15.833  0.00  0.00    +0.000 A 
ATOM     19  C   UNL     1      48.392   5.596  16.862  0.00  0.00    +0.000 A 
ATOM     20  C   UNL     1      47.718   4.402  16.592  0.00  0.00    +0.000 A 
ATOM     21  C   UNL     1      47.310   4.195  15.289  0.00  0.00    +0.000 A 
ATOM     22  N   UNL     1      47.518   5.074  14.279  0.00  0.00    +0.000 NA
ATOM     23  H   UNL     1      48.046   8.062  13.824  0.00  0.00    +0.000 HD
BRANCH  20  24
ATOM     24  C   UNL     1      47.485   3.431  17.685  0.00  0.00    +0.000 C 
ATOM     25  N   UNL     1      48.294   3.460  18.783  0.00  0.00    +0.000 N 
ATOM     26  O   UNL     1      46.586   2.600  17.614  0.00  0.00    +0.000 OA
ATOM     27  H   UNL     1      49.051   4.099  18.952  0.00  0.00    +0.000 HD
ATOM     28  H   UNL     1      48.095   2.781  19.507  0.00  0.00    +0.000 HD
ENDBRANCH  20  24
ENDBRANCH  15  16
ENDBRANCH   2  15
TORSDOF 5
ENDMDL
MODEL 4
REMARK VINA RESULT:    -6.808      2.492      3.410
REMARK INTER + INTRA:          -9.794
REMARK INTER:                  -9.657
REMARK INTRA:                  -0.138
REMARK UNBOUND:                -0.997
REMARK  Name = 
REMARK  6 active torsions:
REMARK  status: ('A' for Active; 'I' for Inactive)
REMARK    1  A    between atoms: C_1  and  C_2
REMARK    2  A    between atoms: C_2  and  C_3
REMARK    3  A    between atoms: C_2  and  C_14
REMARK    4  A    between atoms: C_3  and  N_4
REMARK    5  A    between atoms: C_8  and  C_9
REMARK    6  A    between atoms: C_18  and  N_19
REMARK                            x       y       z     vdW  Elec       q    Type
REMARK                         _______ _______ _______ _____ _____    ______ ____
ROOT
ATOM      1  C   UNL     1      43.388   4.488  13.358  0.00  0.00    +0.000 C 
ATOM      2  C   UNL     1      44.244   4.897  12.156  0.00  0.00    +0.000 C 
ENDROOT
BRANCH   2   3
ATOM      3  C   UNL     1      44.584   6.384  12.226  0.00  0.00    +0.000 A 
ATOM      4  C   UNL     1      45.645   6.831  13.016  0.00  0.00    +0.000 A 
ATOM      5  C   UNL     1      45.989   8.180  13.015  0.00  0.00    +0.000 A 
ATOM      6  C   UNL     1      45.289   9.085  12.210  0.00  0.00    +0.000 A 
ATOM      7  C   UNL     1      44.219   8.681  11.399  0.00  0.00    +0.000 A 
ATOM      8  C   UNL     1      43.871   7.325  11.449  0.00  0.00    +0.000 A 
BRANCH   7   9
ATOM      9  N   UNL     1      43.548   9.596  10.609  0.00  0.00    +0.000 N 
ATOM     10  C   UNL     1      44.217  10.725   9.941  0.00  0.00    +0.000 C 
ATOM     11  C   UNL     1      43.808  12.064  10.570  0.00  0.00    +0.000 C 
ATOM     12  O   UNL     1      42.380  12.220  10.595  0.00  0.00    +0.000 OA
ATOM     13  C   UNL     1      41.785  11.166  11.369  0.00  0.00    +0.000 C 
ATOM     14  C   UNL     1      42.094   9.776  10.784  0.00  0.00    +0.000 C 
ENDBRANCH   7   9
ENDBRANCH   2   3
BRANCH   2  15
ATOM     15  C   UNL     1      43.562   4.596  10.803  0.00  0.00    +0.000 C 
BRANCH  15  16
ATOM     16  N   UNL     1      44.285   5.159   9.657  0.00  0.00    +0.000 N 
ATOM     17  C   UNL     1      45.046   4.180   8.982  0.00  0.00    +0.000 A 
ATOM     18  C   UNL     1      45.821   4.570   7.894  0.00  0.00    +0.000 A 
ATOM     19  C   UNL     1      46.570   3.610   7.207  0.00  0.00    +0.000 A 
ATOM     20  C   UNL     1      46.533   2.275   7.617  0.00  0.00    +0.000 A 
ATOM     21  C   UNL     1      45.730   1.977   8.700  0.00  0.00    +0.000 A 
ATOM     22  N   UNL     1      44.996   2.892   9.378  0.00  0.00    +0.000 NA
ATOM     23  H   UNL     1      44.914   5.910   9.926  0.00  0.00    +0.000 HD
BRANCH  20  24
ATOM     24  C   UNL     1      47.327   1.263   6.885  0.00  0.00    +0.000 C 
ATOM     25  N   UNL     1      48.407   1.667   6.155  0.00  0.00    +0.000 N 
ATOM     26  O   UNL     1      47.027   0.075   6.920  0.00  0.00    +0.000 OA
ATOM     27  H   UNL     1      48.750   2.606   6.063  0.00  0.00    +0.000 HD
ATOM     28  H   UNL     1      48.924   0.939   5.676  0.00  0.00    +0.000 HD
ENDBRANCH  20  24
ENDBRANCH  15  16
ENDBRANCH   2  15
TORSDOF 5
ENDMDL
MODEL 5
REMARK VINA RESULT:    -6.662      3.741      7.479
REMARK INTER + INTRA:          -9.606
REMARK INTER:                  -8.504
REMARK INTRA:                  -1.102
REMARK UNBOUND:                -0.997
REMARK  Name = 
REMARK  6 active torsions:
REMARK  status: ('A' for Active; 'I' for Inactive)
REMARK    1  A    between atoms: C_1  and  C_2
REMARK    2  A    between atoms: C_2  and  C_3
REMARK    3  A    between atoms: C_2  and  C_14
REMARK    4  A    between atoms: C_3  and  N_4
REMARK    5  A    between atoms: C_8  and  C_9
REMARK    6  A    between atoms: C_18  and  N_19
REMARK                            x       y       z     vdW  Elec       q    Type
REMARK                         _______ _______ _______ _____ _____    ______ ____
ROOT
ATOM      1  C   UNL     1      48.774  10.041  13.691  0.00  0.00    +0.000 C 
ATOM      2  C   UNL     1      48.590   9.004  12.580  0.00  0.00    +0.000 C 
ENDROOT
BRANCH   2   3
ATOM      3  C   UNL     1      47.113   8.868  12.216  0.00  0.00    +0.000 A 
ATOM      4  C   UNL     1      46.342  10.003  11.957  0.00  0.00    +0.000 A 
ATOM      5  C   UNL     1      45.015   9.863  11.557  0.00  0.00    +0.000 A 
ATOM      6  C   UNL     1      44.460   8.589  11.395  0.00  0.00    +0.000 A 
ATOM      7  C   UNL     1      45.197   7.422  11.641  0.00  0.00    +0.000 A 
ATOM      8  C   UNL     1      46.517   7.594  12.078  0.00  0.00    +0.000 A 
BRANCH   7   9
ATOM      9  N   UNL     1      44.624   6.175  11.467  0.00  0.00    +0.000 N 
ATOM     10  C   UNL     1      43.177   5.932  11.579  0.00  0.00    +0.000 C 
ATOM     11  C   UNL     1      42.847   5.106  12.829  0.00  0.00    +0.000 C 
ATOM     12  O   UNL     1      43.604   3.885  12.868  0.00  0.00    +0.000 OA
ATOM     13  C   UNL     1      45.010   4.180  12.889  0.00  0.00    +0.000 C 
ATOM     14  C   UNL     1      45.453   4.967  11.642  0.00  0.00    +0.000 C 
ENDBRANCH   7   9
ENDBRANCH   2   3
BRANCH   2  15
ATOM     15  C   UNL     1      49.148   7.614  12.958  0.00  0.00    +0.000 C 
BRANCH  15  16
ATOM     16  N   UNL     1      49.769   7.586  14.288  0.00  0.00    +0.000 N 
ATOM     17  C   UNL     1      49.172   6.619  15.127  0.00  0.00    +0.000 A 
ATOM     18  C   UNL     1      49.627   6.500  16.437  0.00  0.00    +0.000 A 
ATOM     19  C   UNL     1      49.056   5.539  17.276  0.00  0.00    +0.000 A 
ATOM     20  C   UNL     1      48.039   4.711  16.794  0.00  0.00    +0.000 A 
ATOM     21  C   UNL     1      47.657   4.892  15.479  0.00  0.00    +0.000 A 
ATOM     22  N   UNL     1      48.200   5.816  14.650  0.00  0.00    +0.000 NA
ATOM     23  H   UNL     1      49.713   8.483  14.760  0.00  0.00    +0.000 HD
BRANCH  20  24
ATOM     24  C   UNL     1      47.439   3.694  17.686  0.00  0.00    +0.000 C 
ATOM     25  N   UNL     1      48.000   3.469  18.909  0.00  0.00    +0.000 N 
ATOM     26  O   UNL     1      46.454   3.050  17.341  0.00  0.00    +0.000 OA
ATOM     27  H   UNL     1      48.796   3.941  19.298  0.00  0.00    +0.000 HD
ATOM     28  H   UNL     1      47.553   2.769  19.488  0.00  0.00    +0.000 HD
ENDBRANCH  20  24
ENDBRANCH  15  16
ENDBRANCH   2  15
TORSDOF 5
ENDMDL
MODEL 6
REMARK VINA RESULT:    -6.594      3.823      8.175
REMARK INTER + INTRA:          -9.519
REMARK INTER:                  -8.923
REMARK INTRA:                  -0.596
REMARK UNBOUND:                -0.997
REMARK  Name = 
REMARK  6 active torsions:
REMARK  status: ('A' for Active; 'I' for Inactive)
REMARK    1  A    between atoms: C_1  and  C_2
REMARK    2  A    between atoms: C_2  and  C_3
REMARK    3  A    between atoms: C_2  and  C_14
REMARK    4  A    between atoms: C_3  and  N_4
REMARK    5  A    between atoms: C_8  and  C_9
REMARK    6  A    between atoms: C_18  and  N_19
REMARK                            x       y       z     vdW  Elec       q    Type
REMARK                         _______ _______ _______ _____ _____    ______ ____
ROOT
ATOM      1  C   UNL     1      49.292   7.971  11.638  0.00  0.00    +0.000 C 
ATOM      2  C   UNL     1      48.451   6.855  12.264  0.00  0.00    +0.000 C 
ENDROOT
BRANCH   2   3
ATOM      3  C   UNL     1      46.967   7.090  11.993  0.00  0.00    +0.000 A 
ATOM      4  C   UNL     1      46.414   8.363  12.144  0.00  0.00    +0.000 A 
ATOM      5  C   UNL     1      45.075   8.580  11.825  0.00  0.00    +0.000 A 
ATOM      6  C   UNL     1      44.291   7.531  11.334  0.00  0.00    +0.000 A 
ATOM      7  C   UNL     1      44.803   6.238  11.164  0.00  0.00    +0.000 A 
ATOM      8  C   UNL     1      46.142   6.041  11.528  0.00  0.00    +0.000 A 
BRANCH   7   9
ATOM      9  N   UNL     1      44.006   5.221  10.671  0.00  0.00    +0.000 N 
ATOM     10  C   UNL     1      42.949   4.573  11.463  0.00  0.00    +0.000 C 
ATOM     11  C   UNL     1      43.323   3.125  11.811  0.00  0.00    +0.000 C 
ATOM     12  O   UNL     1      43.655   2.371  10.634  0.00  0.00    +0.000 OA
ATOM     13  C   UNL     1      44.778   2.972   9.968  0.00  0.00    +0.000 C 
ATOM     14  C   UNL     1      44.481   4.417   9.528  0.00  0.00    +0.000 C 
ENDBRANCH   7   9
ENDBRANCH   2   3
BRANCH   2  15
ATOM     15  C   UNL     1      48.673   6.720  13.787  0.00  0.00    +0.000 C 
BRANCH  15  16
ATOM     16  N   UNL     1      47.710   5.818  14.430  0.00  0.00    +0.000 N 
ATOM     17  C   UNL     1      48.101   5.482  15.745  0.00  0.00    +0.000 A 
ATOM     18  C   UNL     1      47.308   4.600  16.472  0.00  0.00    +0.000 A 
ATOM     19  C   UNL     1      47.674   4.268  17.780  0.00  0.00    +0.000 A 
ATOM     20  C   UNL     1      48.826   4.823  18.342  0.00  0.00    +0.000 A 
ATOM     21  C   UNL     1      49.548   5.697  17.551  0.00  0.00    +0.000 A 
ATOM     22  N   UNL     1      49.208   6.032  16.283  0.00  0.00    +0.000 NA
ATOM     23  H   UNL     1      47.586   4.952  13.913  0.00  0.00    +0.000 HD
BRANCH  20  24
ATOM     24  C   UNL     1      49.209   4.470  19.727  0.00  0.00    +0.000 C 
ATOM     25  N   UNL     1      48.487   3.524  20.394  0.00  0.00    +0.000 N 
ATOM     26  O   UNL     1      50.155   5.016  20.283  0.00  0.00    +0.000 OA
ATOM     27  H   UNL     1      47.703   3.007  20.037  0.00  0.00    +0.000 HD
ATOM     28  H   UNL     1      48.788   3.310  21.337  0.00  0.00    +0.000 HD
ENDBRANCH  20  24
ENDBRANCH  15  16
ENDBRANCH   2  15
TORSDOF 5
ENDMDL
MODEL 7
REMARK VINA RESULT:    -6.522      1.312      2.097
REMARK INTER + INTRA:          -9.425
REMARK INTER:                  -9.354
REMARK INTRA:                  -0.071
REMARK UNBOUND:                -0.997
REMARK  Name = 
REMARK  6 active torsions:
REMARK  status: ('A' for Active; 'I' for Inactive)
REMARK    1  A    between atoms: C_1  and  C_2
REMARK    2  A    between atoms: C_2  and  C_3
REMARK    3  A    between atoms: C_2  and  C_14
REMARK    4  A    between atoms: C_3  and  N_4
REMARK    5  A    between atoms: C_8  and  C_9
REMARK    6  A    between atoms: C_18  and  N_19
REMARK                            x       y       z     vdW  Elec       q    Type
REMARK                         _______ _______ _______ _____ _____    ______ ____
ROOT
ATOM      1  C   UNL     1      43.601   4.385  13.379  0.00  0.00    +0.000 C 
ATOM      2  C   UNL     1      44.365   4.729  12.098  0.00  0.00    +0.000 C 
ENDROOT
BRANCH   2   3
ATOM      3  C   UNL     1      44.828   6.184  12.129  0.00  0.00    +0.000 A 
ATOM      4  C   UNL     1      44.108   7.170  11.452  0.00  0.00    +0.000 A 
ATOM      5  C   UNL     1      44.500   8.503  11.546  0.00  0.00    +0.000 A 
ATOM      6  C   UNL     1      45.599   8.859  12.335  0.00  0.00    +0.000 A 
ATOM      7  C   UNL     1      46.350   7.905  13.034  0.00  0.00    +0.000 A 
ATOM      8  C   UNL     1      45.956   6.568  12.890  0.00  0.00    +0.000 A 
BRANCH   7   9
ATOM      9  N   UNL     1      47.429   8.286  13.810  0.00  0.00    +0.000 N 
ATOM     10  C   UNL     1      48.049   9.618  13.727  0.00  0.00    +0.000 C 
ATOM     11  C   UNL     1      49.451   9.541  13.107  0.00  0.00    +0.000 C 
ATOM     12  O   UNL     1      50.284   8.601  13.805  0.00  0.00    +0.000 OA
ATOM     13  C   UNL     1      49.699   7.289  13.744  0.00  0.00    +0.000 C 
ATOM     14  C   UNL     1      48.304   7.250  14.394  0.00  0.00    +0.000 C 
ENDBRANCH   7   9
ENDBRANCH   2   3
BRANCH   2  15
ATOM     15  C   UNL     1      43.532   4.490  10.820  0.00  0.00    +0.000 C 
BRANCH  15  16
ATOM     16  N   UNL     1      44.160   5.039   9.613  0.00  0.00    +0.000 N 
ATOM     17  C   UNL     1      44.953   4.078   8.948  0.00  0.00    +0.000 A 
ATOM     18  C   UNL     1      45.648   4.461   7.805  0.00  0.00    +0.000 A 
ATOM     19  C   UNL     1      46.427   3.518   7.128  0.00  0.00    +0.000 A 
ATOM     20  C   UNL     1      46.499   2.206   7.603  0.00  0.00    +0.000 A 
ATOM     21  C   UNL     1      45.770   1.912   8.739  0.00  0.00    +0.000 A 
ATOM     22  N   UNL     1      45.008   2.812   9.408  0.00  0.00    +0.000 NA
ATOM     23  H   UNL     1      44.749   5.842   9.814  0.00  0.00    +0.000 HD
BRANCH  20  24
ATOM     24  C   UNL     1      47.324   1.211   6.883  0.00  0.00    +0.000 C 
ATOM     25  N   UNL     1      48.399   1.639   6.158  0.00  0.00    +0.000 N 
ATOM     26  O   UNL     1      47.054   0.016   6.921  0.00  0.00    +0.000 OA
ATOM     27  H   UNL     1      48.718   2.586   6.064  0.00  0.00    +0.000 HD
ATOM     28  H   UNL     1      48.937   0.923   5.687  0.00  0.00    +0.000 HD
ENDBRANCH  20  24
ENDBRANCH  15  16
ENDBRANCH   2  15
TORSDOF 5
ENDMDL
MODEL 8
REMARK VINA RESULT:    -6.314      3.747      6.261
REMARK INTER + INTRA:          -9.156
REMARK INTER:                  -8.274
REMARK INTRA:                  -0.882
REMARK UNBOUND:                -0.997
REMARK  Name = 
REMARK  6 active torsions:
REMARK  status: ('A' for Active; 'I' for Inactive)
REMARK    1  A    between atoms: C_1  and  C_2
REMARK    2  A    between atoms: C_2  and  C_3
REMARK    3  A    between atoms: C_2  and  C_14
REMARK    4  A    between atoms: C_3  and  N_4
REMARK    5  A    between atoms: C_8  and  C_9
REMARK    6  A    between atoms: C_18  and  N_19
REMARK                            x       y       z     vdW  Elec       q    Type
REMARK                         _______ _______ _______ _____ _____    ______ ____
ROOT
ATOM      1  C   UNL     1      50.106   8.126  12.522  0.00  0.00    +0.000 C 
ATOM      2  C   UNL     1      49.335   8.212  13.842  0.00  0.00    +0.000 C 
ENDROOT
BRANCH   2   3
ATOM      3  C   UNL     1      50.060   7.426  14.933  0.00  0.00    +0.000 A 
ATOM      4  C   UNL     1      51.399   7.691  15.225  0.00  0.00    +0.000 A 
ATOM      5  C   UNL     1      52.028   7.019  16.270  0.00  0.00    +0.000 A 
ATOM      6  C   UNL     1      51.315   6.095  17.041  0.00  0.00    +0.000 A 
ATOM      7  C   UNL     1      49.969   5.798  16.787  0.00  0.00    +0.000 A 
ATOM      8  C   UNL     1      49.374   6.462  15.707  0.00  0.00    +0.000 A 
BRANCH   7   9
ATOM      9  N   UNL     1      49.287   4.884  17.569  0.00  0.00    +0.000 N 
ATOM     10  C   UNL     1      49.747   3.501  17.775  0.00  0.00    +0.000 C 
ATOM     11  C   UNL     1      48.820   2.497  17.075  0.00  0.00    +0.000 C 
ATOM     12  O   UNL     1      47.452   2.677  17.476  0.00  0.00    +0.000 OA
ATOM     13  C   UNL     1      47.011   4.001  17.134  0.00  0.00    +0.000 C 
ATOM     14  C   UNL     1      47.849   5.086  17.833  0.00  0.00    +0.000 C 
ENDBRANCH   7   9
ENDBRANCH   2   3
BRANCH   2  15
ATOM     15  C   UNL     1      47.885   7.694  13.724  0.00  0.00    +0.000 C 
BRANCH  15  16
ATOM     16  N   UNL     1      47.416   7.606  12.336  0.00  0.00    +0.000 N 
ATOM     17  C   UNL     1      46.593   6.477  12.129  0.00  0.00    +0.000 A 
ATOM     18  C   UNL     1      46.102   6.235  10.849  0.00  0.00    +0.000 A 
ATOM     19  C   UNL     1      45.275   5.130  10.630  0.00  0.00    +0.000 A 
ATOM     20  C   UNL     1      44.949   4.284  11.693  0.00  0.00    +0.000 A 
ATOM     21  C   UNL     1      45.473   4.606  12.931  0.00  0.00    +0.000 A 
ATOM     22  N   UNL     1      46.275   5.673  13.163  0.00  0.00    +0.000 NA
ATOM     23  H   UNL     1      48.182   7.557  11.671  0.00  0.00    +0.000 HD
BRANCH  20  24
ATOM     24  C   UNL     1      44.072   3.115  11.457  0.00  0.00    +0.000 C 
ATOM     25  N   UNL     1      43.689   2.347  12.518  0.00  0.00    +0.000 N 
ATOM     26  O   UNL     1      43.692   2.825  10.328  0.00  0.00    +0.000 OA
ATOM     27  H   UNL     1      43.930   2.495  13.481  0.00  0.00    +0.000 HD
ATOM     28  H   UNL     1      43.085   1.561  12.310  0.00  0.00    +0.000 HD
ENDBRANCH  20  24
ENDBRANCH  15  16
ENDBRANCH   2  15
TORSDOF 5
ENDMDL
MODEL 9
REMARK VINA RESULT:    -6.198      3.651      6.346
REMARK INTER + INTRA:          -9.007
REMARK INTER:                  -7.821
REMARK INTRA:                  -1.186
REMARK UNBOUND:                -0.997
REMARK  Name = 
REMARK  6 active torsions:
REMARK  status: ('A' for Active; 'I' for Inactive)
REMARK    1  A    between atoms: C_1  and  C_2
REMARK    2  A    between atoms: C_2  and  C_3
REMARK    3  A    between atoms: C_2  and  C_14
REMARK    4  A    between atoms: C_3  and  N_4
REMARK    5  A    between atoms: C_8  and  C_9
REMARK    6  A    between atoms: C_18  and  N_19
REMARK                            x       y       z     vdW  Elec       q    Type
REMARK                         _______ _______ _______ _____ _____    ______ ____
ROOT
ATOM      1  C   UNL     1      49.477   8.820  13.948  0.00  0.00    +0.000 C 
ATOM      2  C   UNL     1      49.540   8.763  12.420  0.00  0.00    +0.000 C 
ENDROOT
BRANCH   2   3
ATOM      3  C   UNL     1      48.751   9.919  11.810  0.00  0.00    +0.000 A 
ATOM      4  C   UNL     1      49.384  10.849  10.983  0.00  0.00    +0.000 A 
ATOM      5  C   UNL     1      48.639  11.857  10.376  0.00  0.00    +0.000 A 
ATOM      6  C   UNL     1      47.256  11.928  10.576  0.00  0.00    +0.000 A 
ATOM      7  C   UNL     1      46.578  11.016  11.396  0.00  0.00    +0.000 A 
ATOM      8  C   UNL     1      47.358  10.036  12.023  0.00  0.00    +0.000 A 
BRANCH   7   9
ATOM      9  N   UNL     1      45.209  11.106  11.571  0.00  0.00    +0.000 N 
ATOM     10  C   UNL     1      44.363   9.950  11.906  0.00  0.00    +0.000 C 
ATOM     11  C   UNL     1      43.455   9.566  10.729  0.00  0.00    +0.000 C 
ATOM     12  O   UNL     1      42.681  10.688  10.275  0.00  0.00    +0.000 OA
ATOM     13  C   UNL     1      43.555  11.741   9.837  0.00  0.00    +0.000 C 
ATOM     14  C   UNL     1      44.475  12.235  10.968  0.00  0.00    +0.000 C 
ENDBRANCH   7   9
ENDBRANCH   2   3
BRANCH   2  15
ATOM     15  C   UNL     1      49.009   7.430  11.847  0.00  0.00    +0.000 C 
BRANCH  15  16
ATOM     16  N   UNL     1      48.413   6.561  12.869  0.00  0.00    +0.000 N 
ATOM     17  C   UNL     1      47.082   6.213  12.553  0.00  0.00    +0.000 A 
ATOM     18  C   UNL     1      46.367   5.424  13.449  0.00  0.00    +0.000 A 
ATOM     19  C   UNL     1      45.053   5.059  13.145  0.00  0.00    +0.000 A 
ATOM     20  C   UNL     1      44.472   5.488  11.949  0.00  0.00    +0.000 A 
ATOM     21  C   UNL     1      45.257   6.260  11.114  0.00  0.00    +0.000 A 
ATOM     22  N   UNL     1      46.533   6.622  11.392  0.00  0.00    +0.000 NA
ATOM     23  H   UNL     1      48.411   6.992  13.789  0.00  0.00    +0.000 HD
BRANCH  20  24
ATOM     24  C   UNL     1      43.080   5.098  11.630  0.00  0.00    +0.000 C 
ATOM     25  N   UNL     1      42.092   6.036  11.713  0.00  0.00    +0.000 N 
ATOM     26  O   UNL     1      42.802   3.950  11.302  0.00  0.00    +0.000 OA
ATOM     27  H   UNL     1      42.205   7.003  11.961  0.00  0.00    +0.000 HD
ATOM     28  H   UNL     1      41.157   5.726  11.481  0.00  0.00    +0.000 HD
ENDBRANCH  20  24
ENDBRANCH  15  16
ENDBRANCH   2  15
TORSDOF 5
ENDMDL
