MODEL 1
REMARK VINA RESULT:    -9.156      0.000      0.000
REMARK INTER + INTRA:         -12.667
REMARK INTER:                 -11.832
REMARK INTRA:                  -0.834
REMARK UNBOUND:                -0.834
REMARK  Name = 
REMARK  5 active torsions:
REMARK  status: ('A' for Active; 'I' for Inactive)
REMARK    1  A    between atoms: C_2  and  C_4
REMARK    2  A    between atoms: C_7  and  O_8
REMARK    3  A    between atoms: O_8  and  C_9
REMARK    4  A    between atoms: C_9  and  C_10
REMARK    5  A    between atoms: C_15  and  C_16
REMARK                            x       y       z     vdW  Elec       q    Type
REMARK                         _______ _______ _______ _____ _____    ______ ____
ROOT
ATOM      1  C   UNL     1      44.838   4.709  11.860  0.00  0.00    +0.000 A 
ATOM      2  C   UNL     1      45.479   3.828  12.736  0.00  0.00    +0.000 A 
ATOM      3  C   UNL     1      46.630   4.233  13.397  0.00  0.00    +0.000 A 
ATOM      4  F   UNL     1      47.245   3.380  14.228  0.00  0.00    +0.000 F 
ATOM      5  C   UNL     1      47.156   5.510  13.218  0.00  0.00    +0.000 A 
ATOM      6  C   UNL     1      46.535   6.429  12.357  0.00  0.00    +0.000 A 
ATOM      7  C   UNL     1      45.370   6.000  11.691  0.00  0.00    +0.000 A 
ENDROOT
BRANCH   6   8
ATOM      8  C   UNL     1      47.075   7.795  12.152  0.00  0.00    +0.000 A 
ATOM      9  C   UNL     1      48.429   8.011  11.829  0.00  0.00    +0.000 A 
ATOM     10  C   UNL     1      48.940   9.299  11.628  0.00  0.00    +0.000 A 
ATOM     11  C   UNL     1      48.102  10.404  11.734  0.00  0.00    +0.000 A 
ATOM     12  C   UNL     1      46.764  10.208  12.046  0.00  0.00    +0.000 A 
ATOM     13  F   UNL     1      45.948  11.267  12.140  0.00  0.00    +0.000 F 
ATOM     14  C   UNL     1      46.254   8.931  12.261  0.00  0.00    +0.000 A 
ENDBRANCH   6   8
BRANCH   1  15
ATOM     15  C   UNL     1      43.557   4.289  11.173  0.00  0.00    +0.000 C 
BRANCH  15  16
ATOM     16  O   UNL     1      43.599   4.641   9.785  0.00  0.00    +0.000 OA
BRANCH  16  20
ATOM     17  C   UNL     1      46.402   2.439   7.731  0.00  0.00    +0.000 A 
ATOM     18  C   UNL     1      45.522   1.795   8.603  0.00  0.00    +0.000 A 
ATOM     19  C   UNL     1      44.579   2.554   9.299  0.00  0.00    +0.000 A 
ATOM     20  C   UNL     1      44.553   3.926   9.094  0.00  0.00    +0.000 A 
ATOM     21  N   UNL     1      45.399   4.574   8.267  0.00  0.00    +0.000 NA
ATOM     22  C   UNL     1      46.311   3.819   7.611  0.00  0.00    +0.000 A 
BRANCH  17  24
ATOM     23  N   UNL     1      48.481   2.481   6.474  0.00  0.00    +0.000 N 
ATOM     24  C   UNL     1      47.436   1.737   6.945  0.00  0.00    +0.000 C 
ATOM     25  O   UNL     1      47.382   0.531   6.756  0.00  0.00    +0.000 OA
ATOM     26  H   UNL     1      49.234   1.961   6.040  0.00  0.00    +0.000 HD
ATOM     27  H   UNL     1      48.690   3.409   6.812  0.00  0.00    +0.000 HD
ENDBRANCH  17  24
ENDBRANCH  16  20
ENDBRANCH  15  16
ENDBRANCH   1  15
TORSDOF 5
ENDMDL
MODEL 2
REMARK VINA RESULT:    -9.088      0.992      1.379
REMARK INTER + INTRA:         -12.579
REMARK INTER:                 -11.747
REMARK INTRA:                  -0.832
REMARK UNBOUND:                -0.834
REMARK  Name = 
REMARK  5 active torsions:
REMARK  status: ('A' for Active; 'I' for Inactive)
REMARK    1  A    between atoms: C_2  and  C_4
REMARK    2  A    between atoms: C_7  and  O_8
REMARK    3  A    between atoms: O_8  and  C_9
REMARK    4  A    between atoms: C_9  and  C_10
REMARK    5  A    between atoms: C_15  and  C_16
REMARK                            x       y       z     vdW  Elec       q    Type
REMARK                         _______ _______ _______ _____ _____    ______ ____
ROOT
ATOM      1  C   UNL     1      44.878   4.753  11.913  0.00  0.00    +0.000 A 
ATOM      2  C   UNL     1      45.474   3.902  12.848  0.00  0.00    +0.000 A 
ATOM      3  C   UNL     1      46.619   4.311  13.518  0.00  0.00    +0.000 A 
ATOM      4  F   UNL     1      47.191   3.486  14.405  0.00  0.00    +0.000 F 
ATOM      5  C   UNL     1      47.182   5.564  13.290  0.00  0.00    +0.000 A 
ATOM      6  C   UNL     1      46.607   6.454  12.369  0.00  0.00    +0.000 A 
ATOM      7  C   UNL     1      45.447   6.021  11.695  0.00  0.00    +0.000 A 
ENDROOT
BRANCH   6   8
ATOM      8  C   UNL     1      47.187   7.794  12.110  0.00  0.00    +0.000 A 
ATOM      9  C   UNL     1      46.420   8.968  12.248  0.00  0.00    +0.000 A 
ATOM     10  C   UNL     1      46.968  10.235  12.010  0.00  0.00    +0.000 A 
ATOM     11  C   UNL     1      48.303  10.357  11.641  0.00  0.00    +0.000 A 
ATOM     12  C   UNL     1      49.074   9.212  11.507  0.00  0.00    +0.000 A 
ATOM     13  F   UNL     1      50.363   9.322  11.161  0.00  0.00    +0.000 F 
ATOM     14  C   UNL     1      48.531   7.948  11.728  0.00  0.00    +0.000 A 
ENDBRANCH   6   8
BRANCH   1  15
ATOM     15  C   UNL     1      43.604   4.332  11.216  0.00  0.00    +0.000 C 
BRANCH  15  16
ATOM     16  O   UNL     1      43.651   4.697   9.832  0.00  0.00    +0.000 OA
BRANCH  16  20
ATOM     17  C   UNL     1      46.374   2.428   7.743  0.00  0.00    +0.000 A 
ATOM     18  C   UNL     1      45.493   1.806   8.630  0.00  0.00    +0.000 A 
ATOM     19  C   UNL     1      44.578   2.588   9.337  0.00  0.00    +0.000 A 
ATOM     20  C   UNL     1      44.579   3.960   9.129  0.00  0.00    +0.000 A 
ATOM     21  N   UNL     1      45.425   4.587   8.286  0.00  0.00    +0.000 NA
ATOM     22  C   UNL     1      46.310   3.810   7.620  0.00  0.00    +0.000 A 
BRANCH  17  24
ATOM     23  N   UNL     1      48.428   2.423   6.445  0.00  0.00    +0.000 N 
ATOM     24  C   UNL     1      47.380   1.702   6.943  0.00  0.00    +0.000 C 
ATOM     25  O   UNL     1      47.302   0.495   6.767  0.00  0.00    +0.000 OA
ATOM     26  H   UNL     1      49.164   1.886   6.002  0.00  0.00    +0.000 HD
ATOM     27  H   UNL     1      48.660   3.351   6.771  0.00  0.00    +0.000 HD
ENDBRANCH  17  24
ENDBRANCH  16  20
ENDBRANCH  15  16
ENDBRANCH   1  15
TORSDOF 5
ENDMDL
MODEL 3
REMARK VINA RESULT:    -8.759      2.192      4.251
REMARK INTER + INTRA:         -12.154
REMARK INTER:                 -11.525
REMARK INTRA:                  -0.629
REMARK UNBOUND:                -0.834
REMARK  Name = 
REMARK  5 active torsions:
REMARK  status: ('A' for Active; 'I' for Inactive)
REMARK    1  A    between atoms: C_2  and  C_4
REMARK    2  A    between atoms: C_7  and  O_8
REMARK    3  A    between atoms: O_8  and  C_9
REMARK    4  A    between atoms: C_9  and  C_10
REMARK    5  A    between atoms: C_15  and  C_16
REMARK                            x       y       z     vdW  Elec       q    Type
REMARK                         _______ _______ _______ _____ _____    ______ ____
ROOT
ATOM      1  C   UNL     1      45.544   5.247  12.098  0.00  0.00    +0.000 A 
ATOM      2  C   UNL     1      46.254   6.246  11.425  0.00  0.00    +0.000 A 
ATOM      3  C   UNL     1      47.350   6.840  12.034  0.00  0.00    +0.000 A 
ATOM      4  F   UNL     1      48.019   7.804  11.387  0.00  0.00    +0.000 F 
ATOM      5  C   UNL     1      47.772   6.451  13.302  0.00  0.00    +0.000 A 
ATOM      6  C   UNL     1      47.096   5.442  14.007  0.00  0.00    +0.000 A 
ATOM      7  C   UNL     1      45.982   4.852  13.376  0.00  0.00    +0.000 A 
ENDROOT
BRANCH   6   8
ATOM      8  C   UNL     1      47.527   5.009  15.358  0.00  0.00    +0.000 A 
ATOM      9  C   UNL     1      48.463   5.751  16.106  0.00  0.00    +0.000 A 
ATOM     10  C   UNL     1      48.867   5.347  17.384  0.00  0.00    +0.000 A 
ATOM     11  C   UNL     1      48.333   4.196  17.951  0.00  0.00    +0.000 A 
ATOM     12  C   UNL     1      47.405   3.457  17.231  0.00  0.00    +0.000 A 
ATOM     13  F   UNL     1      46.878   2.351  17.774  0.00  0.00    +0.000 F 
ATOM     14  C   UNL     1      47.010   3.845  15.954  0.00  0.00    +0.000 A 
ENDBRANCH   6   8
BRANCH   1  15
ATOM     15  C   UNL     1      44.378   4.564  11.420  0.00  0.00    +0.000 C 
BRANCH  15  16
ATOM     16  O   UNL     1      44.306   4.952  10.043  0.00  0.00    +0.000 OA
BRANCH  16  20
ATOM     17  C   UNL     1      46.528   2.465   7.636  0.00  0.00    +0.000 A 
ATOM     18  C   UNL     1      45.726   1.919   8.639  0.00  0.00    +0.000 A 
ATOM     19  C   UNL     1      44.981   2.774   9.454  0.00  0.00    +0.000 A 
ATOM     20  C   UNL     1      45.067   4.140   9.231  0.00  0.00    +0.000 A 
ATOM     21  N   UNL     1      45.842   4.695   8.276  0.00  0.00    +0.000 NA
ATOM     22  C   UNL     1      46.563   3.847   7.506  0.00  0.00    +0.000 A 
BRANCH  17  24
ATOM     23  N   UNL     1      48.445   2.261   6.157  0.00  0.00    +0.000 N 
ATOM     24  C   UNL     1      47.355   1.658   6.717  0.00  0.00    +0.000 C 
ATOM     25  O   UNL     1      47.099   0.483   6.497  0.00  0.00    +0.000 OA
ATOM     26  H   UNL     1      49.061   1.657   5.625  0.00  0.00    +0.000 HD
ATOM     27  H   UNL     1      48.827   3.131   6.499  0.00  0.00    +0.000 HD
ENDBRANCH  17  24
ENDBRANCH  16  20
ENDBRANCH  15  16
ENDBRANCH   1  15
TORSDOF 5
ENDMDL
MODEL 4
REMARK VINA RESULT:    -8.383      1.849      2.975
REMARK INTER + INTRA:         -11.668
REMARK INTER:                 -10.816
REMARK INTRA:                  -0.852
REMARK UNBOUND:                -0.834
REMARK  Name = 
REMARK  5 active torsions:
REMARK  status: ('A' for Active; 'I' for Inactive)
REMARK    1  A    between atoms: C_2  and  C_4
REMARK    2  A    between atoms: C_7  and  O_8
REMARK    3  A    between atoms: O_8  and  C_9
REMARK    4  A    between atoms: C_9  and  C_10
REMARK    5  A    between atoms: C_15  and  C_16
REMARK                            x       y       z     vdW  Elec       q    Type
REMARK                         _______ _______ _______ _____ _____    ______ ____
ROOT
ATOM      1  C   UNL     1      44.555   4.967  11.613  0.00  0.00    +0.000 A 
ATOM      2  C   UNL     1      43.636   5.947  11.226  0.00  0.00    +0.000 A 
ATOM      3  C   UNL     1      43.985   7.288  11.310  0.00  0.00    +0.000 A 
ATOM      4  F   UNL     1      43.095   8.222  10.947  0.00  0.00    +0.000 F 
ATOM      5  C   UNL     1      45.243   7.681  11.759  0.00  0.00    +0.000 A 
ATOM      6  C   UNL     1      46.199   6.729  12.144  0.00  0.00    +0.000 A 
ATOM      7  C   UNL     1      45.828   5.372  12.057  0.00  0.00    +0.000 A 
ENDROOT
BRANCH   6   8
ATOM      8  C   UNL     1      47.546   7.123  12.624  0.00  0.00    +0.000 A 
ATOM      9  C   UNL     1      48.384   7.961  11.861  0.00  0.00    +0.000 A 
ATOM     10  C   UNL     1      49.653   8.340  12.315  0.00  0.00    +0.000 A 
ATOM     11  C   UNL     1      50.109   7.899  13.552  0.00  0.00    +0.000 A 
ATOM     12  C   UNL     1      49.295   7.079  14.319  0.00  0.00    +0.000 A 
ATOM     13  F   UNL     1      49.723   6.657  15.516  0.00  0.00    +0.000 F 
ATOM     14  C   UNL     1      48.038   6.686  13.867  0.00  0.00    +0.000 A 
ENDBRANCH   6   8
BRANCH   1  15
ATOM     15  C   UNL     1      44.197   3.504  11.479  0.00  0.00    +0.000 C 
BRANCH  15  16
ATOM     16  O   UNL     1      43.646   3.243  10.183  0.00  0.00    +0.000 OA
BRANCH  16  20
ATOM     17  C   UNL     1      46.571   2.589   7.366  0.00  0.00    +0.000 A 
ATOM     18  C   UNL     1      45.965   3.844   7.453  0.00  0.00    +0.000 A 
ATOM     19  C   UNL     1      44.969   4.052   8.409  0.00  0.00    +0.000 A 
ATOM     20  C   UNL     1      44.620   2.997   9.241  0.00  0.00    +0.000 A 
ATOM     21  N   UNL     1      45.181   1.772   9.170  0.00  0.00    +0.000 NA
ATOM     22  C   UNL     1      46.137   1.592   8.228  0.00  0.00    +0.000 A 
BRANCH  17  24
ATOM     23  N   UNL     1      47.773   3.077   5.311  0.00  0.00    +0.000 N 
ATOM     24  C   UNL     1      47.634   2.258   6.396  0.00  0.00    +0.000 C 
ATOM     25  O   UNL     1      48.388   1.313   6.576  0.00  0.00    +0.000 OA
ATOM     26  H   UNL     1      48.579   2.901   4.723  0.00  0.00    +0.000 HD
ATOM     27  H   UNL     1      47.346   3.991   5.255  0.00  0.00    +0.000 HD
ENDBRANCH  17  24
ENDBRANCH  16  20
ENDBRANCH  15  16
ENDBRANCH   1  15
TORSDOF 5
ENDMDL
MODEL 5
REMARK VINA RESULT:    -8.154      4.992      8.250
REMARK INTER + INTRA:         -11.371
REMARK INTER:                 -10.723
REMARK INTRA:                  -0.648
REMARK UNBOUND:                -0.834
REMARK  Name = 
REMARK  5 active torsions:
REMARK  status: ('A' for Active; 'I' for Inactive)
REMARK    1  A    between atoms: C_2  and  C_4
REMARK    2  A    between atoms: C_7  and  O_8
REMARK    3  A    between atoms: O_8  and  C_9
REMARK    4  A    between atoms: C_9  and  C_10
REMARK    5  A    between atoms: C_15  and  C_16
REMARK                            x       y       z     vdW  Elec       q    Type
REMARK                         _______ _______ _______ _____ _____    ______ ____
ROOT
ATOM      1  C   UNL     1      45.175   5.074  12.738  0.00  0.00    +0.000 A 
ATOM      2  C   UNL     1      43.825   5.435  12.783  0.00  0.00    +0.000 A 
ATOM      3  C   UNL     1      43.013   5.195  11.683  0.00  0.00    +0.000 A 
ATOM      4  F   UNL     1      41.723   5.552  11.729  0.00  0.00    +0.000 F 
ATOM      5  C   UNL     1      43.511   4.584  10.535  0.00  0.00    +0.000 A 
ATOM      6  C   UNL     1      44.858   4.194  10.455  0.00  0.00    +0.000 A 
ATOM      7  C   UNL     1      45.669   4.449  11.579  0.00  0.00    +0.000 A 
ENDROOT
BRANCH   6   8
ATOM      8  C   UNL     1      45.411   3.540   9.245  0.00  0.00    +0.000 A 
ATOM      9  C   UNL     1      45.847   4.292   8.135  0.00  0.00    +0.000 A 
ATOM     10  C   UNL     1      46.375   3.677   6.994  0.00  0.00    +0.000 A 
ATOM     11  C   UNL     1      46.493   2.293   6.941  0.00  0.00    +0.000 A 
ATOM     12  C   UNL     1      46.075   1.538   8.027  0.00  0.00    +0.000 A 
ATOM     13  F   UNL     1      46.193   0.204   7.987  0.00  0.00    +0.000 F 
ATOM     14  C   UNL     1      45.535   2.142   9.159  0.00  0.00    +0.000 A 
ENDBRANCH   6   8
BRANCH   1  15
ATOM     15  C   UNL     1      46.053   5.291  13.951  0.00  0.00    +0.000 C 
BRANCH  15  16
ATOM     16  O   UNL     1      46.553   4.039  14.433  0.00  0.00    +0.000 OA
BRANCH  16  20
ATOM     17  C   UNL     1      48.471   4.498  18.043  0.00  0.00    +0.000 A 
ATOM     18  C   UNL     1      48.622   5.470  17.053  0.00  0.00    +0.000 A 
ATOM     19  C   UNL     1      47.971   5.300  15.829  0.00  0.00    +0.000 A 
ATOM     20  C   UNL     1      47.193   4.165  15.646  0.00  0.00    +0.000 A 
ATOM     21  N   UNL     1      47.039   3.206  16.582  0.00  0.00    +0.000 NA
ATOM     22  C   UNL     1      47.688   3.387  17.756  0.00  0.00    +0.000 A 
BRANCH  17  24
ATOM     23  N   UNL     1      48.547   3.850  20.384  0.00  0.00    +0.000 N 
ATOM     24  C   UNL     1      49.110   4.575  19.372  0.00  0.00    +0.000 C 
ATOM     25  O   UNL     1      50.127   5.229  19.551  0.00  0.00    +0.000 OA
ATOM     26  H   UNL     1      49.067   3.825  21.253  0.00  0.00    +0.000 HD
ATOM     27  H   UNL     1      47.872   3.116  20.224  0.00  0.00    +0.000 HD
ENDBRANCH  17  24
ENDBRANCH  16  20
ENDBRANCH  15  16
ENDBRANCH   1  15
TORSDOF 5
ENDMDL
MODEL 6
REMARK VINA RESULT:    -8.050      3.876      7.476
REMARK INTER + INTRA:         -11.237
REMARK INTER:                 -10.683
REMARK INTRA:                  -0.554
REMARK UNBOUND:                -0.834
REMARK  Name = 
REMARK  5 active torsions:
REMARK  status: ('A' for Active; 'I' for Inactive)
REMARK    1  A    between atoms: C_2  and  C_4
REMARK    2  A    between atoms: C_7  and  O_8
REMARK    3  A    between atoms: O_8  and  C_9
REMARK    4  A    between atoms: C_9  and  C_10
REMARK    5  A    between atoms: C_15  and  C_16
REMARK                            x       y       z     vdW  Elec       q    Type
REMARK                         _______ _______ _______ _____ _____    ______ ____
ROOT
ATOM      1  C   UNL     1      45.391   6.279  11.185  0.00  0.00    +0.000 A 
ATOM      2  C   UNL     1      44.052   6.138  11.561  0.00  0.00    +0.000 A 
ATOM      3  C   UNL     1      43.267   5.168  10.953  0.00  0.00    +0.000 A 
ATOM      4  F   UNL     1      41.981   5.044  11.311  0.00  0.00    +0.000 F 
ATOM      5  C   UNL     1      43.790   4.316   9.984  0.00  0.00    +0.000 A 
ATOM      6  C   UNL     1      45.134   4.416   9.589  0.00  0.00    +0.000 A 
ATOM      7  C   UNL     1      45.915   5.409  10.212  0.00  0.00    +0.000 A 
ENDROOT
BRANCH   6   8
ATOM      8  C   UNL     1      45.714   3.519   8.560  0.00  0.00    +0.000 A 
ATOM      9  C   UNL     1      46.262   4.026   7.365  0.00  0.00    +0.000 A 
ATOM     10  C   UNL     1      46.816   3.181   6.395  0.00  0.00    +0.000 A 
ATOM     11  C   UNL     1      46.847   1.808   6.605  0.00  0.00    +0.000 A 
ATOM     12  C   UNL     1      46.317   1.292   7.779  0.00  0.00    +0.000 A 
ATOM     13  F   UNL     1      46.352  -0.030   7.993  0.00  0.00    +0.000 F 
ATOM     14  C   UNL     1      45.752   2.125   8.741  0.00  0.00    +0.000 A 
ENDBRANCH   6   8
BRANCH   1  15
ATOM     15  C   UNL     1      46.263   7.303  11.877  0.00  0.00    +0.000 C 
BRANCH  15  16
ATOM     16  O   UNL     1      47.554   6.750  12.156  0.00  0.00    +0.000 OA
BRANCH  16  20
ATOM     17  C   UNL     1      47.714   4.958  15.856  0.00  0.00    +0.000 A 
ATOM     18  C   UNL     1      48.439   6.128  15.624  0.00  0.00    +0.000 A 
ATOM     19  C   UNL     1      48.382   6.723  14.362  0.00  0.00    +0.000 A 
ATOM     20  C   UNL     1      47.600   6.126  13.384  0.00  0.00    +0.000 A 
ATOM     21  N   UNL     1      46.898   4.990  13.578  0.00  0.00    +0.000 NA
ATOM     22  C   UNL     1      46.978   4.426  14.806  0.00  0.00    +0.000 A 
BRANCH  17  24
ATOM     23  N   UNL     1      46.986   3.083  17.219  0.00  0.00    +0.000 N 
ATOM     24  C   UNL     1      47.700   4.246  17.149  0.00  0.00    +0.000 C 
ATOM     25  O   UNL     1      48.335   4.658  18.109  0.00  0.00    +0.000 OA
ATOM     26  H   UNL     1      47.086   2.553  18.077  0.00  0.00    +0.000 HD
ATOM     27  H   UNL     1      46.662   2.588  16.401  0.00  0.00    +0.000 HD
ENDBRANCH  17  24
ENDBRANCH  16  20
ENDBRANCH  15  16
ENDBRANCH   1  15
TORSDOF 5
ENDMDL
MODEL 7
REMARK VINA RESULT:    -7.900      3.727      6.970
REMARK INTER + INTRA:         -11.043
REMARK INTER:                 -10.113
REMARK INTRA:                  -0.931
REMARK UNBOUND:                -0.834
REMARK  Name = 
REMARK  5 active torsions:
REMARK  status: ('A' for Active; 'I' for Inactive)
REMARK    1  A    between atoms: C_2  and  C_4
REMARK    2  A    between atoms: C_7  and  O_8
REMARK    3  A    between atoms: O_8  and  C_9
REMARK    4  A    between atoms: C_9  and  C_10
REMARK    5  A    between atoms: C_15  and  C_16
REMARK                            x       y       z     vdW  Elec       q    Type
REMARK                         _______ _______ _______ _____ _____    ______ ____
ROOT
ATOM      1  C   UNL     1      44.440   5.486  11.139  0.00  0.00    +0.000 A 
ATOM      2  C   UNL     1      43.805   4.627  12.041  0.00  0.00    +0.000 A 
ATOM      3  C   UNL     1      43.793   3.261  11.797  0.00  0.00    +0.000 A 
ATOM      4  F   UNL     1      43.173   2.445  12.661  0.00  0.00    +0.000 F 
ATOM      5  C   UNL     1      44.419   2.720  10.677  0.00  0.00    +0.000 A 
ATOM      6  C   UNL     1      45.080   3.547   9.754  0.00  0.00    +0.000 A 
ATOM      7  C   UNL     1      45.078   4.932  10.014  0.00  0.00    +0.000 A 
ENDROOT
BRANCH   6   8
ATOM      8  C   UNL     1      45.754   2.994   8.554  0.00  0.00    +0.000 A 
ATOM      9  C   UNL     1      46.167   3.824   7.493  0.00  0.00    +0.000 A 
ATOM     10  C   UNL     1      46.810   3.306   6.363  0.00  0.00    +0.000 A 
ATOM     11  C   UNL     1      47.066   1.943   6.273  0.00  0.00    +0.000 A 
ATOM     12  C   UNL     1      46.672   1.112   7.311  0.00  0.00    +0.000 A 
ATOM     13  F   UNL     1      46.923  -0.202   7.236  0.00  0.00    +0.000 F 
ATOM     14  C   UNL     1      46.019   1.619   8.431  0.00  0.00    +0.000 A 
ENDBRANCH   6   8
BRANCH   1  15
ATOM     15  C   UNL     1      44.495   6.970  11.424  0.00  0.00    +0.000 C 
BRANCH  15  16
ATOM     16  O   UNL     1      45.153   7.213  12.673  0.00  0.00    +0.000 OA
BRANCH  16  20
ATOM     17  C   UNL     1      49.128   8.144  12.169  0.00  0.00    +0.000 A 
ATOM     18  C   UNL     1      48.765   6.853  12.558  0.00  0.00    +0.000 A 
ATOM     19  C   UNL     1      47.413   6.551  12.732  0.00  0.00    +0.000 A 
ATOM     20  C   UNL     1      46.478   7.551  12.508  0.00  0.00    +0.000 A 
ATOM     21  N   UNL     1      46.802   8.809  12.142  0.00  0.00    +0.000 NA
ATOM     22  C   UNL     1      48.119   9.081  11.991  0.00  0.00    +0.000 A 
BRANCH  17  24
ATOM     23  N   UNL     1      51.494   7.949  12.687  0.00  0.00    +0.000 N 
ATOM     24  C   UNL     1      50.524   8.573  11.955  0.00  0.00    +0.000 C 
ATOM     25  O   UNL     1      50.808   9.424  11.125  0.00  0.00    +0.000 OA
ATOM     26  H   UNL     1      52.450   8.175  12.440  0.00  0.00    +0.000 HD
ATOM     27  H   UNL     1      51.333   7.086  13.188  0.00  0.00    +0.000 HD
ENDBRANCH  17  24
ENDBRANCH  16  20
ENDBRANCH  15  16
ENDBRANCH   1  15
TORSDOF 5
ENDMDL
MODEL 8
REMARK VINA RESULT:    -7.630      1.989      3.284
REMARK INTER + INTRA:         -10.695
REMARK INTER:                  -9.760
REMARK INTRA:                  -0.935
REMARK UNBOUND:                -0.834
REMARK  Name = 
REMARK  5 active torsions:
REMARK  status: ('A' for Active; 'I' for Inactive)
REMARK    1  A    between atoms: C_2  and  C_4
REMARK    2  A    between atoms: C_7  and  O_8
REMARK    3  A    between atoms: O_8  and  C_9
REMARK    4  A    between atoms: C_9  and  C_10
REMARK    5  A    between atoms: C_15  and  C_16
REMARK                            x       y       z     vdW  Elec       q    Type
REMARK                         _______ _______ _______ _____ _____    ______ ____
ROOT
ATOM      1  C   UNL     1      45.568   6.310  11.819  0.00  0.00    +0.000 A 
ATOM      2  C   UNL     1      44.690   7.388  11.962  0.00  0.00    +0.000 A 
ATOM      3  C   UNL     1      45.196   8.669  12.138  0.00  0.00    +0.000 A 
ATOM      4  F   UNL     1      44.348   9.696  12.285  0.00  0.00    +0.000 F 
ATOM      5  C   UNL     1      46.568   8.908  12.158  0.00  0.00    +0.000 A 
ATOM      6  C   UNL     1      47.484   7.854  12.005  0.00  0.00    +0.000 A 
ATOM      7  C   UNL     1      46.952   6.561  11.832  0.00  0.00    +0.000 A 
ENDROOT
BRANCH   6   8
ATOM      8  C   UNL     1      48.948   8.084  12.021  0.00  0.00    +0.000 A 
ATOM      9  C   UNL     1      49.555   8.900  12.997  0.00  0.00    +0.000 A 
ATOM     10  C   UNL     1      50.939   9.113  13.018  0.00  0.00    +0.000 A 
ATOM     11  C   UNL     1      51.751   8.503  12.070  0.00  0.00    +0.000 A 
ATOM     12  C   UNL     1      51.171   7.692  11.106  0.00  0.00    +0.000 A 
ATOM     13  F   UNL     1      51.948   7.092  10.193  0.00  0.00    +0.000 F 
ATOM     14  C   UNL     1      49.794   7.487  11.070  0.00  0.00    +0.000 A 
ENDBRANCH   6   8
BRANCH   1  15
ATOM     15  C   UNL     1      45.021   4.920  11.581  0.00  0.00    +0.000 C 
BRANCH  15  16
ATOM     16  O   UNL     1      44.395   4.846  10.295  0.00  0.00    +0.000 OA
BRANCH  16  20
ATOM     17  C   UNL     1      46.601   2.619   7.630  0.00  0.00    +0.000 A 
ATOM     18  C   UNL     1      46.633   4.013   7.558  0.00  0.00    +0.000 A 
ATOM     19  C   UNL     1      45.875   4.758   8.464  0.00  0.00    +0.000 A 
ATOM     20  C   UNL     1      45.117   4.079   9.407  0.00  0.00    +0.000 A 
ATOM     21  N   UNL     1      45.060   2.733   9.492  0.00  0.00    +0.000 NA
ATOM     22  C   UNL     1      45.794   2.033   8.597  0.00  0.00    +0.000 A 
BRANCH  17  24
ATOM     23  N   UNL     1      48.405   2.285   6.038  0.00  0.00    +0.000 N 
ATOM     24  C   UNL     1      47.362   1.734   6.726  0.00  0.00    +0.000 C 
ATOM     25  O   UNL     1      47.096   0.545   6.628  0.00  0.00    +0.000 OA
ATOM     26  H   UNL     1      48.984   1.636   5.517  0.00  0.00    +0.000 HD
ATOM     27  H   UNL     1      48.808   3.180   6.276  0.00  0.00    +0.000 HD
ENDBRANCH  17  24
ENDBRANCH  16  20
ENDBRANCH  15  16
ENDBRANCH   1  15
TORSDOF 5
ENDMDL
MODEL 9
REMARK VINA RESULT:    -7.289      5.501      7.819
REMARK INTER + INTRA:         -10.254
REMARK INTER:                  -9.420
REMARK INTRA:                  -0.834
REMARK UNBOUND:                -0.834
REMARK  Name = 
REMARK  5 active torsions:
REMARK  status: ('A' for Active; 'I' for Inactive)
REMARK    1  A    between atoms: C_2  and  C_4
REMARK    2  A    between atoms: C_7  and  O_8
REMARK    3  A    between atoms: O_8  and  C_9
REMARK    4  A    between atoms: C_9  and  C_10
REMARK    5  A    between atoms: C_15  and  C_16
REMARK                            x       y       z     vdW  Elec       q    Type
REMARK                         _______ _______ _______ _____ _____    ______ ____
ROOT
ATOM      1  C   UNL     1      48.379   6.603  14.486  0.00  0.00    +0.000 A 
ATOM      2  C   UNL     1      49.139   7.356  13.586  0.00  0.00    +0.000 A 
ATOM      3  C   UNL     1      48.736   7.455  12.262  0.00  0.00    +0.000 A 
ATOM      4  F   UNL     1      49.475   8.170  11.403  0.00  0.00    +0.000 F 
ATOM      5  C   UNL     1      47.577   6.832  11.809  0.00  0.00    +0.000 A 
ATOM      6  C   UNL     1      46.778   6.077  12.683  0.00  0.00    +0.000 A 
ATOM      7  C   UNL     1      47.203   5.983  14.024  0.00  0.00    +0.000 A 
ENDROOT
BRANCH   6   8
ATOM      8  C   UNL     1      45.538   5.406  12.225  0.00  0.00    +0.000 A 
ATOM      9  C   UNL     1      44.571   4.940  13.138  0.00  0.00    +0.000 A 
ATOM     10  C   UNL     1      43.397   4.311  12.708  0.00  0.00    +0.000 A 
ATOM     11  C   UNL     1      43.155   4.144  11.349  0.00  0.00    +0.000 A 
ATOM     12  C   UNL     1      44.094   4.602  10.436  0.00  0.00    +0.000 A 
ATOM     13  F   UNL     1      43.864   4.454   9.124  0.00  0.00    +0.000 F 
ATOM     14  C   UNL     1      45.270   5.215  10.858  0.00  0.00    +0.000 A 
ENDBRANCH   6   8
BRANCH   1  15
ATOM     15  C   UNL     1      48.787   6.530  15.940  0.00  0.00    +0.000 C 
BRANCH  15  16
ATOM     16  O   UNL     1      48.199   5.383  16.565  0.00  0.00    +0.000 OA
BRANCH  16  20
ATOM     17  C   UNL     1      50.938   2.423  17.375  0.00  0.00    +0.000 A 
ATOM     18  C   UNL     1      49.634   2.077  17.014  0.00  0.00    +0.000 A 
ATOM     19  C   UNL     1      48.712   3.091  16.747  0.00  0.00    +0.000 A 
ATOM     20  C   UNL     1      49.131   4.410  16.851  0.00  0.00    +0.000 A 
ATOM     21  N   UNL     1      50.381   4.771  17.208  0.00  0.00    +0.000 NA
ATOM     22  C   UNL     1      51.254   3.771  17.472  0.00  0.00    +0.000 A 
BRANCH  17  24
ATOM     23  N   UNL     1      51.598   0.214  18.142  0.00  0.00    +0.000 N 
ATOM     24  C   UNL     1      51.994   1.435  17.676  0.00  0.00    +0.000 C 
ATOM     25  O   UNL     1      53.174   1.685  17.478  0.00  0.00    +0.000 OA
ATOM     26  H   UNL     1      52.327  -0.484  18.230  0.00  0.00    +0.000 HD
ATOM     27  H   UNL     1      50.644  -0.114  18.082  0.00  0.00    +0.000 HD
ENDBRANCH  17  24
ENDBRANCH  16  20
ENDBRANCH  15  16
ENDBRANCH   1  15
TORSDOF 5
ENDMDL
