MODEL 1
REMARK VINA RESULT:    -7.967      0.000      0.000
REMARK INTER + INTRA:         -12.152
REMARK INTER:                 -11.227
REMARK INTRA:                  -0.925
REMARK UNBOUND:                -0.925
REMARK  Name = 
REMARK  7 active torsions:
REMARK  status: ('A' for Active; 'I' for Inactive)
REMARK    1  A    between atoms: C_2  and  C_20
REMARK    2  A    between atoms: N_3  and  C_4
REMARK    3  A    between atoms: C_4  and  C_5
REMARK    4  A    between atoms: C_8  and  N_9
REMARK    5  A    between atoms: N_9  and  C_10
REMARK    6  A    between atoms: C_10  and  C_11
REMARK    7  A    between atoms: C_11  and  C_12
REMARK                            x       y       z     vdW  Elec       q    Type
REMARK                         _______ _______ _______ _____ _____    ______ ____
ROOT
ATOM      1  C   UNL     1      47.129   6.091  13.175  0.00  0.00    +0.000 A 
ATOM      2  C   UNL     1      46.358   5.043  13.690  0.00  0.00    +0.000 A 
ATOM      3  C   UNL     1      45.268   4.540  12.973  0.00  0.00    +0.000 A 
ATOM      4  C   UNL     1      44.910   5.087  11.737  0.00  0.00    +0.000 A 
ATOM      5  C   UNL     1      45.756   6.045  11.172  0.00  0.00    +0.000 A 
ATOM      6  C   UNL     1      46.848   6.555  11.884  0.00  0.00    +0.000 A 
ENDROOT
BRANCH   4   7
ATOM      7  N   UNL     1      43.790   4.676  10.995  0.00  0.00    +0.000 N 
ATOM      8  H   UNL     1      43.107   5.433  10.977  0.00  0.00    +0.000 HD
BRANCH   7   9
ATOM      9  C   UNL     1      44.020   4.152   9.637  0.00  0.00    +0.000 C 
BRANCH   9  10
ATOM     10  C   UNL     1      44.604   2.732   9.668  0.00  0.00    +0.000 C 
BRANCH  10  11
ATOM     11  C   UNL     1      45.601   2.487   8.562  0.00  0.00    +0.000 A 
ATOM     12  C   UNL     1      45.893   3.501   7.653  0.00  0.00    +0.000 A 
ATOM     13  C   UNL     1      46.792   3.244   6.622  0.00  0.00    +0.000 A 
ATOM     14  C   UNL     1      47.359   1.979   6.512  0.00  0.00    +0.000 A 
ATOM     15  C   UNL     1      46.994   1.020   7.437  0.00  0.00    +0.000 A 
ATOM     16  N   UNL     1      46.129   1.242   8.451  0.00  0.00    +0.000 NA
ENDBRANCH  10  11
ENDBRANCH   9  10
ENDBRANCH   7   9
ENDBRANCH   4   7
BRANCH   1  17
ATOM     17  C   UNL     1      48.261   6.670  13.981  0.00  0.00    +0.000 C 
BRANCH  17  20
ATOM     18  O   UNL     1      50.333   6.458  15.903  0.00  0.00    +0.000 OA
ATOM     19  C   UNL     1      49.173   6.271  16.236  0.00  0.00    +0.000 C 
ATOM     20  N   UNL     1      48.104   6.341  15.370  0.00  0.00    +0.000 N 
ATOM     21  H   UNL     1      47.176   6.423  15.762  0.00  0.00    +0.000 HD
BRANCH  19  22
ATOM     22  C   UNL     1      48.765   6.035  17.617  0.00  0.00    +0.000 A 
ATOM     23  C   UNL     1      48.875   4.798  18.227  0.00  0.00    +0.000 A 
ATOM     24  S   UNL     1      48.557   4.867  19.907  0.00  0.00    +0.000 S 
ATOM     25  C   UNL     1      48.186   6.527  19.830  0.00  0.00    +0.000 A 
ATOM     26  N   UNL     1      47.882   7.225  20.942  0.00  0.00    +0.000 NA
ATOM     27  C   UNL     1      47.568   8.517  20.715  0.00  0.00    +0.000 A 
ATOM     28  C   UNL     1      47.488   9.116  19.474  0.00  0.00    +0.000 A 
ATOM     29  C   UNL     1      47.813   8.363  18.353  0.00  0.00    +0.000 A 
ATOM     30  C   UNL     1      48.231   7.021  18.530  0.00  0.00    +0.000 A 
ENDBRANCH  19  22
ENDBRANCH  17  20
ENDBRANCH   1  17
TORSDOF 7
ENDMDL
MODEL 2
REMARK VINA RESULT:    -7.754      1.843      2.477
REMARK INTER + INTRA:         -11.853
REMARK INTER:                 -10.759
REMARK INTRA:                  -1.094
REMARK UNBOUND:                -0.925
REMARK  Name = 
REMARK  7 active torsions:
REMARK  status: ('A' for Active; 'I' for Inactive)
REMARK    1  A    between atoms: C_2  and  C_20
REMARK    2  A    between atoms: N_3  and  C_4
REMARK    3  A    between atoms: C_4  and  C_5
REMARK    4  A    between atoms: C_8  and  N_9
REMARK    5  A    between atoms: N_9  and  C_10
REMARK    6  A    between atoms: C_10  and  C_11
REMARK    7  A    between atoms: C_11  and  C_12
REMARK                            x       y       z     vdW  Elec       q    Type
REMARK                         _______ _______ _______ _____ _____    ______ ____
ROOT
ATOM      1  C   UNL     1      47.388   6.483  12.529  0.00  0.00    +0.000 A 
ATOM      2  C   UNL     1      46.616   6.912  11.444  0.00  0.00    +0.000 A 
ATOM      3  C   UNL     1      45.494   6.185  11.034  0.00  0.00    +0.000 A 
ATOM      4  C   UNL     1      45.132   5.000  11.683  0.00  0.00    +0.000 A 
ATOM      5  C   UNL     1      45.831   4.645  12.841  0.00  0.00    +0.000 A 
ATOM      6  C   UNL     1      46.955   5.368  13.256  0.00  0.00    +0.000 A 
ENDROOT
BRANCH   4   7
ATOM      7  N   UNL     1      44.060   4.186  11.284  0.00  0.00    +0.000 N 
ATOM      8  H   UNL     1      43.185   4.624  11.572  0.00  0.00    +0.000 HD
BRANCH   7   9
ATOM      9  C   UNL     1      43.995   3.779   9.869  0.00  0.00    +0.000 C 
BRANCH   9  10
ATOM     10  C   UNL     1      44.610   2.389   9.651  0.00  0.00    +0.000 C 
BRANCH  10  11
ATOM     11  C   UNL     1      45.613   2.365   8.523  0.00  0.00    +0.000 A 
ATOM     12  C   UNL     1      45.795   3.497   7.733  0.00  0.00    +0.000 A 
ATOM     13  C   UNL     1      46.702   3.444   6.678  0.00  0.00    +0.000 A 
ATOM     14  C   UNL     1      47.387   2.260   6.427  0.00  0.00    +0.000 A 
ATOM     15  C   UNL     1      47.127   1.173   7.241  0.00  0.00    +0.000 A 
ATOM     16  N   UNL     1      46.257   1.197   8.274  0.00  0.00    +0.000 NA
ENDBRANCH  10  11
ENDBRANCH   9  10
ENDBRANCH   7   9
ENDBRANCH   4   7
BRANCH   1  17
ATOM     17  C   UNL     1      48.630   7.236  12.923  0.00  0.00    +0.000 C 
BRANCH  17  20
ATOM     18  O   UNL     1      48.238   8.473  15.443  0.00  0.00    +0.000 OA
ATOM     19  C   UNL     1      48.869   7.430  15.368  0.00  0.00    +0.000 C 
ATOM     20  N   UNL     1      49.119   6.765  14.189  0.00  0.00    +0.000 N 
ATOM     21  H   UNL     1      49.420   5.801  14.237  0.00  0.00    +0.000 HD
BRANCH  19  22
ATOM     22  C   UNL     1      49.363   6.709  16.537  0.00  0.00    +0.000 A 
ATOM     23  C   UNL     1      50.365   7.206  17.352  0.00  0.00    +0.000 A 
ATOM     24  S   UNL     1      50.572   6.277  18.774  0.00  0.00    +0.000 S 
ATOM     25  C   UNL     1      49.390   5.154  18.284  0.00  0.00    +0.000 A 
ATOM     26  N   UNL     1      49.034   4.125  19.080  0.00  0.00    +0.000 NA
ATOM     27  C   UNL     1      48.119   3.297  18.537  0.00  0.00    +0.000 A 
ATOM     28  C   UNL     1      47.597   3.404  17.263  0.00  0.00    +0.000 A 
ATOM     29  C   UNL     1      47.987   4.480  16.476  0.00  0.00    +0.000 A 
ATOM     30  C   UNL     1      48.884   5.433  17.019  0.00  0.00    +0.000 A 
ENDBRANCH  19  22
ENDBRANCH  17  20
ENDBRANCH   1  17
TORSDOF 7
ENDMDL
MODEL 3
REMARK VINA RESULT:    -7.616      1.172      2.061
REMARK INTER + INTRA:         -11.659
REMARK INTER:                 -10.798
REMARK INTRA:                  -0.860
REMARK UNBOUND:                -0.925
REMARK  Name = 
REMARK  7 active torsions:
REMARK  status: ('A' for Active; 'I' for Inactive)
REMARK    1  A    between atoms: C_2  and  C_20
REMARK    2  A    between atoms: N_3  and  C_4
REMARK    3  A    between atoms: C_4  and  C_5
REMARK    4  A    between atoms: C_8  and  N_9
REMARK    5  A    between atoms: N_9  and  C_10
REMARK    6  A    between atoms: C_10  and  C_11
REMARK    7  A    between atoms: C_11  and  C_12
REMARK                            x       y       z     vdW  Elec       q    Type
REMARK                         _______ _______ _______ _____ _____    ______ ____
ROOT
ATOM      1  C   UNL     1      47.059   6.523  12.947  0.00  0.00    +0.000 A 
ATOM      2  C   UNL     1      46.550   6.634  11.648  0.00  0.00    +0.000 A 
ATOM      3  C   UNL     1      45.686   5.662  11.134  0.00  0.00    +0.000 A 
ATOM      4  C   UNL     1      45.330   4.545  11.896  0.00  0.00    +0.000 A 
ATOM      5  C   UNL     1      45.739   4.504  13.233  0.00  0.00    +0.000 A 
ATOM      6  C   UNL     1      46.604   5.473  13.754  0.00  0.00    +0.000 A 
ENDROOT
BRANCH   4   7
ATOM      7  N   UNL     1      44.523   3.499  11.421  0.00  0.00    +0.000 N 
ATOM      8  H   UNL     1      43.666   3.463  11.974  0.00  0.00    +0.000 HD
BRANCH   7   9
ATOM      9  C   UNL     1      44.212   3.470   9.981  0.00  0.00    +0.000 C 
BRANCH   9  10
ATOM     10  C   UNL     1      44.563   2.114   9.352  0.00  0.00    +0.000 C 
BRANCH  10  11
ATOM     11  C   UNL     1      45.681   2.212   8.342  0.00  0.00    +0.000 A 
ATOM     12  C   UNL     1      45.865   3.390   7.623  0.00  0.00    +0.000 A 
ATOM     13  C   UNL     1      46.882   3.448   6.674  0.00  0.00    +0.000 A 
ATOM     14  C   UNL     1      47.672   2.326   6.453  0.00  0.00    +0.000 A 
ATOM     15  C   UNL     1      47.405   1.186   7.188  0.00  0.00    +0.000 A 
ATOM     16  N   UNL     1      46.430   1.103   8.119  0.00  0.00    +0.000 NA
ENDBRANCH  10  11
ENDBRANCH   9  10
ENDBRANCH   7   9
ENDBRANCH   4   7
BRANCH   1  17
ATOM     17  C   UNL     1      48.038   7.540  13.470  0.00  0.00    +0.000 C 
BRANCH  17  20
ATOM     18  O   UNL     1      50.041   6.598  15.240  0.00  0.00    +0.000 OA
ATOM     19  C   UNL     1      49.025   7.108  15.686  0.00  0.00    +0.000 C 
ATOM     20  N   UNL     1      47.995   7.582  14.904  0.00  0.00    +0.000 N 
ATOM     21  H   UNL     1      47.321   8.206  15.328  0.00  0.00    +0.000 HD
BRANCH  19  22
ATOM     22  C   UNL     1      48.815   7.360  17.108  0.00  0.00    +0.000 A 
ATOM     23  C   UNL     1      48.547   8.621  17.611  0.00  0.00    +0.000 A 
ATOM     24  S   UNL     1      48.104   8.584  19.264  0.00  0.00    +0.000 S 
ATOM     25  C   UNL     1      48.344   6.901  19.354  0.00  0.00    +0.000 A 
ATOM     26  N   UNL     1      48.085   6.220  20.488  0.00  0.00    +0.000 NA
ATOM     27  C   UNL     1      48.367   4.903  20.418  0.00  0.00    +0.000 A 
ATOM     28  C   UNL     1      48.927   4.260  19.333  0.00  0.00    +0.000 A 
ATOM     29  C   UNL     1      49.176   4.997  18.182  0.00  0.00    +0.000 A 
ATOM     30  C   UNL     1      48.826   6.370  18.162  0.00  0.00    +0.000 A 
ENDBRANCH  19  22
ENDBRANCH  17  20
ENDBRANCH   1  17
TORSDOF 7
ENDMDL
MODEL 4
REMARK VINA RESULT:    -7.481      2.073      2.724
REMARK INTER + INTRA:         -11.468
REMARK INTER:                 -10.320
REMARK INTRA:                  -1.148
REMARK UNBOUND:                -0.925
REMARK  Name = 
REMARK  7 active torsions:
REMARK  status: ('A' for Active; 'I' for Inactive)
REMARK    1  A    between atoms: C_2  and  C_20
REMARK    2  A    between atoms: N_3  and  C_4
REMARK    3  A    between atoms: C_4  and  C_5
REMARK    4  A    between atoms: C_8  and  N_9
REMARK    5  A    between atoms: N_9  and  C_10
REMARK    6  A    between atoms: C_10  and  C_11
REMARK    7  A    between atoms: C_11  and  C_12
REMARK                            x       y       z     vdW  Elec       q    Type
REMARK                         _______ _______ _______ _____ _____    ______ ____
ROOT
ATOM      1  C   UNL     1      46.446   7.549  12.666  0.00  0.00    +0.000 A 
ATOM      2  C   UNL     1      47.085   7.014  11.543  0.00  0.00    +0.000 A 
ATOM      3  C   UNL     1      46.417   6.119  10.701  0.00  0.00    +0.000 A 
ATOM      4  C   UNL     1      45.106   5.719  10.975  0.00  0.00    +0.000 A 
ATOM      5  C   UNL     1      44.432   6.351  12.024  0.00  0.00    +0.000 A 
ATOM      6  C   UNL     1      45.094   7.248  12.872  0.00  0.00    +0.000 A 
ENDROOT
BRANCH   4   7
ATOM      7  N   UNL     1      44.399   4.775  10.212  0.00  0.00    +0.000 N 
ATOM      8  H   UNL     1      44.565   4.957   9.222  0.00  0.00    +0.000 HD
BRANCH   7   9
ATOM      9  C   UNL     1      44.607   3.348  10.520  0.00  0.00    +0.000 C 
BRANCH   9  10
ATOM     10  C   UNL     1      44.354   2.461   9.293  0.00  0.00    +0.000 C 
BRANCH  10  11
ATOM     11  C   UNL     1      45.514   2.456   8.327  0.00  0.00    +0.000 A 
ATOM     12  C   UNL     1      46.233   1.282   8.113  0.00  0.00    +0.000 A 
ATOM     13  C   UNL     1      47.319   1.307   7.243  0.00  0.00    +0.000 A 
ATOM     14  C   UNL     1      47.671   2.502   6.625  0.00  0.00    +0.000 A 
ATOM     15  C   UNL     1      46.923   3.628   6.914  0.00  0.00    +0.000 A 
ATOM     16  N   UNL     1      45.862   3.633   7.750  0.00  0.00    +0.000 NA
ENDBRANCH  10  11
ENDBRANCH   9  10
ENDBRANCH   7   9
ENDBRANCH   4   7
BRANCH   1  17
ATOM     17  C   UNL     1      47.191   8.461  13.602  0.00  0.00    +0.000 C 
BRANCH  17  20
ATOM     18  O   UNL     1      49.822   7.437  13.857  0.00  0.00    +0.000 OA
ATOM     19  C   UNL     1      49.012   7.268  14.757  0.00  0.00    +0.000 C 
ATOM     20  N   UNL     1      47.712   7.718  14.715  0.00  0.00    +0.000 N 
ATOM     21  H   UNL     1      47.193   7.761  15.582  0.00  0.00    +0.000 HD
BRANCH  19  22
ATOM     22  C   UNL     1      49.351   6.640  16.030  0.00  0.00    +0.000 A 
ATOM     23  C   UNL     1      50.300   7.164  16.891  0.00  0.00    +0.000 A 
ATOM     24  S   UNL     1      50.317   6.368  18.406  0.00  0.00    +0.000 S 
ATOM     25  C   UNL     1      49.121   5.263  17.907  0.00  0.00    +0.000 A 
ATOM     26  N   UNL     1      48.633   4.336  18.755  0.00  0.00    +0.000 NA
ATOM     27  C   UNL     1      47.725   3.505  18.202  0.00  0.00    +0.000 A 
ATOM     28  C   UNL     1      47.333   3.513  16.878  0.00  0.00    +0.000 A 
ATOM     29  C   UNL     1      47.858   4.487  16.038  0.00  0.00    +0.000 A 
ATOM     30  C   UNL     1      48.755   5.442  16.578  0.00  0.00    +0.000 A 
ENDBRANCH  19  22
ENDBRANCH  17  20
ENDBRANCH   1  17
TORSDOF 7
ENDMDL
MODEL 5
REMARK VINA RESULT:    -6.783      1.793      2.122
REMARK INTER + INTRA:         -10.484
REMARK INTER:                  -9.690
REMARK INTRA:                  -0.795
REMARK UNBOUND:                -0.925
REMARK  Name = 
REMARK  7 active torsions:
REMARK  status: ('A' for Active; 'I' for Inactive)
REMARK    1  A    between atoms: C_2  and  C_20
REMARK    2  A    between atoms: N_3  and  C_4
REMARK    3  A    between atoms: C_4  and  C_5
REMARK    4  A    between atoms: C_8  and  N_9
REMARK    5  A    between atoms: N_9  and  C_10
REMARK    6  A    between atoms: C_10  and  C_11
REMARK    7  A    between atoms: C_11  and  C_12
REMARK                            x       y       z     vdW  Elec       q    Type
REMARK                         _______ _______ _______ _____ _____    ______ ____
ROOT
ATOM      1  C   UNL     1      45.795   7.210  12.566  0.00  0.00    +0.000 A 
ATOM      2  C   UNL     1      44.783   7.427  11.625  0.00  0.00    +0.000 A 
ATOM      3  C   UNL     1      44.081   6.351  11.071  0.00  0.00    +0.000 A 
ATOM      4  C   UNL     1      44.390   5.035  11.426  0.00  0.00    +0.000 A 
ATOM      5  C   UNL     1      45.313   4.832  12.456  0.00  0.00    +0.000 A 
ATOM      6  C   UNL     1      46.020   5.903  13.015  0.00  0.00    +0.000 A 
ENDROOT
BRANCH   4   7
ATOM      7  N   UNL     1      43.774   3.907  10.861  0.00  0.00    +0.000 N 
ATOM      8  H   UNL     1      43.290   4.185  10.008  0.00  0.00    +0.000 HD
BRANCH   7   9
ATOM      9  C   UNL     1      44.608   2.715  10.621  0.00  0.00    +0.000 C 
BRANCH   9  10
ATOM     10  C   UNL     1      44.364   2.125   9.224  0.00  0.00    +0.000 C 
BRANCH  10  11
ATOM     11  C   UNL     1      45.572   2.235   8.325  0.00  0.00    +0.000 A 
ATOM     12  C   UNL     1      45.833   3.428   7.656  0.00  0.00    +0.000 A 
ATOM     13  C   UNL     1      46.934   3.498   6.808  0.00  0.00    +0.000 A 
ATOM     14  C   UNL     1      47.732   2.373   6.633  0.00  0.00    +0.000 A 
ATOM     15  C   UNL     1      47.387   1.219   7.311  0.00  0.00    +0.000 A 
ATOM     16  N   UNL     1      46.328   1.123   8.145  0.00  0.00    +0.000 NA
ENDBRANCH  10  11
ENDBRANCH   9  10
ENDBRANCH   7   9
ENDBRANCH   4   7
BRANCH   1  17
ATOM     17  C   UNL     1      46.588   8.368  13.109  0.00  0.00    +0.000 C 
BRANCH  17  20
ATOM     18  O   UNL     1      48.891   9.638  14.167  0.00  0.00    +0.000 OA
ATOM     19  C   UNL     1      48.429   8.654  14.724  0.00  0.00    +0.000 C 
ATOM     20  N   UNL     1      47.323   7.966  14.276  0.00  0.00    +0.000 N 
ATOM     21  H   UNL     1      46.862   7.333  14.916  0.00  0.00    +0.000 HD
BRANCH  19  22
ATOM     22  C   UNL     1      48.941   8.135  15.988  0.00  0.00    +0.000 A 
ATOM     23  C   UNL     1      49.741   7.008  16.062  0.00  0.00    +0.000 A 
ATOM     24  S   UNL     1      50.394   6.773  17.627  0.00  0.00    +0.000 S 
ATOM     25  C   UNL     1      49.554   8.118  18.245  0.00  0.00    +0.000 A 
ATOM     26  N   UNL     1      49.714   8.511  19.525  0.00  0.00    +0.000 NA
ATOM     27  C   UNL     1      48.949   9.564  19.880  0.00  0.00    +0.000 A 
ATOM     28  C   UNL     1      48.023  10.191  19.070  0.00  0.00    +0.000 A 
ATOM     29  C   UNL     1      47.891   9.758  17.757  0.00  0.00    +0.000 A 
ATOM     30  C   UNL     1      48.725   8.709  17.297  0.00  0.00    +0.000 A 
ENDBRANCH  19  22
ENDBRANCH  17  20
ENDBRANCH   1  17
TORSDOF 7
ENDMDL
MODEL 6
REMARK VINA RESULT:    -6.666      3.944      5.692
REMARK INTER + INTRA:         -10.320
REMARK INTER:                  -9.438
REMARK INTRA:                  -0.882
REMARK UNBOUND:                -0.925
REMARK  Name = 
REMARK  7 active torsions:
REMARK  status: ('A' for Active; 'I' for Inactive)
REMARK    1  A    between atoms: C_2  and  C_20
REMARK    2  A    between atoms: N_3  and  C_4
REMARK    3  A    between atoms: C_4  and  C_5
REMARK    4  A    between atoms: C_8  and  N_9
REMARK    5  A    between atoms: N_9  and  C_10
REMARK    6  A    between atoms: C_10  and  C_11
REMARK    7  A    between atoms: C_11  and  C_12
REMARK                            x       y       z     vdW  Elec       q    Type
REMARK                         _______ _______ _______ _____ _____    ______ ____
ROOT
ATOM      1  C   UNL     1      46.617   7.809  12.981  0.00  0.00    +0.000 A 
ATOM      2  C   UNL     1      45.507   8.265  12.261  0.00  0.00    +0.000 A 
ATOM      3  C   UNL     1      44.807   7.404  11.410  0.00  0.00    +0.000 A 
ATOM      4  C   UNL     1      45.213   6.077  11.240  0.00  0.00    +0.000 A 
ATOM      5  C   UNL     1      46.242   5.595  12.055  0.00  0.00    +0.000 A 
ATOM      6  C   UNL     1      46.948   6.451  12.909  0.00  0.00    +0.000 A 
ENDROOT
BRANCH   4   7
ATOM      7  N   UNL     1      44.599   5.178  10.354  0.00  0.00    +0.000 N 
ATOM      8  H   UNL     1      44.766   5.488   9.396  0.00  0.00    +0.000 HD
BRANCH   7   9
ATOM      9  C   UNL     1      44.915   3.745  10.498  0.00  0.00    +0.000 C 
BRANCH   9  10
ATOM     10  C   UNL     1      44.411   2.930   9.298  0.00  0.00    +0.000 C 
BRANCH  10  11
ATOM     11  C   UNL     1      45.516   2.561   8.337  0.00  0.00    +0.000 A 
ATOM     12  C   UNL     1      45.916   3.469   7.360  0.00  0.00    +0.000 A 
ATOM     13  C   UNL     1      46.914   3.098   6.464  0.00  0.00    +0.000 A 
ATOM     14  C   UNL     1      47.472   1.827   6.553  0.00  0.00    +0.000 A 
ATOM     15  C   UNL     1      46.997   0.976   7.534  0.00  0.00    +0.000 A 
ATOM     16  N   UNL     1      46.034   1.311   8.419  0.00  0.00    +0.000 NA
ENDBRANCH  10  11
ENDBRANCH   9  10
ENDBRANCH   7   9
ENDBRANCH   4   7
BRANCH   1  17
ATOM     17  C   UNL     1      47.403   8.758  13.846  0.00  0.00    +0.000 C 
BRANCH  17  20
ATOM     18  O   UNL     1      48.827   9.950  11.704  0.00  0.00    +0.000 OA
ATOM     19  C   UNL     1      49.418   9.255  12.516  0.00  0.00    +0.000 C 
ATOM     20  N   UNL     1      48.808   8.628  13.580  0.00  0.00    +0.000 N 
ATOM     21  H   UNL     1      49.391   8.289  14.333  0.00  0.00    +0.000 HD
BRANCH  19  22
ATOM     22  C   UNL     1      50.866   9.075  12.511  0.00  0.00    +0.000 A 
ATOM     23  C   UNL     1      51.684   9.575  13.509  0.00  0.00    +0.000 A 
ATOM     24  S   UNL     1      53.294   9.009  13.378  0.00  0.00    +0.000 S 
ATOM     25  C   UNL     1      52.944   8.161  11.945  0.00  0.00    +0.000 A 
ATOM     26  N   UNL     1      53.881   7.407  11.335  0.00  0.00    +0.000 NA
ATOM     27  C   UNL     1      53.466   6.833  10.186  0.00  0.00    +0.000 A 
ATOM     28  C   UNL     1      52.227   7.008   9.604  0.00  0.00    +0.000 A 
ATOM     29  C   UNL     1      51.289   7.790  10.267  0.00  0.00    +0.000 A 
ATOM     30  C   UNL     1      51.634   8.355  11.520  0.00  0.00    +0.000 A 
ENDBRANCH  19  22
ENDBRANCH  17  20
ENDBRANCH   1  17
TORSDOF 7
ENDMDL
MODEL 7
REMARK VINA RESULT:    -6.594      3.631      5.685
REMARK INTER + INTRA:         -10.218
REMARK INTER:                  -9.278
REMARK INTRA:                  -0.940
REMARK UNBOUND:                -0.925
REMARK  Name = 
REMARK  7 active torsions:
REMARK  status: ('A' for Active; 'I' for Inactive)
REMARK    1  A    between atoms: C_2  and  C_20
REMARK    2  A    between atoms: N_3  and  C_4
REMARK    3  A    between atoms: C_4  and  C_5
REMARK    4  A    between atoms: C_8  and  N_9
REMARK    5  A    between atoms: N_9  and  C_10
REMARK    6  A    between atoms: C_10  and  C_11
REMARK    7  A    between atoms: C_11  and  C_12
REMARK                            x       y       z     vdW  Elec       q    Type
REMARK                         _______ _______ _______ _____ _____    ______ ____
ROOT
ATOM      1  C   UNL     1      48.044   4.204  16.732  0.00  0.00    +0.000 A 
ATOM      2  C   UNL     1      48.731   5.416  16.858  0.00  0.00    +0.000 A 
ATOM      3  C   UNL     1      48.682   6.374  15.840  0.00  0.00    +0.000 A 
ATOM      4  C   UNL     1      47.966   6.133  14.664  0.00  0.00    +0.000 A 
ATOM      5  C   UNL     1      47.182   4.978  14.597  0.00  0.00    +0.000 A 
ATOM      6  C   UNL     1      47.226   4.014  15.611  0.00  0.00    +0.000 A 
ENDROOT
BRANCH   4   7
ATOM      7  N   UNL     1      47.928   7.020  13.576  0.00  0.00    +0.000 N 
ATOM      8  H   UNL     1      48.550   6.675  12.844  0.00  0.00    +0.000 HD
BRANCH   7   9
ATOM      9  C   UNL     1      46.609   7.365  13.015  0.00  0.00    +0.000 C 
BRANCH   9  10
ATOM     10  C   UNL     1      46.417   6.773  11.612  0.00  0.00    +0.000 C 
BRANCH  10  11
ATOM     11  C   UNL     1      45.214   5.866  11.521  0.00  0.00    +0.000 A 
ATOM     12  C   UNL     1      43.932   6.410  11.542  0.00  0.00    +0.000 A 
ATOM     13  C   UNL     1      42.836   5.554  11.489  0.00  0.00    +0.000 A 
ATOM     14  C   UNL     1      43.045   4.181  11.437  0.00  0.00    +0.000 A 
ATOM     15  C   UNL     1      44.349   3.721  11.449  0.00  0.00    +0.000 A 
ATOM     16  N   UNL     1      45.431   4.527  11.495  0.00  0.00    +0.000 NA
ENDBRANCH  10  11
ENDBRANCH   9  10
ENDBRANCH   7   9
ENDBRANCH   4   7
BRANCH   1  17
ATOM     17  C   UNL     1      48.153   3.153  17.803  0.00  0.00    +0.000 C 
BRANCH  17  20
ATOM     18  O   UNL     1      49.837   1.650  16.088  0.00  0.00    +0.000 OA
ATOM     19  C   UNL     1      50.276   2.091  17.139  0.00  0.00    +0.000 C 
ATOM     20  N   UNL     1      49.531   2.820  18.038  0.00  0.00    +0.000 N 
ATOM     21  H   UNL     1      50.020   3.354  18.744  0.00  0.00    +0.000 HD
BRANCH  19  22
ATOM     22  C   UNL     1      51.677   1.974  17.532  0.00  0.00    +0.000 A 
ATOM     23  C   UNL     1      52.295   0.753  17.737  0.00  0.00    +0.000 A 
ATOM     24  S   UNL     1      53.987   0.905  17.947  0.00  0.00    +0.000 S 
ATOM     25  C   UNL     1      53.907   2.603  17.853  0.00  0.00    +0.000 A 
ATOM     26  N   UNL     1      55.024   3.356  17.903  0.00  0.00    +0.000 NA
ATOM     27  C   UNL     1      54.797   4.685  17.861  0.00  0.00    +0.000 A 
ATOM     28  C   UNL     1      53.554   5.285  17.830  0.00  0.00    +0.000 A 
ATOM     29  C   UNL     1      52.428   4.473  17.776  0.00  0.00    +0.000 A 
ATOM     30  C   UNL     1      52.602   3.067  17.733  0.00  0.00    +0.000 A 
ENDBRANCH  19  22
ENDBRANCH  17  20
ENDBRANCH   1  17
TORSDOF 7
ENDMDL
MODEL 8
REMARK VINA RESULT:    -6.550      2.473      3.583
REMARK INTER + INTRA:         -10.156
REMARK INTER:                  -9.213
REMARK INTRA:                  -0.943
REMARK UNBOUND:                -0.925
REMARK  Name = 
REMARK  7 active torsions:
REMARK  status: ('A' for Active; 'I' for Inactive)
REMARK    1  A    between atoms: C_2  and  C_20
REMARK    2  A    between atoms: N_3  and  C_4
REMARK    3  A    between atoms: C_4  and  C_5
REMARK    4  A    between atoms: C_8  and  N_9
REMARK    5  A    between atoms: N_9  and  C_10
REMARK    6  A    between atoms: C_10  and  C_11
REMARK    7  A    between atoms: C_11  and  C_12
REMARK                            x       y       z     vdW  Elec       q    Type
REMARK                         _______ _______ _______ _____ _____    ______ ____
ROOT
ATOM      1  C   UNL     1      48.059   7.680  13.795  0.00  0.00    +0.000 A 
ATOM      2  C   UNL     1      47.807   6.391  13.314  0.00  0.00    +0.000 A 
ATOM      3  C   UNL     1      46.581   6.079  12.718  0.00  0.00    +0.000 A 
ATOM      4  C   UNL     1      45.571   7.039  12.611  0.00  0.00    +0.000 A 
ATOM      5  C   UNL     1      45.873   8.354  12.979  0.00  0.00    +0.000 A 
ATOM      6  C   UNL     1      47.098   8.674  13.577  0.00  0.00    +0.000 A 
ENDROOT
BRANCH   4   7
ATOM      7  N   UNL     1      44.295   6.778  12.086  0.00  0.00    +0.000 N 
ATOM      8  H   UNL     1      44.216   7.220  11.170  0.00  0.00    +0.000 HD
BRANCH   7   9
ATOM      9  C   UNL     1      43.850   5.374  12.027  0.00  0.00    +0.000 C 
BRANCH   9  10
ATOM     10  C   UNL     1      43.253   5.027  10.655  0.00  0.00    +0.000 C 
BRANCH  10  11
ATOM     11  C   UNL     1      44.151   4.129   9.839  0.00  0.00    +0.000 A 
ATOM     12  C   UNL     1      45.065   4.687   8.948  0.00  0.00    +0.000 A 
ATOM     13  C   UNL     1      45.861   3.841   8.182  0.00  0.00    +0.000 A 
ATOM     14  C   UNL     1      45.711   2.464   8.308  0.00  0.00    +0.000 A 
ATOM     15  C   UNL     1      44.760   1.992   9.194  0.00  0.00    +0.000 A 
ATOM     16  N   UNL     1      43.978   2.788   9.953  0.00  0.00    +0.000 NA
ENDBRANCH  10  11
ENDBRANCH   9  10
ENDBRANCH   7   9
ENDBRANCH   4   7
BRANCH   1  17
ATOM     17  C   UNL     1      49.356   7.991  14.492  0.00  0.00    +0.000 C 
BRANCH  17  20
ATOM     18  O   UNL     1      48.843   7.500  17.237  0.00  0.00    +0.000 OA
ATOM     19  C   UNL     1      49.492   6.695  16.585  0.00  0.00    +0.000 C 
ATOM     20  N   UNL     1      49.800   6.856  15.252  0.00  0.00    +0.000 N 
ATOM     21  H   UNL     1      50.113   6.047  14.733  0.00  0.00    +0.000 HD
BRANCH  19  22
ATOM     22  C   UNL     1      49.949   5.416  17.119  0.00  0.00    +0.000 A 
ATOM     23  C   UNL     1      49.090   4.356  17.353  0.00  0.00    +0.000 A 
ATOM     24  S   UNL     1      49.925   2.914  17.742  0.00  0.00    +0.000 S 
ATOM     25  C   UNL     1      51.434   3.700  17.687  0.00  0.00    +0.000 A 
ATOM     26  N   UNL     1      52.582   3.018  17.874  0.00  0.00    +0.000 NA
ATOM     27  C   UNL     1      53.691   3.786  17.846  0.00  0.00    +0.000 A 
ATOM     28  C   UNL     1      53.712   5.159  17.702  0.00  0.00    +0.000 A 
ATOM     29  C   UNL     1      52.508   5.823  17.508  0.00  0.00    +0.000 A 
ATOM     30  C   UNL     1      51.313   5.064  17.445  0.00  0.00    +0.000 A 
ENDBRANCH  19  22
ENDBRANCH  17  20
ENDBRANCH   1  17
TORSDOF 7
ENDMDL
MODEL 9
REMARK VINA RESULT:    -6.473      3.331      9.094
REMARK INTER + INTRA:         -10.047
REMARK INTER:                  -9.042
REMARK INTRA:                  -1.005
REMARK UNBOUND:                -0.925
REMARK  Name = 
REMARK  7 active torsions:
REMARK  status: ('A' for Active; 'I' for Inactive)
REMARK    1  A    between atoms: C_2  and  C_20
REMARK    2  A    between atoms: N_3  and  C_4
REMARK    3  A    between atoms: C_4  and  C_5
REMARK    4  A    between atoms: C_8  and  N_9
REMARK    5  A    between atoms: N_9  and  C_10
REMARK    6  A    between atoms: C_10  and  C_11
REMARK    7  A    between atoms: C_11  and  C_12
REMARK                            x       y       z     vdW  Elec       q    Type
REMARK                         _______ _______ _______ _____ _____    ______ ____
ROOT
ATOM      1  C   UNL     1      48.079   8.160  13.345  0.00  0.00    +0.000 A 
ATOM      2  C   UNL     1      49.362   7.624  13.191  0.00  0.00    +0.000 A 
ATOM      3  C   UNL     1      50.260   7.605  14.263  0.00  0.00    +0.000 A 
ATOM      4  C   UNL     1      49.906   8.142  15.505  0.00  0.00    +0.000 A 
ATOM      5  C   UNL     1      48.584   8.559  15.687  0.00  0.00    +0.000 A 
ATOM      6  C   UNL     1      47.680   8.582  14.618  0.00  0.00    +0.000 A 
ENDROOT
BRANCH   4   7
ATOM      7  N   UNL     1      50.778   8.216  16.603  0.00  0.00    +0.000 N 
ATOM      8  H   UNL     1      50.772   9.169  16.968  0.00  0.00    +0.000 HD
BRANCH   7   9
ATOM      9  C   UNL     1      50.596   7.241  17.693  0.00  0.00    +0.000 C 
BRANCH   9  10
ATOM     10  C   UNL     1      50.866   5.805  17.221  0.00  0.00    +0.000 C 
BRANCH  10  11
ATOM     11  C   UNL     1      49.651   4.916  17.333  0.00  0.00    +0.000 A 
ATOM     12  C   UNL     1      49.535   4.034  18.404  0.00  0.00    +0.000 A 
ATOM     13  C   UNL     1      48.422   3.200  18.472  0.00  0.00    +0.000 A 
ATOM     14  C   UNL     1      47.468   3.254  17.462  0.00  0.00    +0.000 A 
ATOM     15  C   UNL     1      47.674   4.137  16.418  0.00  0.00    +0.000 A 
ATOM     16  N   UNL     1      48.740   4.961  16.329  0.00  0.00    +0.000 NA
ENDBRANCH  10  11
ENDBRANCH   9  10
ENDBRANCH   7   9
ENDBRANCH   4   7
BRANCH   1  17
ATOM     17  C   UNL     1      47.141   8.235  12.170  0.00  0.00    +0.000 C 
BRANCH  17  20
ATOM     18  O   UNL     1      44.476   7.806  11.305  0.00  0.00    +0.000 OA
ATOM     19  C   UNL     1      45.208   6.851  11.519  0.00  0.00    +0.000 C 
ATOM     20  N   UNL     1      46.510   6.963  11.952  0.00  0.00    +0.000 N 
ATOM     21  H   UNL     1      47.115   6.158  11.863  0.00  0.00    +0.000 HD
BRANCH  19  22
ATOM     22  C   UNL     1      44.818   5.470  11.257  0.00  0.00    +0.000 A 
ATOM     23  C   UNL     1      44.065   4.725  12.147  0.00  0.00    +0.000 A 
ATOM     24  S   UNL     1      43.551   3.235  11.481  0.00  0.00    +0.000 S 
ATOM     25  C   UNL     1      44.394   3.523  10.030  0.00  0.00    +0.000 A 
ATOM     26  N   UNL     1      44.327   2.655   9.001  0.00  0.00    +0.000 NA
ATOM     27  C   UNL     1      45.083   2.999   7.938  0.00  0.00    +0.000 A 
ATOM     28  C   UNL     1      45.919   4.096   7.869  0.00  0.00    +0.000 A 
ATOM     29  C   UNL     1      45.956   4.967   8.950  0.00  0.00    +0.000 A 
ATOM     30  C   UNL     1      45.122   4.708  10.066  0.00  0.00    +0.000 A 
ENDBRANCH  19  22
ENDBRANCH  17  20
ENDBRANCH   1  17
TORSDOF 7
ENDMDL
