MODEL 1
REMARK VINA RESULT:    -8.986      0.000      0.000
REMARK INTER + INTRA:         -13.440
REMARK INTER:                 -12.138
REMARK INTRA:                  -1.302
REMARK UNBOUND:                -1.302
REMARK  Name = 
REMARK  8 active torsions:
REMARK  status: ('A' for Active; 'I' for Inactive)
REMARK    1  A    between atoms: C_1  and  C_2
REMARK    2  A    between atoms: C_2  and  C_3
REMARK    3  A    between atoms: C_2  and  C_4
REMARK    4  A    between atoms: C_2  and  C_15
REMARK    5  A    between atoms: C_4  and  N_5
REMARK    6  A    between atoms: N_5  and  C_6
REMARK    7  A    between atoms: C_9  and  C_10
REMARK    8  A    between atoms: C_20  and  C_21
REMARK                            x       y       z     vdW  Elec       q    Type
REMARK                         _______ _______ _______ _____ _____    ______ ____
ROOT
ATOM      1  C   UNL     1      42.871   5.390  13.019  0.00  0.00    +0.000 C 
ATOM      2  C   UNL     1      43.879   4.549  12.202  0.00  0.00    +0.000 C 
ATOM      3  C   UNL     1      43.626   3.060  12.550  0.00  0.00    +0.000 C 
ENDROOT
BRANCH   2   4
ATOM      4  C   UNL     1      45.296   5.033  12.591  0.00  0.00    +0.000 A 
ATOM      5  C   UNL     1      45.965   5.992  11.814  0.00  0.00    +0.000 A 
ATOM      6  C   UNL     1      47.196   6.500  12.219  0.00  0.00    +0.000 A 
ATOM      7  F   UNL     1      47.796   7.437  11.472  0.00  0.00    +0.000 F 
ATOM      8  C   UNL     1      47.790   6.091  13.406  0.00  0.00    +0.000 A 
ATOM      9  C   UNL     1      47.153   5.156  14.232  0.00  0.00    +0.000 A 
ATOM     10  C   UNL     1      45.926   4.620  13.782  0.00  0.00    +0.000 A 
BRANCH   9  11
ATOM     11  C   UNL     1      47.661   4.823  15.584  0.00  0.00    +0.000 A 
ATOM     12  C   UNL     1      47.341   3.595  16.190  0.00  0.00    +0.000 A 
ATOM     13  C   UNL     1      47.917   3.207  17.403  0.00  0.00    +0.000 A 
ATOM     14  C   UNL     1      48.832   4.039  18.038  0.00  0.00    +0.000 A 
ATOM     15  C   UNL     1      49.149   5.271  17.474  0.00  0.00    +0.000 A 
ATOM     16  C   UNL     1      48.560   5.663  16.269  0.00  0.00    +0.000 A 
ENDBRANCH   9  11
ENDBRANCH   2   4
BRANCH   2  17
ATOM     17  C   UNL     1      43.662   4.734  10.665  0.00  0.00    +0.000 C 
BRANCH  17  18
ATOM     18  N   UNL     1      43.652   3.450   9.949  0.00  0.00    +0.000 N 
ATOM     19  H   UNL     1      42.768   3.276   9.479  0.00  0.00    +0.000 HD
BRANCH  18  20
ATOM     20  C   UNL     1      44.723   3.141   9.102  0.00  0.00    +0.000 A 
ATOM     21  C   UNL     1      45.207   1.844   8.911  0.00  0.00    +0.000 A 
ATOM     22  C   UNL     1      46.245   1.585   8.007  0.00  0.00    +0.000 A 
ATOM     23  C   UNL     1      46.793   2.619   7.244  0.00  0.00    +0.000 A 
ATOM     24  C   UNL     1      46.296   3.916   7.393  0.00  0.00    +0.000 A 
ATOM     25  C   UNL     1      45.258   4.162   8.300  0.00  0.00    +0.000 A 
BRANCH  23  26
ATOM     26  C   UNL     1      47.899   2.293   6.308  0.00  0.00    +0.000 C 
ATOM     27  N   UNL     1      47.934   2.960   5.115  0.00  0.00    +0.000 N 
ATOM     28  O   UNL     1      48.732   1.437   6.568  0.00  0.00    +0.000 OA
ATOM     29  H   UNL     1      47.144   3.473   4.755  0.00  0.00    +0.000 HD
ATOM     30  H   UNL     1      48.627   2.638   4.451  0.00  0.00    +0.000 HD
ENDBRANCH  23  26
ENDBRANCH  18  20
ENDBRANCH  17  18
ENDBRANCH   2  17
TORSDOF 6
ENDMDL
MODEL 2
REMARK VINA RESULT:    -8.440      1.962      3.735
REMARK INTER + INTRA:         -12.702
REMARK INTER:                 -11.557
REMARK INTRA:                  -1.145
REMARK UNBOUND:                -1.302
REMARK  Name = 
REMARK  8 active torsions:
REMARK  status: ('A' for Active; 'I' for Inactive)
REMARK    1  A    between atoms: C_1  and  C_2
REMARK    2  A    between atoms: C_2  and  C_3
REMARK    3  A    between atoms: C_2  and  C_4
REMARK    4  A    between atoms: C_2  and  C_15
REMARK    5  A    between atoms: C_4  and  N_5
REMARK    6  A    between atoms: N_5  and  C_6
REMARK    7  A    between atoms: C_9  and  C_10
REMARK    8  A    between atoms: C_20  and  C_21
REMARK                            x       y       z     vdW  Elec       q    Type
REMARK                         _______ _______ _______ _____ _____    ______ ____
ROOT
ATOM      1  C   UNL     1      43.883   6.167  11.241  0.00  0.00    +0.000 C 
ATOM      2  C   UNL     1      44.122   5.065  12.300  0.00  0.00    +0.000 C 
ATOM      3  C   UNL     1      42.879   5.040  13.227  0.00  0.00    +0.000 C 
ENDROOT
BRANCH   2   4
ATOM      4  C   UNL     1      45.429   5.425  13.044  0.00  0.00    +0.000 A 
ATOM      5  C   UNL     1      45.921   4.602  14.071  0.00  0.00    +0.000 A 
ATOM      6  C   UNL     1      47.147   4.872  14.670  0.00  0.00    +0.000 A 
ATOM      7  F   UNL     1      47.604   4.051  15.626  0.00  0.00    +0.000 F 
ATOM      8  C   UNL     1      47.929   5.946  14.264  0.00  0.00    +0.000 A 
ATOM      9  C   UNL     1      47.498   6.783  13.227  0.00  0.00    +0.000 A 
ATOM     10  C   UNL     1      46.230   6.518  12.661  0.00  0.00    +0.000 A 
BRANCH   9  11
ATOM     11  C   UNL     1      48.371   7.829  12.644  0.00  0.00    +0.000 A 
ATOM     12  C   UNL     1      49.572   7.486  11.998  0.00  0.00    +0.000 A 
ATOM     13  C   UNL     1      50.341   8.442  11.329  0.00  0.00    +0.000 A 
ATOM     14  C   UNL     1      49.922   9.767  11.286  0.00  0.00    +0.000 A 
ATOM     15  C   UNL     1      48.751  10.141  11.937  0.00  0.00    +0.000 A 
ATOM     16  C   UNL     1      47.993   9.185  12.620  0.00  0.00    +0.000 A 
ENDBRANCH   9  11
ENDBRANCH   2   4
BRANCH   2  17
ATOM     17  C   UNL     1      44.263   3.657  11.636  0.00  0.00    +0.000 C 
BRANCH  17  18
ATOM     18  N   UNL     1      43.811   3.656  10.238  0.00  0.00    +0.000 N 
ATOM     19  H   UNL     1      43.297   4.499   9.996  0.00  0.00    +0.000 HD
BRANCH  18  20
ATOM     20  C   UNL     1      44.733   3.343   9.231  0.00  0.00    +0.000 A 
ATOM     21  C   UNL     1      45.400   4.307   8.469  0.00  0.00    +0.000 A 
ATOM     22  C   UNL     1      46.356   3.938   7.514  0.00  0.00    +0.000 A 
ATOM     23  C   UNL     1      46.692   2.595   7.331  0.00  0.00    +0.000 A 
ATOM     24  C   UNL     1      46.063   1.621   8.111  0.00  0.00    +0.000 A 
ATOM     25  C   UNL     1      45.109   2.001   9.063  0.00  0.00    +0.000 A 
BRANCH  23  26
ATOM     26  C   UNL     1      47.704   2.257   6.298  0.00  0.00    +0.000 C 
ATOM     27  N   UNL     1      47.796   3.080   5.211  0.00  0.00    +0.000 N 
ATOM     28  O   UNL     1      48.410   1.263   6.390  0.00  0.00    +0.000 OA
ATOM     29  H   UNL     1      47.078   3.747   4.971  0.00  0.00    +0.000 HD
ATOM     30  H   UNL     1      48.410   2.765   4.471  0.00  0.00    +0.000 HD
ENDBRANCH  23  26
ENDBRANCH  18  20
ENDBRANCH  17  18
ENDBRANCH   2  17
TORSDOF 6
ENDMDL
MODEL 3
REMARK VINA RESULT:    -8.173      2.747      4.981
REMARK INTER + INTRA:         -12.341
REMARK INTER:                 -11.309
REMARK INTRA:                  -1.033
REMARK UNBOUND:                -1.302
REMARK  Name = 
REMARK  8 active torsions:
REMARK  status: ('A' for Active; 'I' for Inactive)
REMARK    1  A    between atoms: C_1  and  C_2
REMARK    2  A    between atoms: C_2  and  C_3
REMARK    3  A    between atoms: C_2  and  C_4
REMARK    4  A    between atoms: C_2  and  C_15
REMARK    5  A    between atoms: C_4  and  N_5
REMARK    6  A    between atoms: N_5  and  C_6
REMARK    7  A    between atoms: C_9  and  C_10
REMARK    8  A    between atoms: C_20  and  C_21
REMARK                            x       y       z     vdW  Elec       q    Type
REMARK                         _______ _______ _______ _____ _____    ______ ____
ROOT
ATOM      1  C   UNL     1      43.222   4.633  13.524  0.00  0.00    +0.000 C 
ATOM      2  C   UNL     1      44.139   4.524  12.283  0.00  0.00    +0.000 C 
ATOM      3  C   UNL     1      44.985   3.236  12.446  0.00  0.00    +0.000 C 
ENDROOT
BRANCH   2   4
ATOM      4  C   UNL     1      44.994   5.812  12.235  0.00  0.00    +0.000 A 
ATOM      5  C   UNL     1      46.397   5.743  12.261  0.00  0.00    +0.000 A 
ATOM      6  C   UNL     1      47.165   6.894  12.116  0.00  0.00    +0.000 A 
ATOM      7  F   UNL     1      48.502   6.793  12.115  0.00  0.00    +0.000 F 
ATOM      8  C   UNL     1      46.576   8.137  11.924  0.00  0.00    +0.000 A 
ATOM      9  C   UNL     1      45.182   8.258  11.864  0.00  0.00    +0.000 A 
ATOM     10  C   UNL     1      44.418   7.085  12.056  0.00  0.00    +0.000 A 
BRANCH   9  11
ATOM     11  C   UNL     1      44.517   9.528  11.488  0.00  0.00    +0.000 A 
ATOM     12  C   UNL     1      45.092  10.768  11.822  0.00  0.00    +0.000 A 
ATOM     13  C   UNL     1      44.551  11.971  11.363  0.00  0.00    +0.000 A 
ATOM     14  C   UNL     1      43.421  11.964  10.553  0.00  0.00    +0.000 A 
ATOM     15  C   UNL     1      42.816  10.755  10.227  0.00  0.00    +0.000 A 
ATOM     16  C   UNL     1      43.350   9.553  10.701  0.00  0.00    +0.000 A 
ENDBRANCH   9  11
ENDBRANCH   2   4
BRANCH   2  17
ATOM     17  C   UNL     1      43.304   4.395  10.967  0.00  0.00    +0.000 C 
BRANCH  17  18
ATOM     18  N   UNL     1      43.981   5.016   9.819  0.00  0.00    +0.000 N 
ATOM     19  H   UNL     1      44.457   5.878  10.071  0.00  0.00    +0.000 HD
BRANCH  18  20
ATOM     20  C   UNL     1      44.805   4.222   9.013  0.00  0.00    +0.000 A 
ATOM     21  C   UNL     1      45.870   4.729   8.261  0.00  0.00    +0.000 A 
ATOM     22  C   UNL     1      46.698   3.881   7.516  0.00  0.00    +0.000 A 
ATOM     23  C   UNL     1      46.499   2.498   7.541  0.00  0.00    +0.000 A 
ATOM     24  C   UNL     1      45.465   1.970   8.316  0.00  0.00    +0.000 A 
ATOM     25  C   UNL     1      44.643   2.828   9.057  0.00  0.00    +0.000 A 
BRANCH  23  26
ATOM     26  C   UNL     1      47.399   1.644   6.724  0.00  0.00    +0.000 C 
ATOM     27  N   UNL     1      48.390   2.265   6.017  0.00  0.00    +0.000 N 
ATOM     28  O   UNL     1      47.248   0.433   6.653  0.00  0.00    +0.000 OA
ATOM     29  H   UNL     1      48.394   3.259   5.843  0.00  0.00    +0.000 HD
ATOM     30  H   UNL     1      48.913   1.676   5.382  0.00  0.00    +0.000 HD
ENDBRANCH  23  26
ENDBRANCH  18  20
ENDBRANCH  17  18
ENDBRANCH   2  17
TORSDOF 6
ENDMDL
MODEL 4
REMARK VINA RESULT:    -7.901      2.409      3.239
REMARK INTER + INTRA:         -11.975
REMARK INTER:                 -11.015
REMARK INTRA:                  -0.959
REMARK UNBOUND:                -1.302
REMARK  Name = 
REMARK  8 active torsions:
REMARK  status: ('A' for Active; 'I' for Inactive)
REMARK    1  A    between atoms: C_1  and  C_2
REMARK    2  A    between atoms: C_2  and  C_3
REMARK    3  A    between atoms: C_2  and  C_4
REMARK    4  A    between atoms: C_2  and  C_15
REMARK    5  A    between atoms: C_4  and  N_5
REMARK    6  A    between atoms: N_5  and  C_6
REMARK    7  A    between atoms: C_9  and  C_10
REMARK    8  A    between atoms: C_20  and  C_21
REMARK                            x       y       z     vdW  Elec       q    Type
REMARK                         _______ _______ _______ _____ _____    ______ ____
ROOT
ATOM      1  C   UNL     1      43.242   4.752  13.539  0.00  0.00    +0.000 C 
ATOM      2  C   UNL     1      44.120   4.616  12.274  0.00  0.00    +0.000 C 
ATOM      3  C   UNL     1      45.187   3.531  12.567  0.00  0.00    +0.000 C 
ENDROOT
BRANCH   2   4
ATOM      4  C   UNL     1      44.730   6.008  11.991  0.00  0.00    +0.000 A 
ATOM      5  C   UNL     1      43.926   7.065  11.532  0.00  0.00    +0.000 A 
ATOM      6  C   UNL     1      44.455   8.342  11.374  0.00  0.00    +0.000 A 
ATOM      7  F   UNL     1      43.655   9.336  10.964  0.00  0.00    +0.000 F 
ATOM      8  C   UNL     1      45.781   8.617  11.680  0.00  0.00    +0.000 A 
ATOM      9  C   UNL     1      46.620   7.606  12.166  0.00  0.00    +0.000 A 
ATOM     10  C   UNL     1      46.076   6.307  12.278  0.00  0.00    +0.000 A 
BRANCH   9  11
ATOM     11  C   UNL     1      47.985   7.890  12.669  0.00  0.00    +0.000 A 
ATOM     12  C   UNL     1      48.496   7.206  13.787  0.00  0.00    +0.000 A 
ATOM     13  C   UNL     1      49.824   7.362  14.194  0.00  0.00    +0.000 A 
ATOM     14  C   UNL     1      50.675   8.204  13.488  0.00  0.00    +0.000 A 
ATOM     15  C   UNL     1      50.191   8.912  12.393  0.00  0.00    +0.000 A 
ATOM     16  C   UNL     1      48.858   8.767  11.998  0.00  0.00    +0.000 A 
ENDBRANCH   9  11
ENDBRANCH   2   4
BRANCH   2  17
ATOM     17  C   UNL     1      43.277   4.149  11.042  0.00  0.00    +0.000 C 
BRANCH  17  18
ATOM     18  N   UNL     1      43.752   4.749   9.787  0.00  0.00    +0.000 N 
ATOM     19  H   UNL     1      44.052   5.713   9.908  0.00  0.00    +0.000 HD
BRANCH  18  20
ATOM     20  C   UNL     1      44.680   4.044   9.011  0.00  0.00    +0.000 A 
ATOM     21  C   UNL     1      45.676   4.662   8.248  0.00  0.00    +0.000 A 
ATOM     22  C   UNL     1      46.615   3.905   7.536  0.00  0.00    +0.000 A 
ATOM     23  C   UNL     1      46.600   2.510   7.607  0.00  0.00    +0.000 A 
ATOM     24  C   UNL     1      45.637   1.877   8.396  0.00  0.00    +0.000 A 
ATOM     25  C   UNL     1      44.703   2.643   9.103  0.00  0.00    +0.000 A 
BRANCH  23  26
ATOM     26  C   UNL     1      47.611   1.755   6.824  0.00  0.00    +0.000 C 
ATOM     27  N   UNL     1      48.707   2.440   6.381  0.00  0.00    +0.000 N 
ATOM     28  O   UNL     1      47.463   0.572   6.552  0.00  0.00    +0.000 OA
ATOM     29  H   UNL     1      48.747   3.448   6.359  0.00  0.00    +0.000 HD
ATOM     30  H   UNL     1      49.320   1.933   5.755  0.00  0.00    +0.000 HD
ENDBRANCH  23  26
ENDBRANCH  18  20
ENDBRANCH  17  18
ENDBRANCH   2  17
TORSDOF 6
ENDMDL
MODEL 5
REMARK VINA RESULT:    -7.593      3.860      8.333
REMARK INTER + INTRA:         -11.558
REMARK INTER:                 -10.599
REMARK INTRA:                  -0.959
REMARK UNBOUND:                -1.302
REMARK  Name = 
REMARK  8 active torsions:
REMARK  status: ('A' for Active; 'I' for Inactive)
REMARK    1  A    between atoms: C_1  and  C_2
REMARK    2  A    between atoms: C_2  and  C_3
REMARK    3  A    between atoms: C_2  and  C_4
REMARK    4  A    between atoms: C_2  and  C_15
REMARK    5  A    between atoms: C_4  and  N_5
REMARK    6  A    between atoms: N_5  and  C_6
REMARK    7  A    between atoms: C_9  and  C_10
REMARK    8  A    between atoms: C_20  and  C_21
REMARK                            x       y       z     vdW  Elec       q    Type
REMARK                         _______ _______ _______ _____ _____    ______ ____
ROOT
ATOM      1  C   UNL     1      45.605   8.785  12.063  0.00  0.00    +0.000 C 
ATOM      2  C   UNL     1      46.329   7.425  12.200  0.00  0.00    +0.000 C 
ATOM      3  C   UNL     1      47.667   7.536  11.425  0.00  0.00    +0.000 C 
ENDROOT
BRANCH   2   4
ATOM      4  C   UNL     1      45.382   6.346  11.628  0.00  0.00    +0.000 A 
ATOM      5  C   UNL     1      44.008   6.366  11.922  0.00  0.00    +0.000 A 
ATOM      6  C   UNL     1      43.142   5.455  11.326  0.00  0.00    +0.000 A 
ATOM      7  F   UNL     1      41.832   5.520  11.604  0.00  0.00    +0.000 F 
ATOM      8  C   UNL     1      43.599   4.513  10.414  0.00  0.00    +0.000 A 
ATOM      9  C   UNL     1      44.955   4.465  10.066  0.00  0.00    +0.000 A 
ATOM     10  C   UNL     1      45.826   5.370  10.713  0.00  0.00    +0.000 A 
BRANCH   9  11
ATOM     11  C   UNL     1      45.458   3.598   8.974  0.00  0.00    +0.000 A 
ATOM     12  C   UNL     1      46.048   4.157   7.826  0.00  0.00    +0.000 A 
ATOM     13  C   UNL     1      46.646   3.357   6.849  0.00  0.00    +0.000 A 
ATOM     14  C   UNL     1      46.672   1.975   7.000  0.00  0.00    +0.000 A 
ATOM     15  C   UNL     1      46.074   1.392   8.112  0.00  0.00    +0.000 A 
ATOM     16  C   UNL     1      45.462   2.194   9.080  0.00  0.00    +0.000 A 
ENDBRANCH   9  11
ENDBRANCH   2   4
BRANCH   2  17
ATOM     17  C   UNL     1      46.657   7.101  13.694  0.00  0.00    +0.000 C 
BRANCH  17  18
ATOM     18  N   UNL     1      47.229   5.757  13.856  0.00  0.00    +0.000 N 
ATOM     19  H   UNL     1      47.916   5.540  13.139  0.00  0.00    +0.000 HD
BRANCH  18  20
ATOM     20  C   UNL     1      47.703   5.373  15.116  0.00  0.00    +0.000 A 
ATOM     21  C   UNL     1      48.584   6.147  15.878  0.00  0.00    +0.000 A 
ATOM     22  C   UNL     1      48.981   5.741  17.158  0.00  0.00    +0.000 A 
ATOM     23  C   UNL     1      48.470   4.567  17.718  0.00  0.00    +0.000 A 
ATOM     24  C   UNL     1      47.559   3.802  16.987  0.00  0.00    +0.000 A 
ATOM     25  C   UNL     1      47.170   4.217  15.708  0.00  0.00    +0.000 A 
BRANCH  23  26
ATOM     26  C   UNL     1      48.931   4.177  19.075  0.00  0.00    +0.000 C 
ATOM     27  N   UNL     1      48.319   3.108  19.667  0.00  0.00    +0.000 N 
ATOM     28  O   UNL     1      49.802   4.801  19.664  0.00  0.00    +0.000 OA
ATOM     29  H   UNL     1      47.443   2.731  19.338  0.00  0.00    +0.000 HD
ATOM     30  H   UNL     1      48.570   2.935  20.632  0.00  0.00    +0.000 HD
ENDBRANCH  23  26
ENDBRANCH  18  20
ENDBRANCH  17  18
ENDBRANCH   2  17
TORSDOF 6
ENDMDL
MODEL 6
REMARK VINA RESULT:    -7.138      3.891      7.934
REMARK INTER + INTRA:         -10.945
REMARK INTER:                  -9.525
REMARK INTRA:                  -1.419
REMARK UNBOUND:                -1.302
REMARK  Name = 
REMARK  8 active torsions:
REMARK  status: ('A' for Active; 'I' for Inactive)
REMARK    1  A    between atoms: C_1  and  C_2
REMARK    2  A    between atoms: C_2  and  C_3
REMARK    3  A    between atoms: C_2  and  C_4
REMARK    4  A    between atoms: C_2  and  C_15
REMARK    5  A    between atoms: C_4  and  N_5
REMARK    6  A    between atoms: N_5  and  C_6
REMARK    7  A    between atoms: C_9  and  C_10
REMARK    8  A    between atoms: C_20  and  C_21
REMARK                            x       y       z     vdW  Elec       q    Type
REMARK                         _______ _______ _______ _____ _____    ______ ____
ROOT
ATOM      1  C   UNL     1      49.070  10.052  11.737  0.00  0.00    +0.000 C 
ATOM      2  C   UNL     1      48.815   8.685  12.412  0.00  0.00    +0.000 C 
ATOM      3  C   UNL     1      49.819   7.674  11.802  0.00  0.00    +0.000 C 
ENDROOT
BRANCH   2   4
ATOM      4  C   UNL     1      47.338   8.314  12.143  0.00  0.00    +0.000 A 
ATOM      5  C   UNL     1      46.330   9.291  12.198  0.00  0.00    +0.000 A 
ATOM      6  C   UNL     1      45.018   8.977  11.858  0.00  0.00    +0.000 A 
ATOM      7  F   UNL     1      44.085   9.939  11.891  0.00  0.00    +0.000 F 
ATOM      8  C   UNL     1      44.666   7.701  11.438  0.00  0.00    +0.000 A 
ATOM      9  C   UNL     1      45.637   6.695  11.340  0.00  0.00    +0.000 A 
ATOM     10  C   UNL     1      46.954   7.022  11.731  0.00  0.00    +0.000 A 
BRANCH   9  11
ATOM     11  C   UNL     1      45.344   5.375  10.734  0.00  0.00    +0.000 A 
ATOM     12  C   UNL     1      44.758   4.348  11.496  0.00  0.00    +0.000 A 
ATOM     13  C   UNL     1      44.354   3.145  10.911  0.00  0.00    +0.000 A 
ATOM     14  C   UNL     1      44.523   2.942   9.546  0.00  0.00    +0.000 A 
ATOM     15  C   UNL     1      45.122   3.929   8.772  0.00  0.00    +0.000 A 
ATOM     16  C   UNL     1      45.540   5.126   9.362  0.00  0.00    +0.000 A 
ENDBRANCH   9  11
ENDBRANCH   2   4
BRANCH   2  17
ATOM     17  C   UNL     1      49.069   8.753  13.953  0.00  0.00    +0.000 C 
BRANCH  17  18
ATOM     18  N   UNL     1      49.872   7.619  14.433  0.00  0.00    +0.000 N 
ATOM     19  H   UNL     1      50.755   7.915  14.841  0.00  0.00    +0.000 HD
BRANCH  18  20
ATOM     20  C   UNL     1      49.261   6.654  15.242  0.00  0.00    +0.000 A 
ATOM     21  C   UNL     1      48.092   5.975  14.885  0.00  0.00    +0.000 A 
ATOM     22  C   UNL     1      47.556   4.977  15.708  0.00  0.00    +0.000 A 
ATOM     23  C   UNL     1      48.205   4.610  16.889  0.00  0.00    +0.000 A 
ATOM     24  C   UNL     1      49.395   5.250  17.242  0.00  0.00    +0.000 A 
ATOM     25  C   UNL     1      49.921   6.247  16.412  0.00  0.00    +0.000 A 
BRANCH  23  26
ATOM     26  C   UNL     1      47.588   3.553  17.731  0.00  0.00    +0.000 C 
ATOM     27  N   UNL     1      48.243   3.196  18.876  0.00  0.00    +0.000 N 
ATOM     28  O   UNL     1      46.552   2.992  17.404  0.00  0.00    +0.000 OA
ATOM     29  H   UNL     1      49.206   3.439  19.051  0.00  0.00    +0.000 HD
ATOM     30  H   UNL     1      47.864   2.397  19.369  0.00  0.00    +0.000 HD
ENDBRANCH  23  26
ENDBRANCH  18  20
ENDBRANCH  17  18
ENDBRANCH   2  17
TORSDOF 6
ENDMDL
MODEL 7
REMARK VINA RESULT:    -7.042      3.259      5.051
REMARK INTER + INTRA:         -10.815
REMARK INTER:                  -9.309
REMARK INTRA:                  -1.506
REMARK UNBOUND:                -1.302
REMARK  Name = 
REMARK  8 active torsions:
REMARK  status: ('A' for Active; 'I' for Inactive)
REMARK    1  A    between atoms: C_1  and  C_2
REMARK    2  A    between atoms: C_2  and  C_3
REMARK    3  A    between atoms: C_2  and  C_4
REMARK    4  A    between atoms: C_2  and  C_15
REMARK    5  A    between atoms: C_4  and  N_5
REMARK    6  A    between atoms: N_5  and  C_6
REMARK    7  A    between atoms: C_9  and  C_10
REMARK    8  A    between atoms: C_20  and  C_21
REMARK                            x       y       z     vdW  Elec       q    Type
REMARK                         _______ _______ _______ _____ _____    ______ ____
ROOT
ATOM      1  C   UNL     1      48.780   7.174  11.987  0.00  0.00    +0.000 C 
ATOM      2  C   UNL     1      48.276   8.454  12.692  0.00  0.00    +0.000 C 
ATOM      3  C   UNL     1      49.077   9.647  12.110  0.00  0.00    +0.000 C 
ENDROOT
BRANCH   2   4
ATOM      4  C   UNL     1      48.496   8.256  14.209  0.00  0.00    +0.000 A 
ATOM      5  C   UNL     1      48.340   9.327  15.104  0.00  0.00    +0.000 A 
ATOM      6  C   UNL     1      48.440   9.125  16.477  0.00  0.00    +0.000 A 
ATOM      7  F   UNL     1      48.257  10.162  17.306  0.00  0.00    +0.000 F 
ATOM      8  C   UNL     1      48.677   7.863  17.006  0.00  0.00    +0.000 A 
ATOM      9  C   UNL     1      48.814   6.755  16.160  0.00  0.00    +0.000 A 
ATOM     10  C   UNL     1      48.753   6.988  14.768  0.00  0.00    +0.000 A 
BRANCH   9  11
ATOM     11  C   UNL     1      48.892   5.370  16.682  0.00  0.00    +0.000 A 
ATOM     12  C   UNL     1      47.871   4.441  16.412  0.00  0.00    +0.000 A 
ATOM     13  C   UNL     1      47.990   3.098  16.781  0.00  0.00    +0.000 A 
ATOM     14  C   UNL     1      49.137   2.651  17.427  0.00  0.00    +0.000 A 
ATOM     15  C   UNL     1      50.152   3.553  17.730  0.00  0.00    +0.000 A 
ATOM     16  C   UNL     1      50.024   4.899  17.373  0.00  0.00    +0.000 A 
ENDBRANCH   9  11
ENDBRANCH   2   4
BRANCH   2  17
ATOM     17  C   UNL     1      46.758   8.702  12.406  0.00  0.00    +0.000 C 
BRANCH  17  18
ATOM     18  N   UNL     1      45.893   7.873  13.258  0.00  0.00    +0.000 N 
ATOM     19  H   UNL     1      45.160   8.415  13.709  0.00  0.00    +0.000 HD
BRANCH  18  20
ATOM     20  C   UNL     1      45.368   6.686  12.734  0.00  0.00    +0.000 A 
ATOM     21  C   UNL     1      44.583   6.633  11.578  0.00  0.00    +0.000 A 
ATOM     22  C   UNL     1      44.132   5.411  11.066  0.00  0.00    +0.000 A 
ATOM     23  C   UNL     1      44.493   4.210  11.681  0.00  0.00    +0.000 A 
ATOM     24  C   UNL     1      45.309   4.241  12.814  0.00  0.00    +0.000 A 
ATOM     25  C   UNL     1      45.753   5.469  13.318  0.00  0.00    +0.000 A 
BRANCH  23  26
ATOM     26  C   UNL     1      43.979   2.941  11.104  0.00  0.00    +0.000 C 
ATOM     27  N   UNL     1      44.701   2.369  10.094  0.00  0.00    +0.000 N 
ATOM     28  O   UNL     1      42.933   2.437  11.486  0.00  0.00    +0.000 OA
ATOM     29  H   UNL     1      45.412   2.868   9.582  0.00  0.00    +0.000 HD
ATOM     30  H   UNL     1      44.271   1.572   9.642  0.00  0.00    +0.000 HD
ENDBRANCH  23  26
ENDBRANCH  18  20
ENDBRANCH  17  18
ENDBRANCH   2  17
TORSDOF 6
ENDMDL
MODEL 8
REMARK VINA RESULT:    -6.859      3.330      5.925
REMARK INTER + INTRA:         -10.567
REMARK INTER:                  -9.430
REMARK INTRA:                  -1.137
REMARK UNBOUND:                -1.302
REMARK  Name = 
REMARK  8 active torsions:
REMARK  status: ('A' for Active; 'I' for Inactive)
REMARK    1  A    between atoms: C_1  and  C_2
REMARK    2  A    between atoms: C_2  and  C_3
REMARK    3  A    between atoms: C_2  and  C_4
REMARK    4  A    between atoms: C_2  and  C_15
REMARK    5  A    between atoms: C_4  and  N_5
REMARK    6  A    between atoms: N_5  and  C_6
REMARK    7  A    between atoms: C_9  and  C_10
REMARK    8  A    between atoms: C_20  and  C_21
REMARK                            x       y       z     vdW  Elec       q    Type
REMARK                         _______ _______ _______ _____ _____    ______ ____
ROOT
ATOM      1  C   UNL     1      50.746   7.338  15.670  0.00  0.00    +0.000 C 
ATOM      2  C   UNL     1      49.254   6.932  15.653  0.00  0.00    +0.000 C 
ATOM      3  C   UNL     1      48.449   8.108  16.263  0.00  0.00    +0.000 C 
ENDROOT
BRANCH   2   4
ATOM      4  C   UNL     1      49.130   5.622  16.466  0.00  0.00    +0.000 A 
ATOM      5  C   UNL     1      47.875   5.033  16.691  0.00  0.00    +0.000 A 
ATOM      6  C   UNL     1      47.774   3.804  17.336  0.00  0.00    +0.000 A 
ATOM      7  F   UNL     1      46.564   3.253  17.508  0.00  0.00    +0.000 F 
ATOM      8  C   UNL     1      48.903   3.115  17.758  0.00  0.00    +0.000 A 
ATOM      9  C   UNL     1      50.181   3.645  17.536  0.00  0.00    +0.000 A 
ATOM     10  C   UNL     1      50.260   4.914  16.920  0.00  0.00    +0.000 A 
BRANCH   9  11
ATOM     11  C   UNL     1      51.414   2.870  17.811  0.00  0.00    +0.000 A 
ATOM     12  C   UNL     1      51.500   1.510  17.464  0.00  0.00    +0.000 A 
ATOM     13  C   UNL     1      52.696   0.798  17.593  0.00  0.00    +0.000 A 
ATOM     14  C   UNL     1      53.838   1.434  18.068  0.00  0.00    +0.000 A 
ATOM     15  C   UNL     1      53.776   2.772  18.442  0.00  0.00    +0.000 A 
ATOM     16  C   UNL     1      52.574   3.477  18.328  0.00  0.00    +0.000 A 
ENDBRANCH   9  11
ENDBRANCH   2   4
BRANCH   2  17
ATOM     17  C   UNL     1      48.743   6.698  14.194  0.00  0.00    +0.000 C 
BRANCH  17  18
ATOM     18  N   UNL     1      47.348   7.127  14.020  0.00  0.00    +0.000 N 
ATOM     19  H   UNL     1      47.268   8.126  13.855  0.00  0.00    +0.000 HD
BRANCH  18  20
ATOM     20  C   UNL     1      46.531   6.420  13.131  0.00  0.00    +0.000 A 
ATOM     21  C   UNL     1      46.286   6.828  11.816  0.00  0.00    +0.000 A 
ATOM     22  C   UNL     1      45.505   6.052  10.951  0.00  0.00    +0.000 A 
ATOM     23  C   UNL     1      44.987   4.826  11.375  0.00  0.00    +0.000 A 
ATOM     24  C   UNL     1      45.254   4.383  12.672  0.00  0.00    +0.000 A 
ATOM     25  C   UNL     1      46.035   5.168  13.528  0.00  0.00    +0.000 A 
BRANCH  23  26
ATOM     26  C   UNL     1      44.157   4.046  10.421  0.00  0.00    +0.000 C 
ATOM     27  N   UNL     1      44.061   4.512   9.140  0.00  0.00    +0.000 N 
ATOM     28  O   UNL     1      43.551   3.042  10.767  0.00  0.00    +0.000 OA
ATOM     29  H   UNL     1      44.324   5.450   8.881  0.00  0.00    +0.000 HD
ATOM     30  H   UNL     1      43.400   4.029   8.544  0.00  0.00    +0.000 HD
ENDBRANCH  23  26
ENDBRANCH  18  20
ENDBRANCH  17  18
ENDBRANCH   2  17
TORSDOF 6
ENDMDL
MODEL 9
REMARK VINA RESULT:    -6.416      4.193      6.374
REMARK INTER + INTRA:          -9.969
REMARK INTER:                  -8.111
REMARK INTRA:                  -1.858
REMARK UNBOUND:                -1.302
REMARK  Name = 
REMARK  8 active torsions:
REMARK  status: ('A' for Active; 'I' for Inactive)
REMARK    1  A    between atoms: C_1  and  C_2
REMARK    2  A    between atoms: C_2  and  C_3
REMARK    3  A    between atoms: C_2  and  C_4
REMARK    4  A    between atoms: C_2  and  C_15
REMARK    5  A    between atoms: C_4  and  N_5
REMARK    6  A    between atoms: N_5  and  C_6
REMARK    7  A    between atoms: C_9  and  C_10
REMARK    8  A    between atoms: C_20  and  C_21
REMARK                            x       y       z     vdW  Elec       q    Type
REMARK                         _______ _______ _______ _____ _____    ______ ____
ROOT
ATOM      1  C   UNL     1      50.538   8.954  14.540  0.00  0.00    +0.000 C 
ATOM      2  C   UNL     1      49.234   9.551  15.119  0.00  0.00    +0.000 C 
ATOM      3  C   UNL     1      49.512  11.042  15.441  0.00  0.00    +0.000 C 
ENDROOT
BRANCH   2   4
ATOM      4  C   UNL     1      48.868   8.717  16.369  0.00  0.00    +0.000 A 
ATOM      5  C   UNL     1      48.131   9.285  17.421  0.00  0.00    +0.000 A 
ATOM      6  C   UNL     1      47.716   8.507  18.497  0.00  0.00    +0.000 A 
ATOM      7  F   UNL     1      46.989   9.071  19.471  0.00  0.00    +0.000 F 
ATOM      8  C   UNL     1      47.999   7.148  18.558  0.00  0.00    +0.000 A 
ATOM      9  C   UNL     1      48.708   6.526  17.523  0.00  0.00    +0.000 A 
ATOM     10  C   UNL     1      49.158   7.341  16.460  0.00  0.00    +0.000 A 
BRANCH   9  11
ATOM     11  C   UNL     1      48.880   5.055  17.459  0.00  0.00    +0.000 A 
ATOM     12  C   UNL     1      47.808   4.221  17.095  0.00  0.00    +0.000 A 
ATOM     13  C   UNL     1      47.984   2.848  16.900  0.00  0.00    +0.000 A 
ATOM     14  C   UNL     1      49.242   2.277  17.062  0.00  0.00    +0.000 A 
ATOM     15  C   UNL     1      50.315   3.073  17.447  0.00  0.00    +0.000 A 
ATOM     16  C   UNL     1      50.133   4.443  17.656  0.00  0.00    +0.000 A 
ENDBRANCH   9  11
ENDBRANCH   2   4
BRANCH   2  17
ATOM     17  C   UNL     1      48.067   9.487  14.081  0.00  0.00    +0.000 C 
BRANCH  17  18
ATOM     18  N   UNL     1      48.224   8.370  13.139  0.00  0.00    +0.000 N 
ATOM     19  H   UNL     1      49.153   7.959  13.178  0.00  0.00    +0.000 HD
BRANCH  18  20
ATOM     20  C   UNL     1      47.248   7.367  13.113  0.00  0.00    +0.000 A 
ATOM     21  C   UNL     1      45.997   7.523  12.510  0.00  0.00    +0.000 A 
ATOM     22  C   UNL     1      45.080   6.466  12.463  0.00  0.00    +0.000 A 
ATOM     23  C   UNL     1      45.415   5.215  12.986  0.00  0.00    +0.000 A 
ATOM     24  C   UNL     1      46.676   5.029  13.558  0.00  0.00    +0.000 A 
ATOM     25  C   UNL     1      47.584   6.094  13.599  0.00  0.00    +0.000 A 
BRANCH  23  26
ATOM     26  C   UNL     1      44.402   4.131  12.920  0.00  0.00    +0.000 C 
ATOM     27  N   UNL     1      44.823   2.898  12.506  0.00  0.00    +0.000 N 
ATOM     28  O   UNL     1      43.227   4.330  13.192  0.00  0.00    +0.000 OA
ATOM     29  H   UNL     1      45.704   2.752  12.036  0.00  0.00    +0.000 HD
ATOM     30  H   UNL     1      44.095   2.210  12.360  0.00  0.00    +0.000 HD
ENDBRANCH  23  26
ENDBRANCH  18  20
ENDBRANCH  17  18
ENDBRANCH   2  17
TORSDOF 6
ENDMDL
