MODEL 1
REMARK VINA RESULT:    -8.644      0.000      0.000
REMARK INTER + INTRA:         -12.173
REMARK INTER:                 -11.170
REMARK INTRA:                  -1.003
REMARK UNBOUND:                -1.003
REMARK  Name = 
REMARK  5 active torsions:
REMARK  status: ('A' for Active; 'I' for Inactive)
REMARK    1  A    between atoms: C_2  and  C_4
REMARK    2  A    between atoms: C_9  and  O_10
REMARK    3  A    between atoms: O_10  and  C_11
REMARK    4  A    between atoms: C_11  and  C_12
REMARK    5  A    between atoms: C_16  and  C_17
REMARK                            x       y       z     vdW  Elec       q    Type
REMARK                         _______ _______ _______ _____ _____    ______ ____
ROOT
ATOM      1  O   UNL     1      43.963   6.764  12.294  0.00  0.00    +0.000 OA
ENDROOT
BRANCH   1   7
ATOM      2  C   UNL     1      46.966   5.247  13.887  0.00  0.00    +0.000 A 
ATOM      3  C   UNL     1      47.960   5.940  13.191  0.00  0.00    +0.000 A 
ATOM      4  C   UNL     1      47.583   6.877  12.238  0.00  0.00    +0.000 A 
ATOM      5  F   UNL     1      48.532   7.542  11.566  0.00  0.00    +0.000 F 
ATOM      6  C   UNL     1      46.243   7.133  11.963  0.00  0.00    +0.000 A 
ATOM      7  C   UNL     1      45.246   6.435  12.645  0.00  0.00    +0.000 A 
ATOM      8  C   UNL     1      45.613   5.486  13.601  0.00  0.00    +0.000 A 
BRANCH   2  10
ATOM      9  N   UNL     1      47.272   4.653  16.226  0.00  0.00    +0.000 N 
ATOM     10  C   UNL     1      47.289   4.236  14.925  0.00  0.00    +0.000 C 
ATOM     11  O   UNL     1      47.512   3.073  14.631  0.00  0.00    +0.000 OA
ATOM     12  H   UNL     1      47.383   3.930  16.927  0.00  0.00    +0.000 HD
ATOM     13  H   UNL     1      46.850   5.524  16.517  0.00  0.00    +0.000 HD
ENDBRANCH   2  10
ENDBRANCH   1   7
BRANCH   1  14
ATOM     14  C   UNL     1      43.549   6.369  10.988  0.00  0.00    +0.000 C 
BRANCH  14  15
ATOM     15  C   UNL     1      43.803   4.895  10.794  0.00  0.00    +0.000 A 
ATOM     16  C   UNL     1      43.113   3.947  11.555  0.00  0.00    +0.000 A 
ATOM     17  C   UNL     1      43.308   2.589  11.323  0.00  0.00    +0.000 A 
ATOM     18  C   UNL     1      44.181   2.169  10.315  0.00  0.00    +0.000 A 
ATOM     19  C   UNL     1      44.873   3.093   9.510  0.00  0.00    +0.000 A 
ATOM     20  C   UNL     1      44.697   4.458   9.802  0.00  0.00    +0.000 A 
BRANCH  19  21
ATOM     21  C   UNL     1      45.655   2.663   8.327  0.00  0.00    +0.000 A 
ATOM     22  C   UNL     1      45.916   3.564   7.277  0.00  0.00    +0.000 A 
ATOM     23  C   UNL     1      46.746   3.222   6.207  0.00  0.00    +0.000 A 
ATOM     24  C   UNL     1      47.347   1.969   6.164  0.00  0.00    +0.000 A 
ATOM     25  C   UNL     1      47.092   1.049   7.177  0.00  0.00    +0.000 A 
ATOM     26  C   UNL     1      46.247   1.389   8.241  0.00  0.00    +0.000 A 
ENDBRANCH  19  21
ENDBRANCH  14  15
ENDBRANCH   1  14
TORSDOF 5
ENDMDL
MODEL 2
REMARK VINA RESULT:    -7.942      2.011      2.290
REMARK INTER + INTRA:         -11.266
REMARK INTER:                 -10.249
REMARK INTRA:                  -1.017
REMARK UNBOUND:                -1.003
REMARK  Name = 
REMARK  5 active torsions:
REMARK  status: ('A' for Active; 'I' for Inactive)
REMARK    1  A    between atoms: C_2  and  C_4
REMARK    2  A    between atoms: C_9  and  O_10
REMARK    3  A    between atoms: O_10  and  C_11
REMARK    4  A    between atoms: C_11  and  C_12
REMARK    5  A    between atoms: C_16  and  C_17
REMARK                            x       y       z     vdW  Elec       q    Type
REMARK                         _______ _______ _______ _____ _____    ______ ____
ROOT
ATOM      1  O   UNL     1      44.399   6.889  12.552  0.00  0.00    +0.000 OA
ENDROOT
BRANCH   1   7
ATOM      2  C   UNL     1      47.987   7.865  12.722  0.00  0.00    +0.000 A 
ATOM      3  C   UNL     1      47.865   9.217  12.393  0.00  0.00    +0.000 A 
ATOM      4  C   UNL     1      46.601   9.735  12.139  0.00  0.00    +0.000 A 
ATOM      5  F   UNL     1      46.478  11.030  11.821  0.00  0.00    +0.000 F 
ATOM      6  C   UNL     1      45.463   8.935  12.204  0.00  0.00    +0.000 A 
ATOM      7  C   UNL     1      45.580   7.581  12.519  0.00  0.00    +0.000 A 
ATOM      8  C   UNL     1      46.847   7.049  12.770  0.00  0.00    +0.000 A 
BRANCH   2  10
ATOM      9  N   UNL     1      50.211   7.200  11.995  0.00  0.00    +0.000 N 
ATOM     10  C   UNL     1      49.301   7.241  13.014  0.00  0.00    +0.000 C 
ATOM     11  O   UNL     1      49.575   6.827  14.129  0.00  0.00    +0.000 OA
ATOM     12  H   UNL     1      51.139   6.875  12.238  0.00  0.00    +0.000 HD
ATOM     13  H   UNL     1      50.116   7.751  11.152  0.00  0.00    +0.000 HD
ENDBRANCH   2  10
ENDBRANCH   1   7
BRANCH   1  14
ATOM     14  C   UNL     1      43.833   6.554  11.286  0.00  0.00    +0.000 C 
BRANCH  14  15
ATOM     15  C   UNL     1      43.972   5.073  11.039  0.00  0.00    +0.000 A 
ATOM     16  C   UNL     1      43.213   4.154  11.770  0.00  0.00    +0.000 A 
ATOM     17  C   UNL     1      43.302   2.795  11.488  0.00  0.00    +0.000 A 
ATOM     18  C   UNL     1      44.138   2.345  10.461  0.00  0.00    +0.000 A 
ATOM     19  C   UNL     1      44.896   3.241   9.685  0.00  0.00    +0.000 A 
ATOM     20  C   UNL     1      44.827   4.605  10.027  0.00  0.00    +0.000 A 
BRANCH  19  21
ATOM     21  C   UNL     1      45.640   2.795   8.483  0.00  0.00    +0.000 A 
ATOM     22  C   UNL     1      45.961   3.709   7.462  0.00  0.00    +0.000 A 
ATOM     23  C   UNL     1      46.759   3.345   6.376  0.00  0.00    +0.000 A 
ATOM     24  C   UNL     1      47.266   2.053   6.287  0.00  0.00    +0.000 A 
ATOM     25  C   UNL     1      46.950   1.120   7.271  0.00  0.00    +0.000 A 
ATOM     26  C   UNL     1      46.136   1.485   8.351  0.00  0.00    +0.000 A 
ENDBRANCH  19  21
ENDBRANCH  14  15
ENDBRANCH   1  14
TORSDOF 5
ENDMDL
MODEL 3
REMARK VINA RESULT:    -7.840      2.583      3.451
REMARK INTER + INTRA:         -11.134
REMARK INTER:                 -10.193
REMARK INTRA:                  -0.941
REMARK UNBOUND:                -1.003
REMARK  Name = 
REMARK  5 active torsions:
REMARK  status: ('A' for Active; 'I' for Inactive)
REMARK    1  A    between atoms: C_2  and  C_4
REMARK    2  A    between atoms: C_9  and  O_10
REMARK    3  A    between atoms: O_10  and  C_11
REMARK    4  A    between atoms: C_11  and  C_12
REMARK    5  A    between atoms: C_16  and  C_17
REMARK                            x       y       z     vdW  Elec       q    Type
REMARK                         _______ _______ _______ _____ _____    ______ ____
ROOT
ATOM      1  O   UNL     1      45.085   6.835  12.536  0.00  0.00    +0.000 OA
ENDROOT
BRANCH   1   7
ATOM      2  C   UNL     1      47.080   9.934  12.018  0.00  0.00    +0.000 A 
ATOM      3  C   UNL     1      48.331   9.356  11.785  0.00  0.00    +0.000 A 
ATOM      4  C   UNL     1      48.445   7.972  11.804  0.00  0.00    +0.000 A 
ATOM      5  F   UNL     1      49.642   7.413  11.583  0.00  0.00    +0.000 F 
ATOM      6  C   UNL     1      47.344   7.157  12.053  0.00  0.00    +0.000 A 
ATOM      7  C   UNL     1      46.096   7.729  12.301  0.00  0.00    +0.000 A 
ATOM      8  C   UNL     1      45.971   9.119  12.290  0.00  0.00    +0.000 A 
BRANCH   2  10
ATOM      9  N   UNL     1      45.615  11.860  12.260  0.00  0.00    +0.000 N 
ATOM     10  C   UNL     1      46.877  11.404  12.007  0.00  0.00    +0.000 C 
ATOM     11  O   UNL     1      47.808  12.173  11.829  0.00  0.00    +0.000 OA
ATOM     12  H   UNL     1      45.514  12.863  12.360  0.00  0.00    +0.000 HD
ATOM     13  H   UNL     1      44.890  11.277  12.656  0.00  0.00    +0.000 HD
ENDBRANCH   2  10
ENDBRANCH   1   7
BRANCH   1  14
ATOM     14  C   UNL     1      44.203   6.584  11.444  0.00  0.00    +0.000 C 
BRANCH  14  15
ATOM     15  C   UNL     1      44.193   5.111  11.122  0.00  0.00    +0.000 A 
ATOM     16  C   UNL     1      43.339   4.238  11.802  0.00  0.00    +0.000 A 
ATOM     17  C   UNL     1      43.294   2.892  11.452  0.00  0.00    +0.000 A 
ATOM     18  C   UNL     1      44.088   2.413  10.406  0.00  0.00    +0.000 A 
ATOM     19  C   UNL     1      44.940   3.266   9.680  0.00  0.00    +0.000 A 
ATOM     20  C   UNL     1      45.005   4.610  10.090  0.00  0.00    +0.000 A 
BRANCH  19  21
ATOM     21  C   UNL     1      45.645   2.807   8.459  0.00  0.00    +0.000 A 
ATOM     22  C   UNL     1      45.867   3.693   7.388  0.00  0.00    +0.000 A 
ATOM     23  C   UNL     1      46.629   3.324   6.277  0.00  0.00    +0.000 A 
ATOM     24  C   UNL     1      47.196   2.056   6.213  0.00  0.00    +0.000 A 
ATOM     25  C   UNL     1      46.977   1.151   7.246  0.00  0.00    +0.000 A 
ATOM     26  C   UNL     1      46.201   1.519   8.352  0.00  0.00    +0.000 A 
ENDBRANCH  19  21
ENDBRANCH  14  15
ENDBRANCH   1  14
TORSDOF 5
ENDMDL
MODEL 4
REMARK VINA RESULT:    -7.817      2.144      2.563
REMARK INTER + INTRA:         -11.105
REMARK INTER:                  -9.992
REMARK INTRA:                  -1.113
REMARK UNBOUND:                -1.003
REMARK  Name = 
REMARK  5 active torsions:
REMARK  status: ('A' for Active; 'I' for Inactive)
REMARK    1  A    between atoms: C_2  and  C_4
REMARK    2  A    between atoms: C_9  and  O_10
REMARK    3  A    between atoms: O_10  and  C_11
REMARK    4  A    between atoms: C_11  and  C_12
REMARK    5  A    between atoms: C_16  and  C_17
REMARK                            x       y       z     vdW  Elec       q    Type
REMARK                         _______ _______ _______ _____ _____    ______ ____
ROOT
ATOM      1  O   UNL     1      44.341   6.908  12.400  0.00  0.00    +0.000 OA
ENDROOT
BRANCH   1   7
ATOM      2  C   UNL     1      48.048   7.243  12.368  0.00  0.00    +0.000 A 
ATOM      3  C   UNL     1      48.370   6.234  13.279  0.00  0.00    +0.000 A 
ATOM      4  C   UNL     1      47.344   5.492  13.849  0.00  0.00    +0.000 A 
ATOM      5  F   UNL     1      47.647   4.524  14.724  0.00  0.00    +0.000 F 
ATOM      6  C   UNL     1      46.010   5.737  13.534  0.00  0.00    +0.000 A 
ATOM      7  C   UNL     1      45.682   6.752  12.635  0.00  0.00    +0.000 A 
ATOM      8  C   UNL     1      46.705   7.509  12.061  0.00  0.00    +0.000 A 
BRANCH   2  10
ATOM      9  N   UNL     1      48.921   9.429  11.754  0.00  0.00    +0.000 N 
ATOM     10  C   UNL     1      49.089   8.074  11.712  0.00  0.00    +0.000 C 
ATOM     11  O   UNL     1      50.076   7.570  11.201  0.00  0.00    +0.000 OA
ATOM     12  H   UNL     1      49.692   9.986  11.403  0.00  0.00    +0.000 HD
ATOM     13  H   UNL     1      48.265   9.882  12.376  0.00  0.00    +0.000 HD
ENDBRANCH   2  10
ENDBRANCH   1   7
BRANCH   1  14
ATOM     14  C   UNL     1      43.892   6.571  11.089  0.00  0.00    +0.000 C 
BRANCH  14  15
ATOM     15  C   UNL     1      44.005   5.083  10.876  0.00  0.00    +0.000 A 
ATOM     16  C   UNL     1      43.228   4.194  11.625  0.00  0.00    +0.000 A 
ATOM     17  C   UNL     1      43.294   2.827  11.375  0.00  0.00    +0.000 A 
ATOM     18  C   UNL     1      44.123   2.340  10.361  0.00  0.00    +0.000 A 
ATOM     19  C   UNL     1      44.899   3.204   9.566  0.00  0.00    +0.000 A 
ATOM     20  C   UNL     1      44.853   4.576   9.877  0.00  0.00    +0.000 A 
BRANCH  19  21
ATOM     21  C   UNL     1      45.637   2.717   8.377  0.00  0.00    +0.000 A 
ATOM     22  C   UNL     1      45.913   3.585   7.303  0.00  0.00    +0.000 A 
ATOM     23  C   UNL     1      46.705   3.188   6.223  0.00  0.00    +0.000 A 
ATOM     24  C   UNL     1      47.250   1.909   6.195  0.00  0.00    +0.000 A 
ATOM     25  C   UNL     1      46.979   1.021   7.231  0.00  0.00    +0.000 A 
ATOM     26  C   UNL     1      46.172   1.418   8.305  0.00  0.00    +0.000 A 
ENDBRANCH  19  21
ENDBRANCH  14  15
ENDBRANCH   1  14
TORSDOF 5
ENDMDL
MODEL 5
REMARK VINA RESULT:    -7.740      1.610      2.118
REMARK INTER + INTRA:         -11.005
REMARK INTER:                 -10.037
REMARK INTRA:                  -0.968
REMARK UNBOUND:                -1.003
REMARK  Name = 
REMARK  5 active torsions:
REMARK  status: ('A' for Active; 'I' for Inactive)
REMARK    1  A    between atoms: C_2  and  C_4
REMARK    2  A    between atoms: C_9  and  O_10
REMARK    3  A    between atoms: O_10  and  C_11
REMARK    4  A    between atoms: C_11  and  C_12
REMARK    5  A    between atoms: C_16  and  C_17
REMARK                            x       y       z     vdW  Elec       q    Type
REMARK                         _______ _______ _______ _____ _____    ______ ____
ROOT
ATOM      1  O   UNL     1      47.247   7.105  11.970  0.00  0.00    +0.000 OA
ENDROOT
BRANCH   1   7
ATOM      2  C   UNL     1      47.783   5.176  15.108  0.00  0.00    +0.000 A 
ATOM      3  C   UNL     1      48.480   6.138  15.843  0.00  0.00    +0.000 A 
ATOM      4  C   UNL     1      48.729   7.376  15.264  0.00  0.00    +0.000 A 
ATOM      5  F   UNL     1      49.399   8.301  15.964  0.00  0.00    +0.000 F 
ATOM      6  C   UNL     1      48.302   7.671  13.972  0.00  0.00    +0.000 A 
ATOM      7  C   UNL     1      47.618   6.710  13.228  0.00  0.00    +0.000 A 
ATOM      8  C   UNL     1      47.367   5.460  13.798  0.00  0.00    +0.000 A 
BRANCH   2  10
ATOM      9  N   UNL     1      46.915   3.788  16.906  0.00  0.00    +0.000 N 
ATOM     10  C   UNL     1      47.473   3.834  15.660  0.00  0.00    +0.000 C 
ATOM     11  O   UNL     1      47.663   2.819  15.009  0.00  0.00    +0.000 OA
ATOM     12  H   UNL     1      46.605   2.876  17.223  0.00  0.00    +0.000 HD
ATOM     13  H   UNL     1      46.515   4.599  17.359  0.00  0.00    +0.000 HD
ENDBRANCH   2  10
ENDBRANCH   1   7
BRANCH   1  14
ATOM     14  C   UNL     1      45.879   7.474  11.805  0.00  0.00    +0.000 C 
BRANCH  14  15
ATOM     15  C   UNL     1      45.088   6.293  11.302  0.00  0.00    +0.000 A 
ATOM     16  C   UNL     1      43.739   6.143  11.639  0.00  0.00    +0.000 A 
ATOM     17  C   UNL     1      43.003   5.085  11.116  0.00  0.00    +0.000 A 
ATOM     18  C   UNL     1      43.605   4.179  10.239  0.00  0.00    +0.000 A 
ATOM     19  C   UNL     1      44.952   4.312   9.854  0.00  0.00    +0.000 A 
ATOM     20  C   UNL     1      45.686   5.360  10.439  0.00  0.00    +0.000 A 
BRANCH  19  21
ATOM     21  C   UNL     1      45.545   3.469   8.789  0.00  0.00    +0.000 A 
ATOM     22  C   UNL     1      46.136   4.060   7.656  0.00  0.00    +0.000 A 
ATOM     23  C   UNL     1      46.804   3.298   6.695  0.00  0.00    +0.000 A 
ATOM     24  C   UNL     1      46.906   1.919   6.848  0.00  0.00    +0.000 A 
ATOM     25  C   UNL     1      46.315   1.303   7.947  0.00  0.00    +0.000 A 
ATOM     26  C   UNL     1      45.633   2.069   8.900  0.00  0.00    +0.000 A 
ENDBRANCH  19  21
ENDBRANCH  14  15
ENDBRANCH   1  14
TORSDOF 5
ENDMDL
MODEL 6
REMARK VINA RESULT:    -7.600      3.827      6.903
REMARK INTER + INTRA:         -10.824
REMARK INTER:                  -9.807
REMARK INTRA:                  -1.017
REMARK UNBOUND:                -1.003
REMARK  Name = 
REMARK  5 active torsions:
REMARK  status: ('A' for Active; 'I' for Inactive)
REMARK    1  A    between atoms: C_2  and  C_4
REMARK    2  A    between atoms: C_9  and  O_10
REMARK    3  A    between atoms: O_10  and  C_11
REMARK    4  A    between atoms: C_11  and  C_12
REMARK    5  A    between atoms: C_16  and  C_17
REMARK                            x       y       z     vdW  Elec       q    Type
REMARK                         _______ _______ _______ _____ _____    ______ ____
ROOT
ATOM      1  O   UNL     1      45.115   5.465   9.533  0.00  0.00    +0.000 OA
ENDROOT
BRANCH   1   7
ATOM      2  C   UNL     1      46.523   2.674   7.513  0.00  0.00    +0.000 A 
ATOM      3  C   UNL     1      45.748   1.625   8.013  0.00  0.00    +0.000 A 
ATOM      4  C   UNL     1      44.796   1.898   8.986  0.00  0.00    +0.000 A 
ATOM      5  F   UNL     1      44.052   0.896   9.471  0.00  0.00    +0.000 F 
ATOM      6  C   UNL     1      44.605   3.189   9.471  0.00  0.00    +0.000 A 
ATOM      7  C   UNL     1      45.385   4.239   8.986  0.00  0.00    +0.000 A 
ATOM      8  C   UNL     1      46.349   3.974   8.011  0.00  0.00    +0.000 A 
BRANCH   2  10
ATOM      9  N   UNL     1      47.443   3.201   5.323  0.00  0.00    +0.000 N 
ATOM     10  C   UNL     1      47.555   2.462   6.467  0.00  0.00    +0.000 C 
ATOM     11  O   UNL     1      48.490   1.698   6.642  0.00  0.00    +0.000 OA
ATOM     12  H   UNL     1      48.213   3.130   4.668  0.00  0.00    +0.000 HD
ATOM     13  H   UNL     1      46.843   4.012   5.250  0.00  0.00    +0.000 HD
ENDBRANCH   2  10
ENDBRANCH   1   7
BRANCH   1  14
ATOM     14  C   UNL     1      44.664   5.461  10.887  0.00  0.00    +0.000 C 
BRANCH  14  15
ATOM     15  C   UNL     1      45.808   5.798  11.809  0.00  0.00    +0.000 A 
ATOM     16  C   UNL     1      46.023   5.060  12.977  0.00  0.00    +0.000 A 
ATOM     17  C   UNL     1      47.119   5.338  13.786  0.00  0.00    +0.000 A 
ATOM     18  C   UNL     1      48.020   6.344  13.424  0.00  0.00    +0.000 A 
ATOM     19  C   UNL     1      47.854   7.089  12.242  0.00  0.00    +0.000 A 
ATOM     20  C   UNL     1      46.708   6.823  11.471  0.00  0.00    +0.000 A 
BRANCH  19  21
ATOM     21  C   UNL     1      48.895   8.027  11.759  0.00  0.00    +0.000 A 
ATOM     22  C   UNL     1      48.632   9.408  11.681  0.00  0.00    +0.000 A 
ATOM     23  C   UNL     1      49.627  10.326  11.341  0.00  0.00    +0.000 A 
ATOM     24  C   UNL     1      50.920   9.886  11.079  0.00  0.00    +0.000 A 
ATOM     25  C   UNL     1      51.207   8.525  11.129  0.00  0.00    +0.000 A 
ATOM     26  C   UNL     1      50.203   7.606  11.455  0.00  0.00    +0.000 A 
ENDBRANCH  19  21
ENDBRANCH  14  15
ENDBRANCH   1  14
TORSDOF 5
ENDMDL
MODEL 7
REMARK VINA RESULT:    -7.213      1.667      2.450
REMARK INTER + INTRA:         -10.324
REMARK INTER:                  -9.399
REMARK INTRA:                  -0.924
REMARK UNBOUND:                -1.003
REMARK  Name = 
REMARK  5 active torsions:
REMARK  status: ('A' for Active; 'I' for Inactive)
REMARK    1  A    between atoms: C_2  and  C_4
REMARK    2  A    between atoms: C_9  and  O_10
REMARK    3  A    between atoms: O_10  and  C_11
REMARK    4  A    between atoms: C_11  and  C_12
REMARK    5  A    between atoms: C_16  and  C_17
REMARK                            x       y       z     vdW  Elec       q    Type
REMARK                         _______ _______ _______ _____ _____    ______ ____
ROOT
ATOM      1  O   UNL     1      46.369   3.334  13.378  0.00  0.00    +0.000 OA
ENDROOT
BRANCH   1   7
ATOM      2  C   UNL     1      47.972   4.955  16.321  0.00  0.00    +0.000 A 
ATOM      3  C   UNL     1      48.381   6.148  15.721  0.00  0.00    +0.000 A 
ATOM      4  C   UNL     1      48.099   6.356  14.378  0.00  0.00    +0.000 A 
ATOM      5  F   UNL     1      48.492   7.497  13.797  0.00  0.00    +0.000 F 
ATOM      6  C   UNL     1      47.423   5.401  13.623  0.00  0.00    +0.000 A 
ATOM      7  C   UNL     1      47.023   4.202  14.212  0.00  0.00    +0.000 A 
ATOM      8  C   UNL     1      47.307   3.980  15.561  0.00  0.00    +0.000 A 
BRANCH   2  10
ATOM      9  N   UNL     1      47.662   3.533  18.271  0.00  0.00    +0.000 N 
ATOM     10  C   UNL     1      48.230   4.663  17.753  0.00  0.00    +0.000 C 
ATOM     11  O   UNL     1      48.958   5.376  18.426  0.00  0.00    +0.000 OA
ATOM     12  H   UNL     1      47.938   3.287  19.214  0.00  0.00    +0.000 HD
ATOM     13  H   UNL     1      47.274   2.800  17.693  0.00  0.00    +0.000 HD
ENDBRANCH   2  10
ENDBRANCH   1   7
BRANCH   1  14
ATOM     14  C   UNL     1      44.957   3.510  13.273  0.00  0.00    +0.000 C 
BRANCH  14  15
ATOM     15  C   UNL     1      44.589   3.851  11.851  0.00  0.00    +0.000 A 
ATOM     16  C   UNL     1      43.749   4.934  11.573  0.00  0.00    +0.000 A 
ATOM     17  C   UNL     1      43.469   5.278  10.254  0.00  0.00    +0.000 A 
ATOM     18  C   UNL     1      44.040   4.553   9.204  0.00  0.00    +0.000 A 
ATOM     19  C   UNL     1      44.912   3.475   9.443  0.00  0.00    +0.000 A 
ATOM     20  C   UNL     1      45.136   3.116  10.786  0.00  0.00    +0.000 A 
BRANCH  19  21
ATOM     21  C   UNL     1      45.662   2.821   8.345  0.00  0.00    +0.000 A 
ATOM     22  C   UNL     1      46.087   3.566   7.228  0.00  0.00    +0.000 A 
ATOM     23  C   UNL     1      46.893   3.004   6.236  0.00  0.00    +0.000 A 
ATOM     24  C   UNL     1      47.304   1.679   6.341  0.00  0.00    +0.000 A 
ATOM     25  C   UNL     1      46.885   0.912   7.423  0.00  0.00    +0.000 A 
ATOM     26  C   UNL     1      46.064   1.474   8.408  0.00  0.00    +0.000 A 
ENDBRANCH  19  21
ENDBRANCH  14  15
ENDBRANCH   1  14
TORSDOF 5
ENDMDL
MODEL 8
REMARK VINA RESULT:    -7.138      2.873      4.033
REMARK INTER + INTRA:         -10.228
REMARK INTER:                  -9.500
REMARK INTRA:                  -0.727
REMARK UNBOUND:                -1.003
REMARK  Name = 
REMARK  5 active torsions:
REMARK  status: ('A' for Active; 'I' for Inactive)
REMARK    1  A    between atoms: C_2  and  C_4
REMARK    2  A    between atoms: C_9  and  O_10
REMARK    3  A    between atoms: O_10  and  C_11
REMARK    4  A    between atoms: C_11  and  C_12
REMARK    5  A    between atoms: C_16  and  C_17
REMARK                            x       y       z     vdW  Elec       q    Type
REMARK                         _______ _______ _______ _____ _____    ______ ____
ROOT
ATOM      1  O   UNL     1      46.849   3.701  14.492  0.00  0.00    +0.000 OA
ENDROOT
BRANCH   1   7
ATOM      2  C   UNL     1      47.892   4.366  18.003  0.00  0.00    +0.000 A 
ATOM      3  C   UNL     1      48.858   3.367  18.140  0.00  0.00    +0.000 A 
ATOM      4  C   UNL     1      49.118   2.531  17.062  0.00  0.00    +0.000 A 
ATOM      5  F   UNL     1      50.041   1.569  17.189  0.00  0.00    +0.000 F 
ATOM      6  C   UNL     1      48.435   2.669  15.857  0.00  0.00    +0.000 A 
ATOM      7  C   UNL     1      47.459   3.657  15.717  0.00  0.00    +0.000 A 
ATOM      8  C   UNL     1      47.186   4.499  16.797  0.00  0.00    +0.000 A 
BRANCH   2  10
ATOM      9  N   UNL     1      48.036   4.989  20.350  0.00  0.00    +0.000 N 
ATOM     10  C   UNL     1      47.564   5.303  19.107  0.00  0.00    +0.000 C 
ATOM     11  O   UNL     1      46.942   6.333  18.903  0.00  0.00    +0.000 OA
ATOM     12  H   UNL     1      47.902   5.691  21.068  0.00  0.00    +0.000 HD
ATOM     13  H   UNL     1      48.755   4.296  20.505  0.00  0.00    +0.000 HD
ENDBRANCH   2  10
ENDBRANCH   1   7
BRANCH   1  14
ATOM     14  C   UNL     1      46.163   4.911  14.177  0.00  0.00    +0.000 C 
BRANCH  14  15
ATOM     15  C   UNL     1      45.182   4.667  13.059  0.00  0.00    +0.000 A 
ATOM     16  C   UNL     1      43.859   5.106  13.163  0.00  0.00    +0.000 A 
ATOM     17  C   UNL     1      42.980   4.932  12.099  0.00  0.00    +0.000 A 
ATOM     18  C   UNL     1      43.422   4.334  10.915  0.00  0.00    +0.000 A 
ATOM     19  C   UNL     1      44.753   3.905  10.761  0.00  0.00    +0.000 A 
ATOM     20  C   UNL     1      45.606   4.045  11.872  0.00  0.00    +0.000 A 
BRANCH  19  21
ATOM     21  C   UNL     1      45.276   3.439   9.455  0.00  0.00    +0.000 A 
ATOM     22  C   UNL     1      45.688   4.367   8.479  0.00  0.00    +0.000 A 
ATOM     23  C   UNL     1      46.291   3.959   7.287  0.00  0.00    +0.000 A 
ATOM     24  C   UNL     1      46.507   2.606   7.044  0.00  0.00    +0.000 A 
ATOM     25  C   UNL     1      46.093   1.664   7.981  0.00  0.00    +0.000 A 
ATOM     26  C   UNL     1      45.474   2.076   9.167  0.00  0.00    +0.000 A 
ENDBRANCH  19  21
ENDBRANCH  14  15
ENDBRANCH   1  14
TORSDOF 5
ENDMDL
MODEL 9
REMARK VINA RESULT:    -6.921      2.659      4.502
REMARK INTER + INTRA:          -9.947
REMARK INTER:                  -8.984
REMARK INTRA:                  -0.963
REMARK UNBOUND:                -1.003
REMARK  Name = 
REMARK  5 active torsions:
REMARK  status: ('A' for Active; 'I' for Inactive)
REMARK    1  A    between atoms: C_2  and  C_4
REMARK    2  A    between atoms: C_9  and  O_10
REMARK    3  A    between atoms: O_10  and  C_11
REMARK    4  A    between atoms: C_11  and  C_12
REMARK    5  A    between atoms: C_16  and  C_17
REMARK                            x       y       z     vdW  Elec       q    Type
REMARK                         _______ _______ _______ _____ _____    ______ ____
ROOT
ATOM      1  O   UNL     1      48.627   6.165  14.102  0.00  0.00    +0.000 OA
ENDROOT
BRANCH   1   7
ATOM      2  C   UNL     1      47.999   4.708  17.469  0.00  0.00    +0.000 A 
ATOM      3  C   UNL     1      48.353   5.807  18.256  0.00  0.00    +0.000 A 
ATOM      4  C   UNL     1      48.774   6.973  17.630  0.00  0.00    +0.000 A 
ATOM      5  F   UNL     1      49.116   8.029  18.380  0.00  0.00    +0.000 F 
ATOM      6  C   UNL     1      48.851   7.064  16.243  0.00  0.00    +0.000 A 
ATOM      7  C   UNL     1      48.512   5.966  15.452  0.00  0.00    +0.000 A 
ATOM      8  C   UNL     1      48.093   4.786  16.071  0.00  0.00    +0.000 A 
BRANCH   2  10
ATOM      9  N   UNL     1      48.126   3.034  19.229  0.00  0.00    +0.000 N 
ATOM     10  C   UNL     1      47.534   3.430  18.063  0.00  0.00    +0.000 C 
ATOM     11  O   UNL     1      46.628   2.787  17.559  0.00  0.00    +0.000 OA
ATOM     12  H   UNL     1      47.722   2.222  19.681  0.00  0.00    +0.000 HD
ATOM     13  H   UNL     1      48.686   3.654  19.799  0.00  0.00    +0.000 HD
ENDBRANCH   2  10
ENDBRANCH   1   7
BRANCH   1  14
ATOM     14  C   UNL     1      48.315   7.476  13.632  0.00  0.00    +0.000 C 
BRANCH  14  15
ATOM     15  C   UNL     1      47.009   7.452  12.880  0.00  0.00    +0.000 A 
ATOM     16  C   UNL     1      46.210   8.597  12.803  0.00  0.00    +0.000 A 
ATOM     17  C   UNL     1      45.039   8.581  12.052  0.00  0.00    +0.000 A 
ATOM     18  C   UNL     1      44.668   7.426  11.357  0.00  0.00    +0.000 A 
ATOM     19  C   UNL     1      45.459   6.264  11.387  0.00  0.00    +0.000 A 
ATOM     20  C   UNL     1      46.610   6.291  12.197  0.00  0.00    +0.000 A 
BRANCH  19  21
ATOM     21  C   UNL     1      45.171   5.102  10.513  0.00  0.00    +0.000 A 
ATOM     22  C   UNL     1      45.628   5.080   9.181  0.00  0.00    +0.000 A 
ATOM     23  C   UNL     1      45.472   3.952   8.371  0.00  0.00    +0.000 A 
ATOM     24  C   UNL     1      44.861   2.810   8.878  0.00  0.00    +0.000 A 
ATOM     25  C   UNL     1      44.382   2.809  10.184  0.00  0.00    +0.000 A 
ATOM     26  C   UNL     1      44.525   3.946  10.988  0.00  0.00    +0.000 A 
ENDBRANCH  19  21
ENDBRANCH  14  15
ENDBRANCH   1  14
TORSDOF 5
ENDMDL
