MODEL 1
REMARK VINA RESULT:    -7.672      0.000      0.000
REMARK INTER + INTRA:         -10.102
REMARK INTER:                  -9.466
REMARK INTRA:                  -0.636
REMARK UNBOUND:                -0.636
REMARK  Name = 
REMARK  4 active torsions:
REMARK  status: ('A' for Active; 'I' for Inactive)
REMARK    1  A    between atoms: C_4  and  O_5
REMARK    2  A    between atoms: O_5  and  C_6
REMARK    3  A    between atoms: C_6  and  C_7
REMARK    4  A    between atoms: C_16  and  N_17
REMARK                            x       y       z     vdW  Elec       q    Type
REMARK                         _______ _______ _______ _____ _____    ______ ____
ROOT
ATOM      1  F   UNL     1      42.469   4.595  13.691  0.00  0.00    +0.000 F 
ATOM      2  C   UNL     1      43.360   4.843  12.721  0.00  0.00    +0.000 A 
ATOM      3  C   UNL     1      43.227   4.200  11.501  0.00  0.00    +0.000 A 
ATOM      4  C   UNL     1      44.156   4.461  10.499  0.00  0.00    +0.000 A 
ATOM      5  C   UNL     1      45.206   5.385  10.732  0.00  0.00    +0.000 A 
ATOM      6 CL   UNL     1      46.196   5.809   9.357  0.00  0.00    +0.000 Cl
ATOM      7  C   UNL     1      45.362   6.039  11.985  0.00  0.00    +0.000 A 
ATOM      8  C   UNL     1      44.404   5.731  12.968  0.00  0.00    +0.000 A 
ENDROOT
BRANCH   7   9
ATOM      9  N   UNL     1      46.346   6.983  12.249  0.00  0.00    +0.000 N 
ATOM     10  C   UNL     1      46.022   8.307  12.804  0.00  0.00    +0.000 C 
ATOM     11  C   UNL     1      46.955   9.368  12.169  0.00  0.00    +0.000 C 
ATOM     12  N   UNL     1      48.396   9.061  12.296  0.00  0.00    +0.000 NA
ATOM     13  C   UNL     1      48.648   7.699  11.764  0.00  0.00    +0.000 C 
ATOM     14  C   UNL     1      47.762   6.614  12.424  0.00  0.00    +0.000 C 
ATOM     15  H   UNL     1      48.633   9.059  13.288  0.00  0.00    +0.000 HD
ENDBRANCH   7   9
BRANCH   4  16
ATOM     16  O   UNL     1      44.153   3.800   9.297  0.00  0.00    +0.000 OA
BRANCH  16  17
ATOM     17  C   UNL     1      44.714   2.486   9.282  0.00  0.00    +0.000 C 
BRANCH  17  18
ATOM     18  C   UNL     1      45.669   2.356   8.119  0.00  0.00    +0.000 A 
ATOM     19  C   UNL     1      46.517   1.255   7.995  0.00  0.00    +0.000 A 
ATOM     20  N   UNL     1      47.399   1.103   6.973  0.00  0.00    +0.000 NA
ATOM     21  C   UNL     1      47.410   2.108   6.073  0.00  0.00    +0.000 A 
ATOM     22  F   UNL     1      48.254   2.022   5.036  0.00  0.00    +0.000 F 
ATOM     23  C   UNL     1      46.585   3.215   6.191  0.00  0.00    +0.000 A 
ATOM     24  N   UNL     1      45.703   3.371   7.212  0.00  0.00    +0.000 NA
ENDBRANCH  17  18
ENDBRANCH  16  17
ENDBRANCH   4  16
TORSDOF 4
ENDMDL
MODEL 2
REMARK VINA RESULT:    -7.198      1.807      2.206
REMARK INTER + INTRA:          -9.517
REMARK INTER:                  -8.899
REMARK INTRA:                  -0.619
REMARK UNBOUND:                -0.636
REMARK  Name = 
REMARK  4 active torsions:
REMARK  status: ('A' for Active; 'I' for Inactive)
REMARK    1  A    between atoms: C_4  and  O_5
REMARK    2  A    between atoms: O_5  and  C_6
REMARK    3  A    between atoms: C_6  and  C_7
REMARK    4  A    between atoms: C_16  and  N_17
REMARK                            x       y       z     vdW  Elec       q    Type
REMARK                         _______ _______ _______ _____ _____    ______ ____
ROOT
ATOM      1  F   UNL     1      47.239   3.109  14.478  0.00  0.00    +0.000 F 
ATOM      2  C   UNL     1      46.706   3.960  13.591  0.00  0.00    +0.000 A 
ATOM      3  C   UNL     1      45.689   3.520  12.759  0.00  0.00    +0.000 A 
ATOM      4  C   UNL     1      45.140   4.410  11.841  0.00  0.00    +0.000 A 
ATOM      5  C   UNL     1      45.613   5.744  11.780  0.00  0.00    +0.000 A 
ATOM      6 CL   UNL     1      44.728   6.844  10.751  0.00  0.00    +0.000 Cl
ATOM      7  C   UNL     1      46.667   6.203  12.618  0.00  0.00    +0.000 A 
ATOM      8  C   UNL     1      47.195   5.262  13.520  0.00  0.00    +0.000 A 
ENDROOT
BRANCH   7   9
ATOM      9  N   UNL     1      47.136   7.510  12.629  0.00  0.00    +0.000 N 
ATOM     10  C   UNL     1      46.322   8.623  13.143  0.00  0.00    +0.000 C 
ATOM     11  C   UNL     1      46.570   9.881  12.273  0.00  0.00    +0.000 C 
ATOM     12  N   UNL     1      47.994  10.259  12.148  0.00  0.00    +0.000 NA
ATOM     13  C   UNL     1      48.765   9.085  11.673  0.00  0.00    +0.000 C 
ATOM     14  C   UNL     1      48.573   7.830  12.560  0.00  0.00    +0.000 C 
ATOM     15  H   UNL     1      48.338  10.506  13.077  0.00  0.00    +0.000 HD
ENDBRANCH   7   9
BRANCH   4  16
ATOM     16  O   UNL     1      44.197   4.032  10.918  0.00  0.00    +0.000 OA
BRANCH  16  17
ATOM     17  C   UNL     1      44.318   2.715  10.375  0.00  0.00    +0.000 C 
BRANCH  17  18
ATOM     18  C   UNL     1      45.174   2.757   9.131  0.00  0.00    +0.000 A 
ATOM     19  C   UNL     1      45.257   3.906   8.345  0.00  0.00    +0.000 A 
ATOM     20  N   UNL     1      46.005   3.984   7.213  0.00  0.00    +0.000 NA
ATOM     21  C   UNL     1      46.668   2.855   6.887  0.00  0.00    +0.000 A 
ATOM     22  F   UNL     1      47.428   2.863   5.784  0.00  0.00    +0.000 F 
ATOM     23  C   UNL     1      46.584   1.702   7.651  0.00  0.00    +0.000 A 
ATOM     24  N   UNL     1      45.836   1.620   8.781  0.00  0.00    +0.000 NA
ENDBRANCH  17  18
ENDBRANCH  16  17
ENDBRANCH   4  16
TORSDOF 4
ENDMDL
MODEL 3
REMARK VINA RESULT:    -6.603      4.556      8.212
REMARK INTER + INTRA:          -8.783
REMARK INTER:                  -8.102
REMARK INTRA:                  -0.681
REMARK UNBOUND:                -0.636
REMARK  Name = 
REMARK  4 active torsions:
REMARK  status: ('A' for Active; 'I' for Inactive)
REMARK    1  A    between atoms: C_4  and  O_5
REMARK    2  A    between atoms: O_5  and  C_6
REMARK    3  A    between atoms: C_6  and  C_7
REMARK    4  A    between atoms: C_16  and  N_17
REMARK                            x       y       z     vdW  Elec       q    Type
REMARK                         _______ _______ _______ _____ _____    ______ ____
ROOT
ATOM      1  F   UNL     1      46.441   9.371  11.868  0.00  0.00    +0.000 F 
ATOM      2  C   UNL     1      46.610   8.113  12.296  0.00  0.00    +0.000 A 
ATOM      3  C   UNL     1      47.633   7.832  13.187  0.00  0.00    +0.000 A 
ATOM      4  C   UNL     1      47.801   6.524  13.627  0.00  0.00    +0.000 A 
ATOM      5  C   UNL     1      46.924   5.507  13.174  0.00  0.00    +0.000 A 
ATOM      6 CL   UNL     1      47.076   3.943  13.937  0.00  0.00    +0.000 Cl
ATOM      7  C   UNL     1      45.879   5.779  12.247  0.00  0.00    +0.000 A 
ATOM      8  C   UNL     1      45.759   7.115  11.824  0.00  0.00    +0.000 A 
ENDROOT
BRANCH   7   9
ATOM      9  N   UNL     1      44.967   4.829  11.807  0.00  0.00    +0.000 N 
ATOM     10  C   UNL     1      43.826   4.407  12.635  0.00  0.00    +0.000 C 
ATOM     11  C   UNL     1      43.583   2.890  12.432  0.00  0.00    +0.000 C 
ATOM     12  N   UNL     1      43.410   2.488  11.019  0.00  0.00    +0.000 NA
ATOM     13  C   UNL     1      44.565   2.984  10.232  0.00  0.00    +0.000 C 
ATOM     14  C   UNL     1      44.794   4.508  10.379  0.00  0.00    +0.000 C 
ATOM     15  H   UNL     1      42.569   2.943  10.662  0.00  0.00    +0.000 HD
ENDBRANCH   7   9
BRANCH   4  16
ATOM     16  O   UNL     1      48.844   6.143  14.434  0.00  0.00    +0.000 OA
BRANCH  16  17
ATOM     17  C   UNL     1      49.026   6.883  15.643  0.00  0.00    +0.000 C 
BRANCH  17  18
ATOM     18  C   UNL     1      48.874   5.960  16.830  0.00  0.00    +0.000 A 
ATOM     19  C   UNL     1      48.420   6.431  18.062  0.00  0.00    +0.000 A 
ATOM     20  N   UNL     1      48.279   5.640  19.157  0.00  0.00    +0.000 NA
ATOM     21  C   UNL     1      48.620   4.347  18.976  0.00  0.00    +0.000 A 
ATOM     22  F   UNL     1      48.502   3.509  20.015  0.00  0.00    +0.000 F 
ATOM     23  C   UNL     1      49.087   3.868  17.762  0.00  0.00    +0.000 A 
ATOM     24  N   UNL     1      49.231   4.656  16.666  0.00  0.00    +0.000 NA
ENDBRANCH  17  18
ENDBRANCH  16  17
ENDBRANCH   4  16
TORSDOF 4
ENDMDL
MODEL 4
REMARK VINA RESULT:    -6.170      4.906      8.024
REMARK INTER + INTRA:          -8.248
REMARK INTER:                  -7.672
REMARK INTRA:                  -0.576
REMARK UNBOUND:                -0.636
REMARK  Name = 
REMARK  4 active torsions:
REMARK  status: ('A' for Active; 'I' for Inactive)
REMARK    1  A    between atoms: C_4  and  O_5
REMARK    2  A    between atoms: O_5  and  C_6
REMARK    3  A    between atoms: C_6  and  C_7
REMARK    4  A    between atoms: C_16  and  N_17
REMARK                            x       y       z     vdW  Elec       q    Type
REMARK                         _______ _______ _______ _____ _____    ______ ____
ROOT
ATOM      1  F   UNL     1      46.471   9.803  12.577  0.00  0.00    +0.000 F 
ATOM      2  C   UNL     1      46.612   8.501  12.862  0.00  0.00    +0.000 A 
ATOM      3  C   UNL     1      47.674   8.093  13.654  0.00  0.00    +0.000 A 
ATOM      4  C   UNL     1      47.814   6.741  13.946  0.00  0.00    +0.000 A 
ATOM      5  C   UNL     1      46.871   5.808  13.446  0.00  0.00    +0.000 A 
ATOM      6 CL   UNL     1      47.003   4.168  14.032  0.00  0.00    +0.000 Cl
ATOM      7  C   UNL     1      45.786   6.212  12.619  0.00  0.00    +0.000 A 
ATOM      8  C   UNL     1      45.696   7.589  12.344  0.00  0.00    +0.000 A 
ENDROOT
BRANCH   7   9
ATOM      9  N   UNL     1      44.812   5.346  12.141  0.00  0.00    +0.000 N 
ATOM     10  C   UNL     1      43.637   4.978  12.947  0.00  0.00    +0.000 C 
ATOM     11  C   UNL     1      43.287   3.491  12.691  0.00  0.00    +0.000 C 
ATOM     12  N   UNL     1      43.098   3.151  11.264  0.00  0.00    +0.000 NA
ATOM     13  C   UNL     1      44.292   3.588  10.501  0.00  0.00    +0.000 C 
ATOM     14  C   UNL     1      44.629   5.086  10.702  0.00  0.00    +0.000 C 
ATOM     15  H   UNL     1      42.295   3.676  10.917  0.00  0.00    +0.000 HD
ENDBRANCH   7   9
BRANCH   4  16
ATOM     16  O   UNL     1      48.886   6.242  14.643  0.00  0.00    +0.000 OA
BRANCH  16  17
ATOM     17  C   UNL     1      48.897   6.466  16.054  0.00  0.00    +0.000 C 
BRANCH  17  18
ATOM     18  C   UNL     1      49.800   5.454  16.721  0.00  0.00    +0.000 A 
ATOM     19  C   UNL     1      51.128   5.756  17.025  0.00  0.00    +0.000 A 
ATOM     20  N   UNL     1      51.978   4.874  17.612  0.00  0.00    +0.000 NA
ATOM     21  C   UNL     1      51.449   3.662  17.880  0.00  0.00    +0.000 A 
ATOM     22  F   UNL     1      52.231   2.743  18.463  0.00  0.00    +0.000 F 
ATOM     23  C   UNL     1      50.137   3.343  17.570  0.00  0.00    +0.000 A 
ATOM     24  N   UNL     1      49.285   4.221  16.981  0.00  0.00    +0.000 NA
ENDBRANCH  17  18
ENDBRANCH  16  17
ENDBRANCH   4  16
TORSDOF 4
ENDMDL
MODEL 5
REMARK VINA RESULT:    -6.094      4.938      6.129
REMARK INTER + INTRA:          -8.155
REMARK INTER:                  -7.583
REMARK INTRA:                  -0.572
REMARK UNBOUND:                -0.636
REMARK  Name = 
REMARK  4 active torsions:
REMARK  status: ('A' for Active; 'I' for Inactive)
REMARK    1  A    between atoms: C_4  and  O_5
REMARK    2  A    between atoms: O_5  and  C_6
REMARK    3  A    between atoms: C_6  and  C_7
REMARK    4  A    between atoms: C_16  and  N_17
REMARK                            x       y       z     vdW  Elec       q    Type
REMARK                         _______ _______ _______ _____ _____    ______ ____
ROOT
ATOM      1  F   UNL     1      48.984   8.091  13.532  0.00  0.00    +0.000 F 
ATOM      2  C   UNL     1      48.549   7.024  14.218  0.00  0.00    +0.000 A 
ATOM      3  C   UNL     1      47.633   6.168  13.627  0.00  0.00    +0.000 A 
ATOM      4  C   UNL     1      47.186   5.064  14.344  0.00  0.00    +0.000 A 
ATOM      5  C   UNL     1      47.680   4.822  15.650  0.00  0.00    +0.000 A 
ATOM      6 CL   UNL     1      47.228   3.306  16.392  0.00  0.00    +0.000 Cl
ATOM      7  C   UNL     1      48.608   5.701  16.274  0.00  0.00    +0.000 A 
ATOM      8  C   UNL     1      49.019   6.810  15.511  0.00  0.00    +0.000 A 
ENDROOT
BRANCH   7   9
ATOM      9  N   UNL     1      49.155   5.487  17.532  0.00  0.00    +0.000 N 
ATOM     10  C   UNL     1      50.609   5.430  17.747  0.00  0.00    +0.000 C 
ATOM     11  C   UNL     1      50.926   4.357  18.818  0.00  0.00    +0.000 C 
ATOM     12  N   UNL     1      50.193   4.537  20.090  0.00  0.00    +0.000 NA
ATOM     13  C   UNL     1      48.742   4.634  19.801  0.00  0.00    +0.000 C 
ATOM     14  C   UNL     1      48.398   5.737  18.771  0.00  0.00    +0.000 C 
ATOM     15  H   UNL     1      50.491   5.421  20.504  0.00  0.00    +0.000 HD
ENDBRANCH   7   9
BRANCH   4  16
ATOM     16  O   UNL     1      46.212   4.220  13.872  0.00  0.00    +0.000 OA
BRANCH  16  17
ATOM     17  C   UNL     1      45.061   4.829  13.284  0.00  0.00    +0.000 C 
BRANCH  17  18
ATOM     18  C   UNL     1      44.962   4.426  11.831  0.00  0.00    +0.000 A 
ATOM     19  C   UNL     1      45.421   5.262  10.813  0.00  0.00    +0.000 A 
ATOM     20  N   UNL     1      45.341   4.946   9.494  0.00  0.00    +0.000 NA
ATOM     21  C   UNL     1      44.771   3.754   9.226  0.00  0.00    +0.000 A 
ATOM     22  F   UNL     1      44.663   3.376   7.945  0.00  0.00    +0.000 F 
ATOM     23  C   UNL     1      44.296   2.919  10.226  0.00  0.00    +0.000 A 
ATOM     24  N   UNL     1      44.373   3.233  11.544  0.00  0.00    +0.000 NA
ENDBRANCH  17  18
ENDBRANCH  16  17
ENDBRANCH   4  16
TORSDOF 4
ENDMDL
MODEL 6
REMARK VINA RESULT:    -5.889      5.778      7.597
REMARK INTER + INTRA:          -7.901
REMARK INTER:                  -7.378
REMARK INTRA:                  -0.523
REMARK UNBOUND:                -0.636
REMARK  Name = 
REMARK  4 active torsions:
REMARK  status: ('A' for Active; 'I' for Inactive)
REMARK    1  A    between atoms: C_4  and  O_5
REMARK    2  A    between atoms: O_5  and  C_6
REMARK    3  A    between atoms: C_6  and  C_7
REMARK    4  A    between atoms: C_16  and  N_17
REMARK                            x       y       z     vdW  Elec       q    Type
REMARK                         _______ _______ _______ _____ _____    ______ ____
ROOT
ATOM      1  F   UNL     1      49.460   7.998  15.060  0.00  0.00    +0.000 F 
ATOM      2  C   UNL     1      49.064   6.843  15.612  0.00  0.00    +0.000 A 
ATOM      3  C   UNL     1      48.125   6.065  14.953  0.00  0.00    +0.000 A 
ATOM      4  C   UNL     1      47.719   4.868  15.532  0.00  0.00    +0.000 A 
ATOM      5  C   UNL     1      48.276   4.455  16.768  0.00  0.00    +0.000 A 
ATOM      6 CL   UNL     1      47.867   2.847  17.315  0.00  0.00    +0.000 Cl
ATOM      7  C   UNL     1      49.228   5.252  17.463  0.00  0.00    +0.000 A 
ATOM      8  C   UNL     1      49.597   6.459  16.840  0.00  0.00    +0.000 A 
ENDROOT
BRANCH   7   9
ATOM      9  N   UNL     1      49.836   4.873  18.652  0.00  0.00    +0.000 N 
ATOM     10  C   UNL     1      49.076   4.744  19.905  0.00  0.00    +0.000 C 
ATOM     11  C   UNL     1      49.950   5.234  21.086  0.00  0.00    +0.000 C 
ATOM     12  N   UNL     1      51.269   4.571  21.178  0.00  0.00    +0.000 NA
ATOM     13  C   UNL     1      51.963   4.695  19.873  0.00  0.00    +0.000 C 
ATOM     14  C   UNL     1      51.126   4.162  18.684  0.00  0.00    +0.000 C 
ATOM     15  H   UNL     1      51.113   3.578  21.356  0.00  0.00    +0.000 HD
ENDBRANCH   7   9
BRANCH   4  16
ATOM     16  O   UNL     1      46.728   4.085  14.994  0.00  0.00    +0.000 OA
BRANCH  16  17
ATOM     17  C   UNL     1      46.720   3.941  13.573  0.00  0.00    +0.000 C 
BRANCH  17  18
ATOM     18  C   UNL     1      45.373   4.359  13.029  0.00  0.00    +0.000 A 
ATOM     19  C   UNL     1      45.063   5.701  12.812  0.00  0.00    +0.000 A 
ATOM     20  N   UNL     1      43.862   6.122  12.336  0.00  0.00    +0.000 NA
ATOM     21  C   UNL     1      42.969   5.142  12.091  0.00  0.00    +0.000 A 
ATOM     22  F   UNL     1      41.764   5.485  11.616  0.00  0.00    +0.000 F 
ATOM     23  C   UNL     1      43.257   3.805  12.316  0.00  0.00    +0.000 A 
ATOM     24  N   UNL     1      44.456   3.381  12.793  0.00  0.00    +0.000 NA
ENDBRANCH  17  18
ENDBRANCH  16  17
ENDBRANCH   4  16
TORSDOF 4
ENDMDL
MODEL 7
REMARK VINA RESULT:    -5.778      6.574      7.978
REMARK INTER + INTRA:          -7.766
REMARK INTER:                  -7.277
REMARK INTRA:                  -0.488
REMARK UNBOUND:                -0.636
REMARK  Name = 
REMARK  4 active torsions:
REMARK  status: ('A' for Active; 'I' for Inactive)
REMARK    1  A    between atoms: C_4  and  O_5
REMARK    2  A    between atoms: O_5  and  C_6
REMARK    3  A    between atoms: C_6  and  C_7
REMARK    4  A    between atoms: C_16  and  N_17
REMARK                            x       y       z     vdW  Elec       q    Type
REMARK                         _______ _______ _______ _____ _____    ______ ____
ROOT
ATOM      1  F   UNL     1      50.819   1.337  16.796  0.00  0.00    +0.000 F 
ATOM      2  C   UNL     1      49.940   2.300  17.106  0.00  0.00    +0.000 A 
ATOM      3  C   UNL     1      48.830   2.489  16.298  0.00  0.00    +0.000 A 
ATOM      4  C   UNL     1      47.922   3.490  16.626  0.00  0.00    +0.000 A 
ATOM      5  C   UNL     1      48.134   4.285  17.780  0.00  0.00    +0.000 A 
ATOM      6 CL   UNL     1      46.842   5.372  18.231  0.00  0.00    +0.000 Cl
ATOM      7  C   UNL     1      49.277   4.113  18.608  0.00  0.00    +0.000 A 
ATOM      8  C   UNL     1      50.170   3.095  18.226  0.00  0.00    +0.000 A 
ENDROOT
BRANCH   7   9
ATOM      9  N   UNL     1      49.508   4.835  19.771  0.00  0.00    +0.000 N 
ATOM     10  C   UNL     1      48.779   4.555  21.018  0.00  0.00    +0.000 C 
ATOM     11  C   UNL     1      48.491   5.888  21.752  0.00  0.00    +0.000 C 
ATOM     12  N   UNL     1      49.692   6.715  21.998  0.00  0.00    +0.000 NA
ATOM     13  C   UNL     1      50.406   6.921  20.715  0.00  0.00    +0.000 C 
ATOM     14  C   UNL     1      50.751   5.598  19.989  0.00  0.00    +0.000 C 
ATOM     15  H   UNL     1      50.311   6.196  22.621  0.00  0.00    +0.000 HD
ENDBRANCH   7   9
BRANCH   4  16
ATOM     16  O   UNL     1      46.849   3.805  15.831  0.00  0.00    +0.000 OA
BRANCH  16  17
ATOM     17  C   UNL     1      47.082   4.736  14.773  0.00  0.00    +0.000 C 
BRANCH  17  18
ATOM     18  C   UNL     1      46.084   4.501  13.663  0.00  0.00    +0.000 A 
ATOM     19  C   UNL     1      45.218   5.510  13.239  0.00  0.00    +0.000 A 
ATOM     20  N   UNL     1      44.299   5.339  12.254  0.00  0.00    +0.000 NA
ATOM     21  C   UNL     1      44.269   4.107  11.706  0.00  0.00    +0.000 A 
ATOM     22  F   UNL     1      43.388   3.869  10.726  0.00  0.00    +0.000 F 
ATOM     23  C   UNL     1      45.113   3.091  12.127  0.00  0.00    +0.000 A 
ATOM     24  N   UNL     1      46.032   3.257  13.112  0.00  0.00    +0.000 NA
ENDBRANCH  17  18
ENDBRANCH  16  17
ENDBRANCH   4  16
TORSDOF 4
ENDMDL
MODEL 8
REMARK VINA RESULT:    -5.750      4.431      6.448
REMARK INTER + INTRA:          -7.731
REMARK INTER:                  -7.094
REMARK INTRA:                  -0.637
REMARK UNBOUND:                -0.636
REMARK  Name = 
REMARK  4 active torsions:
REMARK  status: ('A' for Active; 'I' for Inactive)
REMARK    1  A    between atoms: C_4  and  O_5
REMARK    2  A    between atoms: O_5  and  C_6
REMARK    3  A    between atoms: C_6  and  C_7
REMARK    4  A    between atoms: C_16  and  N_17
REMARK                            x       y       z     vdW  Elec       q    Type
REMARK                         _______ _______ _______ _____ _____    ______ ____
ROOT
ATOM      1  F   UNL     1      48.841   9.818  15.481  0.00  0.00    +0.000 F 
ATOM      2  C   UNL     1      48.484   8.563  15.173  0.00  0.00    +0.000 A 
ATOM      3  C   UNL     1      47.888   8.312  13.947  0.00  0.00    +0.000 A 
ATOM      4  C   UNL     1      47.521   7.007  13.634  0.00  0.00    +0.000 A 
ATOM      5  C   UNL     1      47.771   5.961  14.557  0.00  0.00    +0.000 A 
ATOM      6 CL   UNL     1      47.471   4.333  13.998  0.00  0.00    +0.000 Cl
ATOM      7  C   UNL     1      48.367   6.209  15.824  0.00  0.00    +0.000 A 
ATOM      8  C   UNL     1      48.709   7.546  16.097  0.00  0.00    +0.000 A 
ENDROOT
BRANCH   7   9
ATOM      9  N   UNL     1      48.673   5.215  16.745  0.00  0.00    +0.000 N 
ATOM     10  C   UNL     1      49.988   5.141  17.399  0.00  0.00    +0.000 C 
ATOM     11  C   UNL     1      50.394   3.655  17.562  0.00  0.00    +0.000 C 
ATOM     12  N   UNL     1      49.390   2.827  18.263  0.00  0.00    +0.000 NA
ATOM     13  C   UNL     1      48.079   2.982  17.586  0.00  0.00    +0.000 C 
ATOM     14  C   UNL     1      47.629   4.458  17.460  0.00  0.00    +0.000 C 
ATOM     15  H   UNL     1      49.295   3.183  19.215  0.00  0.00    +0.000 HD
ENDBRANCH   7   9
BRANCH   4  16
ATOM     16  O   UNL     1      46.843   6.686  12.484  0.00  0.00    +0.000 OA
BRANCH  16  17
ATOM     17  C   UNL     1      45.426   6.866  12.499  0.00  0.00    +0.000 C 
BRANCH  17  18
ATOM     18  C   UNL     1      44.744   5.544  12.236  0.00  0.00    +0.000 A 
ATOM     19  C   UNL     1      44.100   4.843  13.256  0.00  0.00    +0.000 A 
ATOM     20  N   UNL     1      43.485   3.647  13.067  0.00  0.00    +0.000 NA
ATOM     21  C   UNL     1      43.545   3.166  11.808  0.00  0.00    +0.000 A 
ATOM     22  F   UNL     1      42.956   1.991  11.550  0.00  0.00    +0.000 F 
ATOM     23  C   UNL     1      44.194   3.843  10.788  0.00  0.00    +0.000 A 
ATOM     24  N   UNL     1      44.811   5.038  10.974  0.00  0.00    +0.000 NA
ENDBRANCH  17  18
ENDBRANCH  16  17
ENDBRANCH   4  16
TORSDOF 4
ENDMDL
MODEL 9
REMARK VINA RESULT:    -5.687      5.410      7.187
REMARK INTER + INTRA:          -7.653
REMARK INTER:                  -7.066
REMARK INTRA:                  -0.587
REMARK UNBOUND:                -0.636
REMARK  Name = 
REMARK  4 active torsions:
REMARK  status: ('A' for Active; 'I' for Inactive)
REMARK    1  A    between atoms: C_4  and  O_5
REMARK    2  A    between atoms: O_5  and  C_6
REMARK    3  A    between atoms: C_6  and  C_7
REMARK    4  A    between atoms: C_16  and  N_17
REMARK                            x       y       z     vdW  Elec       q    Type
REMARK                         _______ _______ _______ _____ _____    ______ ____
ROOT
ATOM      1  F   UNL     1      46.964   2.346  17.997  0.00  0.00    +0.000 F 
ATOM      2  C   UNL     1      47.446   3.463  17.434  0.00  0.00    +0.000 A 
ATOM      3  C   UNL     1      47.170   3.722  16.101  0.00  0.00    +0.000 A 
ATOM      4  C   UNL     1      47.674   4.883  15.524  0.00  0.00    +0.000 A 
ATOM      5  C   UNL     1      48.441   5.784  16.303  0.00  0.00    +0.000 A 
ATOM      6 CL   UNL     1      48.852   7.311  15.559  0.00  0.00    +0.000 Cl
ATOM      7  C   UNL     1      48.744   5.523  17.668  0.00  0.00    +0.000 A 
ATOM      8  C   UNL     1      48.222   4.330  18.200  0.00  0.00    +0.000 A 
ENDROOT
BRANCH   7   9
ATOM      9  N   UNL     1      49.453   6.393  18.485  0.00  0.00    +0.000 N 
ATOM     10  C   UNL     1      50.917   6.515  18.404  0.00  0.00    +0.000 C 
ATOM     11  C   UNL     1      51.492   6.722  19.827  0.00  0.00    +0.000 C 
ATOM     12  N   UNL     1      50.890   7.854  20.565  0.00  0.00    +0.000 NA
ATOM     13  C   UNL     1      49.415   7.697  20.570  0.00  0.00    +0.000 C 
ATOM     14  C   UNL     1      48.814   7.542  19.152  0.00  0.00    +0.000 C 
ATOM     15  H   UNL     1      51.112   8.713  20.061  0.00  0.00    +0.000 HD
ENDBRANCH   7   9
BRANCH   4  16
ATOM     16  O   UNL     1      47.527   5.169  14.189  0.00  0.00    +0.000 OA
BRANCH  16  17
ATOM     17  C   UNL     1      46.928   4.159  13.376  0.00  0.00    +0.000 C 
BRANCH  17  18
ATOM     18  C   UNL     1      45.547   4.604  12.952  0.00  0.00    +0.000 A 
ATOM     19  C   UNL     1      45.353   5.783  12.233  0.00  0.00    +0.000 A 
ATOM     20  N   UNL     1      44.130   6.227  11.843  0.00  0.00    +0.000 NA
ATOM     21  C   UNL     1      43.095   5.444  12.208  0.00  0.00    +0.000 A 
ATOM     22  F   UNL     1      41.859   5.819  11.852  0.00  0.00    +0.000 F 
ATOM     23  C   UNL     1      43.270   4.276  12.934  0.00  0.00    +0.000 A 
ATOM     24  N   UNL     1      44.491   3.831  13.328  0.00  0.00    +0.000 NA
ENDBRANCH  17  18
ENDBRANCH  16  17
ENDBRANCH   4  16
TORSDOF 4
ENDMDL
