MODEL 1
REMARK VINA RESULT:    -8.049      0.000      0.000
REMARK INTER + INTRA:         -12.507
REMARK INTER:                 -11.342
REMARK INTRA:                  -1.165
REMARK UNBOUND:                -1.165
REMARK  Name = 
REMARK  10 active torsions:
REMARK  status: ('A' for Active; 'I' for Inactive)
REMARK    1  A    between atoms: C_1  and  C_2
REMARK    2  A    between atoms: C_4  and  C_5
REMARK    3  A    between atoms: C_5  and  C_6
REMARK    4  A    between atoms: C_5  and  C_7
REMARK    5  A    between atoms: C_7  and  N_8
REMARK    6  A    between atoms: N_8  and  C_9
REMARK    7  A    between atoms: C_12  and  C_13
REMARK    8  A    between atoms: C_19  and  C_20
REMARK    9  A    between atoms: C_21  and  O_22
REMARK   10  A    between atoms: O_22  and  C_23
REMARK                            x       y       z     vdW  Elec       q    Type
REMARK                         _______ _______ _______ _____ _____    ______ ____
ROOT
ATOM      1  C   UNL     1      44.449   4.580  12.101  0.00  0.00    +0.000 C 
ATOM      2  C   UNL     1      43.374   4.315  13.169  0.00  0.00    +0.000 C 
ENDROOT
BRANCH   1   6
ATOM      3  C   UNL     1      48.394   7.636  11.736  0.00  0.00    +0.000 C 
ATOM      4  C   UNL     1      47.675   6.640  12.598  0.00  0.00    +0.000 A 
ATOM      5  C   UNL     1      46.478   6.097  12.073  0.00  0.00    +0.000 A 
ATOM      6  C   UNL     1      45.735   5.107  12.738  0.00  0.00    +0.000 A 
ATOM      7  C   UNL     1      46.207   4.682  13.980  0.00  0.00    +0.000 A 
ATOM      8  C   UNL     1      47.359   5.238  14.556  0.00  0.00    +0.000 A 
ATOM      9  C   UNL     1      47.754   4.800  15.945  0.00  0.00    +0.000 C 
ATOM     10  C   UNL     1      48.116   6.199  13.854  0.00  0.00    +0.000 A 
BRANCH  10  11
ATOM     11  O   UNL     1      49.314   6.491  14.460  0.00  0.00    +0.000 OA
BRANCH  11  12
ATOM     12  C   UNL     1      49.621   7.785  15.008  0.00  0.00    +0.000 C 
ATOM     13  C   UNL     1      50.251   7.729  16.409  0.00  0.00    +0.000 C 
ATOM     14  O   UNL     1      49.226   8.581  16.967  0.00  0.00    +0.000 OA
ATOM     15  C   UNL     1      48.519   8.591  15.703  0.00  0.00    +0.000 C 
ENDBRANCH  11  12
ENDBRANCH  10  11
ENDBRANCH   1   6
BRANCH   1  16
ATOM     16  C   UNL     1      43.819   5.469  11.000  0.00  0.00    +0.000 C 
BRANCH  16  17
ATOM     17  N   UNL     1      43.550   4.713   9.774  0.00  0.00    +0.000 N 
ATOM     18  H   UNL     1      42.675   4.192   9.786  0.00  0.00    +0.000 HD
BRANCH  17  19
ATOM     19  C   UNL     1      44.588   4.014   9.154  0.00  0.00    +0.000 A 
ATOM     20  C   UNL     1      45.574   4.632   8.378  0.00  0.00    +0.000 A 
ATOM     21  C   UNL     1      46.528   3.880   7.684  0.00  0.00    +0.000 A 
ATOM     22  C   UNL     1      46.506   2.485   7.735  0.00  0.00    +0.000 A 
ATOM     23  C   UNL     1      45.512   1.848   8.483  0.00  0.00    +0.000 A 
ATOM     24  C   UNL     1      44.562   2.612   9.178  0.00  0.00    +0.000 A 
BRANCH  22  25
ATOM     25  C   UNL     1      47.516   1.737   6.944  0.00  0.00    +0.000 C 
ATOM     26  N   UNL     1      48.534   2.452   6.379  0.00  0.00    +0.000 N 
ATOM     27  O   UNL     1      47.434   0.529   6.772  0.00  0.00    +0.000 OA
ATOM     28  H   UNL     1      48.524   3.456   6.300  0.00  0.00    +0.000 HD
ATOM     29  H   UNL     1      49.158   1.937   5.773  0.00  0.00    +0.000 HD
ENDBRANCH  22  25
ENDBRANCH  17  19
ENDBRANCH  16  17
ENDBRANCH   1  16
TORSDOF 7
ENDMDL
MODEL 2
REMARK VINA RESULT:    -8.026      0.889      2.032
REMARK INTER + INTRA:         -12.476
REMARK INTER:                 -11.343
REMARK INTRA:                  -1.132
REMARK UNBOUND:                -1.165
REMARK  Name = 
REMARK  10 active torsions:
REMARK  status: ('A' for Active; 'I' for Inactive)
REMARK    1  A    between atoms: C_1  and  C_2
REMARK    2  A    between atoms: C_4  and  C_5
REMARK    3  A    between atoms: C_5  and  C_6
REMARK    4  A    between atoms: C_5  and  C_7
REMARK    5  A    between atoms: C_7  and  N_8
REMARK    6  A    between atoms: N_8  and  C_9
REMARK    7  A    between atoms: C_12  and  C_13
REMARK    8  A    between atoms: C_19  and  C_20
REMARK    9  A    between atoms: C_21  and  O_22
REMARK   10  A    between atoms: O_22  and  C_23
REMARK                            x       y       z     vdW  Elec       q    Type
REMARK                         _______ _______ _______ _____ _____    ______ ____
ROOT
ATOM      1  C   UNL     1      43.514   4.938  12.351  0.00  0.00    +0.000 C 
ATOM      2  C   UNL     1      42.801   6.157  11.743  0.00  0.00    +0.000 C 
ENDROOT
BRANCH   1   6
ATOM      3  C   UNL     1      47.373   4.159  15.439  0.00  0.00    +0.000 C 
ATOM      4  C   UNL     1      46.895   4.879  14.212  0.00  0.00    +0.000 A 
ATOM      5  C   UNL     1      45.562   4.625  13.809  0.00  0.00    +0.000 A 
ATOM      6  C   UNL     1      44.959   5.277  12.721  0.00  0.00    +0.000 A 
ATOM      7  C   UNL     1      45.741   6.186  12.008  0.00  0.00    +0.000 A 
ATOM      8  C   UNL     1      47.082   6.421  12.345  0.00  0.00    +0.000 A 
ATOM      9  C   UNL     1      47.894   7.343  11.470  0.00  0.00    +0.000 C 
ATOM     10  C   UNL     1      47.657   5.791  13.468  0.00  0.00    +0.000 A 
BRANCH  10  11
ATOM     11  O   UNL     1      48.904   6.277  13.780  0.00  0.00    +0.000 OA
BRANCH  11  12
ATOM     12  C   UNL     1      49.136   7.208  14.852  0.00  0.00    +0.000 C 
ATOM     13  C   UNL     1      50.189   8.279  14.524  0.00  0.00    +0.000 C 
ATOM     14  O   UNL     1      50.989   7.928  15.674  0.00  0.00    +0.000 OA
ATOM     15  C   UNL     1      50.097   6.830  15.984  0.00  0.00    +0.000 C 
ENDBRANCH  11  12
ENDBRANCH  10  11
ENDBRANCH   1   6
BRANCH   1  16
ATOM     16  C   UNL     1      43.320   3.742  11.386  0.00  0.00    +0.000 C 
BRANCH  16  17
ATOM     17  N   UNL     1      43.496   4.134   9.985  0.00  0.00    +0.000 N 
ATOM     18  H   UNL     1      42.633   4.165   9.447  0.00  0.00    +0.000 HD
BRANCH  17  19
ATOM     19  C   UNL     1      44.571   3.620   9.256  0.00  0.00    +0.000 A 
ATOM     20  C   UNL     1      45.340   4.389   8.377  0.00  0.00    +0.000 A 
ATOM     21  C   UNL     1      46.334   3.807   7.582  0.00  0.00    +0.000 A 
ATOM     22  C   UNL     1      46.569   2.432   7.636  0.00  0.00    +0.000 A 
ATOM     23  C   UNL     1      45.793   1.642   8.489  0.00  0.00    +0.000 A 
ATOM     24  C   UNL     1      44.801   2.237   9.283  0.00  0.00    +0.000 A 
BRANCH  22  25
ATOM     25  C   UNL     1      47.607   1.862   6.739  0.00  0.00    +0.000 C 
ATOM     26  N   UNL     1      48.705   2.629   6.472  0.00  0.00    +0.000 N 
ATOM     27  O   UNL     1      47.480   0.757   6.228  0.00  0.00    +0.000 OA
ATOM     28  H   UNL     1      48.752   3.614   6.679  0.00  0.00    +0.000 HD
ATOM     29  H   UNL     1      49.353   2.258   5.791  0.00  0.00    +0.000 HD
ENDBRANCH  22  25
ENDBRANCH  17  19
ENDBRANCH  16  17
ENDBRANCH   1  16
TORSDOF 7
ENDMDL
MODEL 3
REMARK VINA RESULT:    -7.637      2.449      3.382
REMARK INTER + INTRA:         -11.926
REMARK INTER:                 -10.883
REMARK INTRA:                  -1.043
REMARK UNBOUND:                -1.165
REMARK  Name = 
REMARK  10 active torsions:
REMARK  status: ('A' for Active; 'I' for Inactive)
REMARK    1  A    between atoms: C_1  and  C_2
REMARK    2  A    between atoms: C_4  and  C_5
REMARK    3  A    between atoms: C_5  and  C_6
REMARK    4  A    between atoms: C_5  and  C_7
REMARK    5  A    between atoms: C_7  and  N_8
REMARK    6  A    between atoms: N_8  and  C_9
REMARK    7  A    between atoms: C_12  and  C_13
REMARK    8  A    between atoms: C_19  and  C_20
REMARK    9  A    between atoms: C_21  and  O_22
REMARK   10  A    between atoms: O_22  and  C_23
REMARK                            x       y       z     vdW  Elec       q    Type
REMARK                         _______ _______ _______ _____ _____    ______ ____
ROOT
ATOM      1  C   UNL     1      45.505   4.956  11.758  0.00  0.00    +0.000 C 
ATOM      2  C   UNL     1      45.779   3.980  12.916  0.00  0.00    +0.000 C 
ENDROOT
BRANCH   1   6
ATOM      3  C   UNL     1      49.486   7.699  13.050  0.00  0.00    +0.000 C 
ATOM      4  C   UNL     1      48.035   7.726  12.666  0.00  0.00    +0.000 A 
ATOM      5  C   UNL     1      47.434   6.478  12.375  0.00  0.00    +0.000 A 
ATOM      6  C   UNL     1      46.071   6.343  12.067  0.00  0.00    +0.000 A 
ATOM      7  C   UNL     1      45.307   7.510  12.025  0.00  0.00    +0.000 A 
ATOM      8  C   UNL     1      45.880   8.770  12.254  0.00  0.00    +0.000 A 
ATOM      9  C   UNL     1      45.015   9.995  12.096  0.00  0.00    +0.000 C 
ATOM     10  C   UNL     1      47.242   8.881  12.606  0.00  0.00    +0.000 A 
BRANCH  10  11
ATOM     11  O   UNL     1      47.597  10.151  12.993  0.00  0.00    +0.000 OA
BRANCH  11  12
ATOM     12  C   UNL     1      48.536  10.959  12.263  0.00  0.00    +0.000 C 
ATOM     13  C   UNL     1      48.155  12.447  12.203  0.00  0.00    +0.000 C 
ATOM     14  O   UNL     1      48.188  12.457  10.759  0.00  0.00    +0.000 OA
ATOM     15  C   UNL     1      48.443  11.032  10.736  0.00  0.00    +0.000 C 
ENDBRANCH  11  12
ENDBRANCH  10  11
ENDBRANCH   1   6
BRANCH   1  16
ATOM     16  C   UNL     1      43.993   4.894  11.429  0.00  0.00    +0.000 C 
BRANCH  16  17
ATOM     17  N   UNL     1      43.750   4.798   9.987  0.00  0.00    +0.000 N 
ATOM     18  H   UNL     1      42.766   4.761   9.730  0.00  0.00    +0.000 HD
BRANCH  17  19
ATOM     19  C   UNL     1      44.546   3.954   9.210  0.00  0.00    +0.000 A 
ATOM     20  C   UNL     1      44.586   2.566   9.378  0.00  0.00    +0.000 A 
ATOM     21  C   UNL     1      45.483   1.773   8.653  0.00  0.00    +0.000 A 
ATOM     22  C   UNL     1      46.377   2.355   7.752  0.00  0.00    +0.000 A 
ATOM     23  C   UNL     1      46.371   3.743   7.590  0.00  0.00    +0.000 A 
ATOM     24  C   UNL     1      45.465   4.529   8.320  0.00  0.00    +0.000 A 
BRANCH  22  25
ATOM     25  C   UNL     1      47.335   1.469   7.043  0.00  0.00    +0.000 C 
ATOM     26  N   UNL     1      48.484   2.032   6.564  0.00  0.00    +0.000 N 
ATOM     27  O   UNL     1      47.101   0.282   6.862  0.00  0.00    +0.000 OA
ATOM     28  H   UNL     1      48.618   3.028   6.487  0.00  0.00    +0.000 HD
ATOM     29  H   UNL     1      49.077   1.431   6.009  0.00  0.00    +0.000 HD
ENDBRANCH  22  25
ENDBRANCH  17  19
ENDBRANCH  16  17
ENDBRANCH   1  16
TORSDOF 7
ENDMDL
MODEL 4
REMARK VINA RESULT:    -7.530      2.083      2.696
REMARK INTER + INTRA:         -11.777
REMARK INTER:                 -10.798
REMARK INTRA:                  -0.979
REMARK UNBOUND:                -1.165
REMARK  Name = 
REMARK  10 active torsions:
REMARK  status: ('A' for Active; 'I' for Inactive)
REMARK    1  A    between atoms: C_1  and  C_2
REMARK    2  A    between atoms: C_4  and  C_5
REMARK    3  A    between atoms: C_5  and  C_6
REMARK    4  A    between atoms: C_5  and  C_7
REMARK    5  A    between atoms: C_7  and  N_8
REMARK    6  A    between atoms: N_8  and  C_9
REMARK    7  A    between atoms: C_12  and  C_13
REMARK    8  A    between atoms: C_19  and  C_20
REMARK    9  A    between atoms: C_21  and  O_22
REMARK   10  A    between atoms: O_22  and  C_23
REMARK                            x       y       z     vdW  Elec       q    Type
REMARK                         _______ _______ _______ _____ _____    ______ ____
ROOT
ATOM      1  C   UNL     1      45.267   5.164  11.737  0.00  0.00    +0.000 C 
ATOM      2  C   UNL     1      45.292   4.422  13.084  0.00  0.00    +0.000 C 
ENDROOT
BRANCH   1   6
ATOM      3  C   UNL     1      45.076  10.152  12.082  0.00  0.00    +0.000 C 
ATOM      4  C   UNL     1      45.970   8.947  12.034  0.00  0.00    +0.000 A 
ATOM      5  C   UNL     1      45.330   7.687  11.943  0.00  0.00    +0.000 A 
ATOM      6  C   UNL     1      46.039   6.481  11.824  0.00  0.00    +0.000 A 
ATOM      7  C   UNL     1      47.432   6.556  11.826  0.00  0.00    +0.000 A 
ATOM      8  C   UNL     1      48.100   7.781  11.970  0.00  0.00    +0.000 A 
ATOM      9  C   UNL     1      49.605   7.776  12.063  0.00  0.00    +0.000 C 
ATOM     10  C   UNL     1      47.371   8.987  12.045  0.00  0.00    +0.000 A 
BRANCH  10  11
ATOM     11  O   UNL     1      48.169  10.104  11.978  0.00  0.00    +0.000 OA
BRANCH  11  12
ATOM     12  C   UNL     1      48.334  11.016  13.078  0.00  0.00    +0.000 C 
ATOM     13  C   UNL     1      49.588  11.898  12.965  0.00  0.00    +0.000 C 
ATOM     14  O   UNL     1      50.084  11.458  14.249  0.00  0.00    +0.000 OA
ATOM     15  C   UNL     1      48.985  10.524  14.375  0.00  0.00    +0.000 C 
ENDBRANCH  11  12
ENDBRANCH  10  11
ENDBRANCH   1   6
BRANCH   1  16
ATOM     16  C   UNL     1      43.793   5.266  11.276  0.00  0.00    +0.000 C 
BRANCH  16  17
ATOM     17  N   UNL     1      43.628   4.863   9.876  0.00  0.00    +0.000 N 
ATOM     18  H   UNL     1      42.680   4.586   9.629  0.00  0.00    +0.000 HD
BRANCH  17  19
ATOM     19  C   UNL     1      44.600   4.065   9.270  0.00  0.00    +0.000 A 
ATOM     20  C   UNL     1      45.544   4.560   8.363  0.00  0.00    +0.000 A 
ATOM     21  C   UNL     1      46.426   3.704   7.695  0.00  0.00    +0.000 A 
ATOM     22  C   UNL     1      46.372   2.325   7.906  0.00  0.00    +0.000 A 
ATOM     23  C   UNL     1      45.419   1.808   8.788  0.00  0.00    +0.000 A 
ATOM     24  C   UNL     1      44.541   2.676   9.455  0.00  0.00    +0.000 A 
BRANCH  22  25
ATOM     25  C   UNL     1      47.304   1.461   7.136  0.00  0.00    +0.000 C 
ATOM     26  N   UNL     1      48.393   2.054   6.564  0.00  0.00    +0.000 N 
ATOM     27  O   UNL     1      47.098   0.264   6.989  0.00  0.00    +0.000 OA
ATOM     28  H   UNL     1      48.487   3.053   6.464  0.00  0.00    +0.000 HD
ATOM     29  H   UNL     1      48.963   1.465   5.973  0.00  0.00    +0.000 HD
ENDBRANCH  22  25
ENDBRANCH  17  19
ENDBRANCH  16  17
ENDBRANCH   1  16
TORSDOF 7
ENDMDL
MODEL 5
REMARK VINA RESULT:    -6.237      4.560      7.980
REMARK INTER + INTRA:          -9.954
REMARK INTER:                  -8.645
REMARK INTRA:                  -1.309
REMARK UNBOUND:                -1.165
REMARK  Name = 
REMARK  10 active torsions:
REMARK  status: ('A' for Active; 'I' for Inactive)
REMARK    1  A    between atoms: C_1  and  C_2
REMARK    2  A    between atoms: C_4  and  C_5
REMARK    3  A    between atoms: C_5  and  C_6
REMARK    4  A    between atoms: C_5  and  C_7
REMARK    5  A    between atoms: C_7  and  N_8
REMARK    6  A    between atoms: N_8  and  C_9
REMARK    7  A    between atoms: C_12  and  C_13
REMARK    8  A    between atoms: C_19  and  C_20
REMARK    9  A    between atoms: C_21  and  O_22
REMARK   10  A    between atoms: O_22  and  C_23
REMARK                            x       y       z     vdW  Elec       q    Type
REMARK                         _______ _______ _______ _____ _____    ______ ____
ROOT
ATOM      1  C   UNL     1      49.150   7.938  15.529  0.00  0.00    +0.000 C 
ATOM      2  C   UNL     1      49.936   9.088  14.877  0.00  0.00    +0.000 C 
ENDROOT
BRANCH   1   6
ATOM      3  C   UNL     1      47.043   3.789  13.690  0.00  0.00    +0.000 C 
ATOM      4  C   UNL     1      47.072   5.289  13.642  0.00  0.00    +0.000 A 
ATOM      5  C   UNL     1      47.975   5.933  14.522  0.00  0.00    +0.000 A 
ATOM      6  C   UNL     1      48.157   7.325  14.540  0.00  0.00    +0.000 A 
ATOM      7  C   UNL     1      47.381   8.082  13.663  0.00  0.00    +0.000 A 
ATOM      8  C   UNL     1      46.437   7.483  12.816  0.00  0.00    +0.000 A 
ATOM      9  C   UNL     1      45.564   8.372  11.965  0.00  0.00    +0.000 C 
ATOM     10  C   UNL     1      46.299   6.079  12.780  0.00  0.00    +0.000 A 
BRANCH  10  11
ATOM     11  O   UNL     1      45.485   5.643  11.762  0.00  0.00    +0.000 OA
BRANCH  11  12
ATOM     12  C   UNL     1      44.297   4.865  11.987  0.00  0.00    +0.000 C 
ATOM     13  C   UNL     1      43.216   5.063  10.911  0.00  0.00    +0.000 C 
ATOM     14  O   UNL     1      42.229   5.450  11.891  0.00  0.00    +0.000 OA
ATOM     15  C   UNL     1      43.221   5.390  12.944  0.00  0.00    +0.000 C 
ENDBRANCH  11  12
ENDBRANCH  10  11
ENDBRANCH   1   6
BRANCH   1  16
ATOM     16  C   UNL     1      48.554   8.461  16.859  0.00  0.00    +0.000 C 
BRANCH  16  17
ATOM     17  N   UNL     1      49.066   7.722  18.016  0.00  0.00    +0.000 N 
ATOM     18  H   UNL     1      49.750   8.233  18.570  0.00  0.00    +0.000 HD
BRANCH  17  19
ATOM     19  C   UNL     1      49.377   6.368  17.885  0.00  0.00    +0.000 A 
ATOM     20  C   UNL     1      50.663   5.900  17.591  0.00  0.00    +0.000 A 
ATOM     21  C   UNL     1      50.905   4.542  17.357  0.00  0.00    +0.000 A 
ATOM     22  C   UNL     1      49.858   3.618  17.394  0.00  0.00    +0.000 A 
ATOM     23  C   UNL     1      48.562   4.069  17.660  0.00  0.00    +0.000 A 
ATOM     24  C   UNL     1      48.331   5.433  17.896  0.00  0.00    +0.000 A 
BRANCH  22  25
ATOM     25  C   UNL     1      50.166   2.196  17.095  0.00  0.00    +0.000 C 
ATOM     26  N   UNL     1      51.068   1.560  17.900  0.00  0.00    +0.000 N 
ATOM     27  O   UNL     1      49.659   1.613  16.146  0.00  0.00    +0.000 OA
ATOM     28  H   UNL     1      51.674   2.047  18.541  0.00  0.00    +0.000 HD
ATOM     29  H   UNL     1      51.329   0.623  17.624  0.00  0.00    +0.000 HD
ENDBRANCH  22  25
ENDBRANCH  17  19
ENDBRANCH  16  17
ENDBRANCH   1  16
TORSDOF 7
ENDMDL
MODEL 6
REMARK VINA RESULT:    -6.077      4.157      7.267
REMARK INTER + INTRA:          -9.728
REMARK INTER:                  -8.394
REMARK INTRA:                  -1.335
REMARK UNBOUND:                -1.165
REMARK  Name = 
REMARK  10 active torsions:
REMARK  status: ('A' for Active; 'I' for Inactive)
REMARK    1  A    between atoms: C_1  and  C_2
REMARK    2  A    between atoms: C_4  and  C_5
REMARK    3  A    between atoms: C_5  and  C_6
REMARK    4  A    between atoms: C_5  and  C_7
REMARK    5  A    between atoms: C_7  and  N_8
REMARK    6  A    between atoms: N_8  and  C_9
REMARK    7  A    between atoms: C_12  and  C_13
REMARK    8  A    between atoms: C_19  and  C_20
REMARK    9  A    between atoms: C_21  and  O_22
REMARK   10  A    between atoms: O_22  and  C_23
REMARK                            x       y       z     vdW  Elec       q    Type
REMARK                         _______ _______ _______ _____ _____    ______ ____
ROOT
ATOM      1  C   UNL     1      49.164   8.485  12.901  0.00  0.00    +0.000 C 
ATOM      2  C   UNL     1      50.563   8.084  12.399  0.00  0.00    +0.000 C 
ENDROOT
BRANCH   1   6
ATOM      3  C   UNL     1      46.922   4.547  15.022  0.00  0.00    +0.000 C 
ATOM      4  C   UNL     1      47.025   5.398  13.791  0.00  0.00    +0.000 A 
ATOM      5  C   UNL     1      47.928   6.487  13.847  0.00  0.00    +0.000 A 
ATOM      6  C   UNL     1      48.176   7.327  12.750  0.00  0.00    +0.000 A 
ATOM      7  C   UNL     1      47.467   7.072  11.576  0.00  0.00    +0.000 A 
ATOM      8  C   UNL     1      46.523   6.036  11.501  0.00  0.00    +0.000 A 
ATOM      9  C   UNL     1      45.723   5.880  10.232  0.00  0.00    +0.000 C 
ATOM     10  C   UNL     1      46.319   5.175  12.600  0.00  0.00    +0.000 A 
BRANCH  10  11
ATOM     11  O   UNL     1      45.520   4.099  12.300  0.00  0.00    +0.000 OA
BRANCH  11  12
ATOM     12  C   UNL     1      44.142   4.009  12.703  0.00  0.00    +0.000 C 
ATOM     13  C   UNL     1      43.173   3.749  11.538  0.00  0.00    +0.000 C 
ATOM     14  O   UNL     1      42.394   4.925  11.848  0.00  0.00    +0.000 OA
ATOM     15  C   UNL     1      43.326   5.291  12.894  0.00  0.00    +0.000 C 
ENDBRANCH  11  12
ENDBRANCH  10  11
ENDBRANCH   1   6
BRANCH   1  16
ATOM     16  C   UNL     1      48.771   9.812  12.206  0.00  0.00    +0.000 C 
BRANCH  16  17
ATOM     17  N   UNL     1      47.581  10.416  12.814  0.00  0.00    +0.000 N 
ATOM     18  H   UNL     1      47.412  10.131  13.776  0.00  0.00    +0.000 HD
BRANCH  17  19
ATOM     19  C   UNL     1      46.407  10.524  12.067  0.00  0.00    +0.000 A 
ATOM     20  C   UNL     1      45.346   9.618  12.167  0.00  0.00    +0.000 A 
ATOM     21  C   UNL     1      44.237   9.701  11.317  0.00  0.00    +0.000 A 
ATOM     22  C   UNL     1      44.173  10.687  10.330  0.00  0.00    +0.000 A 
ATOM     23  C   UNL     1      45.235  11.586  10.196  0.00  0.00    +0.000 A 
ATOM     24  C   UNL     1      46.341  11.495  11.056  0.00  0.00    +0.000 A 
BRANCH  22  25
ATOM     25  C   UNL     1      42.993  10.701   9.429  0.00  0.00    +0.000 C 
ATOM     26  N   UNL     1      43.222  10.674   8.082  0.00  0.00    +0.000 N 
ATOM     27  O   UNL     1      41.851  10.764   9.864  0.00  0.00    +0.000 OA
ATOM     28  H   UNL     1      44.127  10.848   7.675  0.00  0.00    +0.000 HD
ATOM     29  H   UNL     1      42.411  10.774   7.489  0.00  0.00    +0.000 HD
ENDBRANCH  22  25
ENDBRANCH  17  19
ENDBRANCH  16  17
ENDBRANCH   1  16
TORSDOF 7
ENDMDL
MODEL 7
REMARK VINA RESULT:    -5.993      3.771      8.412
REMARK INTER + INTRA:          -9.611
REMARK INTER:                  -8.379
REMARK INTRA:                  -1.232
REMARK UNBOUND:                -1.165
REMARK  Name = 
REMARK  10 active torsions:
REMARK  status: ('A' for Active; 'I' for Inactive)
REMARK    1  A    between atoms: C_1  and  C_2
REMARK    2  A    between atoms: C_4  and  C_5
REMARK    3  A    between atoms: C_5  and  C_6
REMARK    4  A    between atoms: C_5  and  C_7
REMARK    5  A    between atoms: C_7  and  N_8
REMARK    6  A    between atoms: N_8  and  C_9
REMARK    7  A    between atoms: C_12  and  C_13
REMARK    8  A    between atoms: C_19  and  C_20
REMARK    9  A    between atoms: C_21  and  O_22
REMARK   10  A    between atoms: O_22  and  C_23
REMARK                            x       y       z     vdW  Elec       q    Type
REMARK                         _______ _______ _______ _____ _____    ______ ____
ROOT
ATOM      1  C   UNL     1      49.487   7.799  12.789  0.00  0.00    +0.000 C 
ATOM      2  C   UNL     1      49.543   8.986  11.811  0.00  0.00    +0.000 C 
ENDROOT
BRANCH   1   6
ATOM      3  C   UNL     1      44.668   8.087  11.475  0.00  0.00    +0.000 C 
ATOM      4  C   UNL     1      45.740   7.220  12.067  0.00  0.00    +0.000 A 
ATOM      5  C   UNL     1      47.035   7.785  12.153  0.00  0.00    +0.000 A 
ATOM      6  C   UNL     1      48.120   7.116  12.743  0.00  0.00    +0.000 A 
ATOM      7  C   UNL     1      47.888   5.830  13.231  0.00  0.00    +0.000 A 
ATOM      8  C   UNL     1      46.631   5.217  13.113  0.00  0.00    +0.000 A 
ATOM      9  C   UNL     1      46.480   3.789  13.574  0.00  0.00    +0.000 C 
ATOM     10  C   UNL     1      45.543   5.921  12.557  0.00  0.00    +0.000 A 
BRANCH  10  11
ATOM     11  O   UNL     1      44.346   5.262  12.698  0.00  0.00    +0.000 OA
BRANCH  11  12
ATOM     12  C   UNL     1      43.611   4.723  11.585  0.00  0.00    +0.000 C 
ATOM     13  C   UNL     1      43.311   3.221  11.711  0.00  0.00    +0.000 C 
ATOM     14  O   UNL     1      43.950   2.928  10.450  0.00  0.00    +0.000 OA
ATOM     15  C   UNL     1      44.361   4.310  10.314  0.00  0.00    +0.000 C 
ENDBRANCH  11  12
ENDBRANCH  10  11
ENDBRANCH   1   6
BRANCH   1  16
ATOM     16  C   UNL     1      49.952   8.303  14.177  0.00  0.00    +0.000 C 
BRANCH  16  17
ATOM     17  N   UNL     1      50.772   7.308  14.875  0.00  0.00    +0.000 N 
ATOM     18  H   UNL     1      51.207   6.621  14.263  0.00  0.00    +0.000 HD
BRANCH  17  19
ATOM     19  C   UNL     1      50.312   6.754  16.071  0.00  0.00    +0.000 A 
ATOM     20  C   UNL     1      51.062   5.859  16.842  0.00  0.00    +0.000 A 
ATOM     21  C   UNL     1      50.517   5.242  17.973  0.00  0.00    +0.000 A 
ATOM     22  C   UNL     1      49.197   5.493  18.351  0.00  0.00    +0.000 A 
ATOM     23  C   UNL     1      48.422   6.364  17.579  0.00  0.00    +0.000 A 
ATOM     24  C   UNL     1      48.980   6.979  16.448  0.00  0.00    +0.000 A 
BRANCH  22  25
ATOM     25  C   UNL     1      48.658   4.777  19.535  0.00  0.00    +0.000 C 
ATOM     26  N   UNL     1      48.549   3.417  19.459  0.00  0.00    +0.000 N 
ATOM     27  O   UNL     1      48.294   5.375  20.539  0.00  0.00    +0.000 OA
ATOM     28  H   UNL     1      48.619   2.907  18.592  0.00  0.00    +0.000 HD
ATOM     29  H   UNL     1      48.098   2.961  20.240  0.00  0.00    +0.000 HD
ENDBRANCH  22  25
ENDBRANCH  17  19
ENDBRANCH  16  17
ENDBRANCH   1  16
TORSDOF 7
ENDMDL
MODEL 8
REMARK VINA RESULT:    -5.945      3.903      8.329
REMARK INTER + INTRA:          -9.543
REMARK INTER:                  -7.907
REMARK INTRA:                  -1.635
REMARK UNBOUND:                -1.165
REMARK  Name = 
REMARK  10 active torsions:
REMARK  status: ('A' for Active; 'I' for Inactive)
REMARK    1  A    between atoms: C_1  and  C_2
REMARK    2  A    between atoms: C_4  and  C_5
REMARK    3  A    between atoms: C_5  and  C_6
REMARK    4  A    between atoms: C_5  and  C_7
REMARK    5  A    between atoms: C_7  and  N_8
REMARK    6  A    between atoms: N_8  and  C_9
REMARK    7  A    between atoms: C_12  and  C_13
REMARK    8  A    between atoms: C_19  and  C_20
REMARK    9  A    between atoms: C_21  and  O_22
REMARK   10  A    between atoms: O_22  and  C_23
REMARK                            x       y       z     vdW  Elec       q    Type
REMARK                         _______ _______ _______ _____ _____    ______ ____
ROOT
ATOM      1  C   UNL     1      49.457   7.985  13.143  0.00  0.00    +0.000 C 
ATOM      2  C   UNL     1      49.735   8.648  11.783  0.00  0.00    +0.000 C 
ENDROOT
BRANCH   1   6
ATOM      3  C   UNL     1      46.983   3.960  14.791  0.00  0.00    +0.000 C 
ATOM      4  C   UNL     1      46.920   5.182  13.922  0.00  0.00    +0.000 A 
ATOM      5  C   UNL     1      48.070   6.007  13.907  0.00  0.00    +0.000 A 
ATOM      6  C   UNL     1      48.180   7.145  13.092  0.00  0.00    +0.000 A 
ATOM      7  C   UNL     1      47.081   7.467  12.294  0.00  0.00    +0.000 A 
ATOM      8  C   UNL     1      45.905   6.704  12.324  0.00  0.00    +0.000 A 
ATOM      9  C   UNL     1      44.723   7.168  11.510  0.00  0.00    +0.000 C 
ATOM     10  C   UNL     1      45.829   5.539  13.117  0.00  0.00    +0.000 A 
BRANCH  10  11
ATOM     11  O   UNL     1      44.696   4.799  12.881  0.00  0.00    +0.000 OA
BRANCH  11  12
ATOM     12  C   UNL     1      44.717   3.524  12.216  0.00  0.00    +0.000 C 
ATOM     13  C   UNL     1      44.791   3.627  10.684  0.00  0.00    +0.000 C 
ATOM     14  O   UNL     1      43.593   2.839  10.514  0.00  0.00    +0.000 OA
ATOM     15  C   UNL     1      43.398   2.790  11.949  0.00  0.00    +0.000 C 
ENDBRANCH  11  12
ENDBRANCH  10  11
ENDBRANCH   1   6
BRANCH   1  16
ATOM     16  C   UNL     1      49.506   9.087  14.230  0.00  0.00    +0.000 C 
BRANCH  16  17
ATOM     17  N   UNL     1      50.455   8.760  15.298  0.00  0.00    +0.000 N 
ATOM     18  H   UNL     1      51.431   8.776  15.011  0.00  0.00    +0.000 HD
BRANCH  17  19
ATOM     19  C   UNL     1      50.167   7.717  16.180  0.00  0.00    +0.000 A 
ATOM     20  C   UNL     1      50.950   6.563  16.287  0.00  0.00    +0.000 A 
ATOM     21  C   UNL     1      50.560   5.494  17.102  0.00  0.00    +0.000 A 
ATOM     22  C   UNL     1      49.362   5.548  17.818  0.00  0.00    +0.000 A 
ATOM     23  C   UNL     1      48.552   6.682  17.704  0.00  0.00    +0.000 A 
ATOM     24  C   UNL     1      48.955   7.749  16.886  0.00  0.00    +0.000 A 
BRANCH  22  25
ATOM     25  C   UNL     1      48.978   4.367  18.632  0.00  0.00    +0.000 C 
ATOM     26  N   UNL     1      49.440   4.304  19.916  0.00  0.00    +0.000 N 
ATOM     27  O   UNL     1      48.296   3.462  18.171  0.00  0.00    +0.000 OA
ATOM     28  H   UNL     1      50.176   4.897  20.266  0.00  0.00    +0.000 HD
ATOM     29  H   UNL     1      49.240   3.452  20.421  0.00  0.00    +0.000 HD
ENDBRANCH  22  25
ENDBRANCH  17  19
ENDBRANCH  16  17
ENDBRANCH   1  16
TORSDOF 7
ENDMDL
MODEL 9
REMARK VINA RESULT:    -5.635      3.212      5.493
REMARK INTER + INTRA:          -9.106
REMARK INTER:                  -8.156
REMARK INTRA:                  -0.950
REMARK UNBOUND:                -1.165
REMARK  Name = 
REMARK  10 active torsions:
REMARK  status: ('A' for Active; 'I' for Inactive)
REMARK    1  A    between atoms: C_1  and  C_2
REMARK    2  A    between atoms: C_4  and  C_5
REMARK    3  A    between atoms: C_5  and  C_6
REMARK    4  A    between atoms: C_5  and  C_7
REMARK    5  A    between atoms: C_7  and  N_8
REMARK    6  A    between atoms: N_8  and  C_9
REMARK    7  A    between atoms: C_12  and  C_13
REMARK    8  A    between atoms: C_19  and  C_20
REMARK    9  A    between atoms: C_21  and  O_22
REMARK   10  A    between atoms: O_22  and  C_23
REMARK                            x       y       z     vdW  Elec       q    Type
REMARK                         _______ _______ _______ _____ _____    ______ ____
ROOT
ATOM      1  C   UNL     1      49.329   7.710  14.488  0.00  0.00    +0.000 C 
ATOM      2  C   UNL     1      50.823   8.072  14.524  0.00  0.00    +0.000 C 
ENDROOT
BRANCH   1   6
ATOM      3  C   UNL     1      48.461   8.206  19.391  0.00  0.00    +0.000 C 
ATOM      4  C   UNL     1      48.422   7.275  18.215  0.00  0.00    +0.000 A 
ATOM      5  C   UNL     1      48.819   7.814  16.967  0.00  0.00    +0.000 A 
ATOM      6  C   UNL     1      48.896   7.045  15.795  0.00  0.00    +0.000 A 
ATOM      7  C   UNL     1      48.531   5.701  15.889  0.00  0.00    +0.000 A 
ATOM      8  C   UNL     1      48.080   5.146  17.096  0.00  0.00    +0.000 A 
ATOM      9  C   UNL     1      47.610   3.713  17.099  0.00  0.00    +0.000 C 
ATOM     10  C   UNL     1      48.052   5.924  18.273  0.00  0.00    +0.000 A 
BRANCH  10  11
ATOM     11  O   UNL     1      47.783   5.186  19.400  0.00  0.00    +0.000 OA
BRANCH  11  12
ATOM     12  C   UNL     1      48.809   4.561  20.191  0.00  0.00    +0.000 C 
ATOM     13  C   UNL     1      49.026   5.228  21.559  0.00  0.00    +0.000 C 
ATOM     14  O   UNL     1      50.429   5.447  21.294  0.00  0.00    +0.000 OA
ATOM     15  C   UNL     1      50.277   4.928  19.950  0.00  0.00    +0.000 C 
ENDBRANCH  11  12
ENDBRANCH  10  11
ENDBRANCH   1   6
BRANCH   1  16
ATOM     16  C   UNL     1      49.063   6.905  13.192  0.00  0.00    +0.000 C 
BRANCH  16  17
ATOM     17  N   UNL     1      47.794   7.282  12.563  0.00  0.00    +0.000 N 
ATOM     18  H   UNL     1      47.404   8.159  12.900  0.00  0.00    +0.000 HD
BRANCH  17  19
ATOM     19  C   UNL     1      46.821   6.307  12.339  0.00  0.00    +0.000 A 
ATOM     20  C   UNL     1      46.571   5.252  13.223  0.00  0.00    +0.000 A 
ATOM     21  C   UNL     1      45.665   4.235  12.903  0.00  0.00    +0.000 A 
ATOM     22  C   UNL     1      44.998   4.240  11.677  0.00  0.00    +0.000 A 
ATOM     23  C   UNL     1      45.253   5.271  10.768  0.00  0.00    +0.000 A 
ATOM     24  C   UNL     1      46.162   6.287  11.101  0.00  0.00    +0.000 A 
BRANCH  22  25
ATOM     25  C   UNL     1      44.080   3.112  11.373  0.00  0.00    +0.000 C 
ATOM     26  N   UNL     1      43.636   2.356  12.420  0.00  0.00    +0.000 N 
ATOM     27  O   UNL     1      43.750   2.843  10.226  0.00  0.00    +0.000 OA
ATOM     28  H   UNL     1      44.048   2.392  13.339  0.00  0.00    +0.000 HD
ATOM     29  H   UNL     1      43.086   1.542  12.181  0.00  0.00    +0.000 HD
ENDBRANCH  22  25
ENDBRANCH  17  19
ENDBRANCH  16  17
ENDBRANCH   1  16
TORSDOF 7
ENDMDL
