MODEL 1
REMARK VINA RESULT:    -7.417      0.000      0.000
REMARK INTER + INTRA:         -10.304
REMARK INTER:                  -9.152
REMARK INTRA:                  -1.153
REMARK UNBOUND:                -1.153
REMARK  Name = 
REMARK  4 active torsions:
REMARK  status: ('A' for Active; 'I' for Inactive)
REMARK    1  A    between atoms: C_4  and  C_5
REMARK    2  A    between atoms: C_9  and  C_10
REMARK    3  A    between atoms: C_10  and  N_11
REMARK    4  A    between atoms: N_11  and  C_12
REMARK                            x       y       z     vdW  Elec       q    Type
REMARK                         _______ _______ _______ _____ _____    ______ ____
ROOT
ATOM      1  C   UNL     1      47.180   6.503  12.458  0.00  0.00    +0.000 A 
ATOM      2  C   UNL     1      47.578   5.519  13.376  0.00  0.00    +0.000 A 
ATOM      3  C   UNL     1      46.762   4.420  13.657  0.00  0.00    +0.000 A 
ATOM      4  C   UNL     1      45.542   4.265  12.999  0.00  0.00    +0.000 A 
ATOM      5  C   UNL     1      45.100   5.205  12.058  0.00  0.00    +0.000 A 
ATOM      6  C   UNL     1      45.929   6.324  11.835  0.00  0.00    +0.000 A 
ENDROOT
BRANCH   1  10
ATOM      7  C   UNL     1      49.632   9.908  11.452  0.00  0.00    +0.000 A 
ATOM      8  C   UNL     1      50.185   8.635  11.486  0.00  0.00    +0.000 A 
ATOM      9  C   UNL     1      49.392   7.537  11.837  0.00  0.00    +0.000 A 
ATOM     10  C   UNL     1      48.023   7.681  12.142  0.00  0.00    +0.000 A 
ATOM     11  C   UNL     1      47.494   8.982  12.110  0.00  0.00    +0.000 A 
ATOM     12  C   UNL     1      48.288  10.085  11.774  0.00  0.00    +0.000 A 
ENDBRANCH   1  10
BRANCH   5  13
ATOM     13  C   UNL     1      43.797   5.037  11.277  0.00  0.00    +0.000 C 
ATOM     14  C   UNL     1      42.929   6.258  11.053  0.00  0.00    +0.000 C 
ATOM     15  C   UNL     1      42.495   5.242  12.055  0.00  0.00    +0.000 C 
BRANCH  13  16
ATOM     16  N   UNL     1      43.760   3.855  10.399  0.00  0.00    +0.000 N 
ATOM     17  H   UNL     1      43.255   3.059  10.778  0.00  0.00    +0.000 HD
BRANCH  16  18
ATOM     18  C   UNL     1      44.733   3.473   9.459  0.00  0.00    +0.000 A 
ATOM     19  C   UNL     1      45.326   4.337   8.545  0.00  0.00    +0.000 A 
ATOM     20  C   UNL     1      46.216   3.816   7.612  0.00  0.00    +0.000 A 
ATOM     21  N   UNL     1      46.528   2.506   7.505  0.00  0.00    +0.000 NA
ATOM     22  C   UNL     1      45.918   1.678   8.373  0.00  0.00    +0.000 A 
ATOM     23  C   UNL     1      45.027   2.110   9.345  0.00  0.00    +0.000 A 
ENDBRANCH  16  18
ENDBRANCH  13  16
ENDBRANCH   5  13
TORSDOF 4
ENDMDL
MODEL 2
REMARK VINA RESULT:    -7.277      2.791      6.616
REMARK INTER + INTRA:         -10.131
REMARK INTER:                  -9.048
REMARK INTRA:                  -1.082
REMARK UNBOUND:                -1.153
REMARK  Name = 
REMARK  4 active torsions:
REMARK  status: ('A' for Active; 'I' for Inactive)
REMARK    1  A    between atoms: C_4  and  C_5
REMARK    2  A    between atoms: C_9  and  C_10
REMARK    3  A    between atoms: C_10  and  N_11
REMARK    4  A    between atoms: N_11  and  C_12
REMARK                            x       y       z     vdW  Elec       q    Type
REMARK                         _______ _______ _______ _____ _____    ______ ____
ROOT
ATOM      1  C   UNL     1      44.908   4.374   9.967  0.00  0.00    +0.000 A 
ATOM      2  C   UNL     1      43.587   4.160  10.388  0.00  0.00    +0.000 A 
ATOM      3  C   UNL     1      43.015   4.942  11.396  0.00  0.00    +0.000 A 
ATOM      4  C   UNL     1      43.744   5.976  11.982  0.00  0.00    +0.000 A 
ATOM      5  C   UNL     1      45.061   6.249  11.589  0.00  0.00    +0.000 A 
ATOM      6  C   UNL     1      45.620   5.411  10.602  0.00  0.00    +0.000 A 
ENDROOT
BRANCH   1  10
ATOM      7  C   UNL     1      46.834   2.029   6.899  0.00  0.00    +0.000 A 
ATOM      8  C   UNL     1      46.787   3.413   6.794  0.00  0.00    +0.000 A 
ATOM      9  C   UNL     1      46.139   4.167   7.778  0.00  0.00    +0.000 A 
ATOM     10  C   UNL     1      45.543   3.560   8.902  0.00  0.00    +0.000 A 
ATOM     11  C   UNL     1      45.597   2.158   8.976  0.00  0.00    +0.000 A 
ATOM     12  C   UNL     1      46.231   1.399   7.985  0.00  0.00    +0.000 A 
ENDBRANCH   1  10
BRANCH   5  13
ATOM     13  C   UNL     1      45.868   7.411  12.168  0.00  0.00    +0.000 C 
ATOM     14  C   UNL     1      47.347   7.488  11.851  0.00  0.00    +0.000 C 
ATOM     15  C   UNL     1      46.926   7.060  13.216  0.00  0.00    +0.000 C 
BRANCH  13  16
ATOM     16  N   UNL     1      45.065   8.588  12.536  0.00  0.00    +0.000 N 
ATOM     17  H   UNL     1      44.393   8.429  13.283  0.00  0.00    +0.000 HD
BRANCH  16  18
ATOM     18  C   UNL     1      44.685   9.647  11.692  0.00  0.00    +0.000 A 
ATOM     19  C   UNL     1      43.670   9.572  10.745  0.00  0.00    +0.000 A 
ATOM     20  C   UNL     1      43.448  10.665   9.915  0.00  0.00    +0.000 A 
ATOM     21  N   UNL     1      44.178  11.801   9.938  0.00  0.00    +0.000 NA
ATOM     22  C   UNL     1      45.180  11.844  10.836  0.00  0.00    +0.000 A 
ATOM     23  C   UNL     1      45.467  10.807  11.713  0.00  0.00    +0.000 A 
ENDBRANCH  16  18
ENDBRANCH  13  16
ENDBRANCH   5  13
TORSDOF 4
ENDMDL
MODEL 3
REMARK VINA RESULT:    -7.259      2.507      6.413
REMARK INTER + INTRA:         -10.109
REMARK INTER:                  -9.029
REMARK INTRA:                  -1.080
REMARK UNBOUND:                -1.153
REMARK  Name = 
REMARK  4 active torsions:
REMARK  status: ('A' for Active; 'I' for Inactive)
REMARK    1  A    between atoms: C_4  and  C_5
REMARK    2  A    between atoms: C_9  and  C_10
REMARK    3  A    between atoms: C_10  and  N_11
REMARK    4  A    between atoms: N_11  and  C_12
REMARK                            x       y       z     vdW  Elec       q    Type
REMARK                         _______ _______ _______ _____ _____    ______ ____
ROOT
ATOM      1  C   UNL     1      44.952   4.502   9.892  0.00  0.00    +0.000 A 
ATOM      2  C   UNL     1      43.572   4.497  10.148  0.00  0.00    +0.000 A 
ATOM      3  C   UNL     1      43.015   5.334  11.119  0.00  0.00    +0.000 A 
ATOM      4  C   UNL     1      43.824   6.219  11.832  0.00  0.00    +0.000 A 
ATOM      5  C   UNL     1      45.205   6.282  11.606  0.00  0.00    +0.000 A 
ATOM      6  C   UNL     1      45.738   5.391  10.653  0.00  0.00    +0.000 A 
ENDROOT
BRANCH   1  10
ATOM      7  C   UNL     1      46.838   1.970   6.952  0.00  0.00    +0.000 A 
ATOM      8  C   UNL     1      46.852   3.349   6.797  0.00  0.00    +0.000 A 
ATOM      9  C   UNL     1      46.218   4.165   7.739  0.00  0.00    +0.000 A 
ATOM     10  C   UNL     1      45.573   3.625   8.871  0.00  0.00    +0.000 A 
ATOM     11  C   UNL     1      45.565   2.225   8.995  0.00  0.00    +0.000 A 
ATOM     12  C   UNL     1      46.187   1.405   8.046  0.00  0.00    +0.000 A 
ENDBRANCH   1  10
BRANCH   5  13
ATOM     13  C   UNL     1      46.111   7.280  12.328  0.00  0.00    +0.000 C 
ATOM     14  C   UNL     1      45.472   8.485  12.987  0.00  0.00    +0.000 C 
ATOM     15  C   UNL     1      46.224   8.677  11.713  0.00  0.00    +0.000 C 
BRANCH  13  16
ATOM     16  N   UNL     1      47.411   6.731  12.748  0.00  0.00    +0.000 N 
ATOM     17  H   UNL     1      48.027   6.463  11.985  0.00  0.00    +0.000 HD
BRANCH  16  18
ATOM     18  C   UNL     1      47.683   6.020  13.930  0.00  0.00    +0.000 A 
ATOM     19  C   UNL     1      47.056   4.834  14.297  0.00  0.00    +0.000 A 
ATOM     20  C   UNL     1      47.356   4.273  15.532  0.00  0.00    +0.000 A 
ATOM     21  N   UNL     1      48.202   4.820  16.433  0.00  0.00    +0.000 NA
ATOM     22  C   UNL     1      48.774   5.986  16.078  0.00  0.00    +0.000 A 
ATOM     23  C   UNL     1      48.543   6.612  14.862  0.00  0.00    +0.000 A 
ENDBRANCH  16  18
ENDBRANCH  13  16
ENDBRANCH   5  13
TORSDOF 4
ENDMDL
MODEL 4
REMARK VINA RESULT:    -6.952      1.757      3.706
REMARK INTER + INTRA:          -9.730
REMARK INTER:                  -8.921
REMARK INTRA:                  -0.809
REMARK UNBOUND:                -1.153
REMARK  Name = 
REMARK  4 active torsions:
REMARK  status: ('A' for Active; 'I' for Inactive)
REMARK    1  A    between atoms: C_4  and  C_5
REMARK    2  A    between atoms: C_9  and  C_10
REMARK    3  A    between atoms: C_10  and  N_11
REMARK    4  A    between atoms: N_11  and  C_12
REMARK                            x       y       z     vdW  Elec       q    Type
REMARK                         _______ _______ _______ _____ _____    ______ ____
ROOT
ATOM      1  C   UNL     1      47.113   5.466  13.846  0.00  0.00    +0.000 A 
ATOM      2  C   UNL     1      47.824   6.440  13.128  0.00  0.00    +0.000 A 
ATOM      3  C   UNL     1      47.355   6.919  11.902  0.00  0.00    +0.000 A 
ATOM      4  C   UNL     1      46.147   6.456  11.382  0.00  0.00    +0.000 A 
ATOM      5  C   UNL     1      45.384   5.497  12.063  0.00  0.00    +0.000 A 
ATOM      6  C   UNL     1      45.911   5.004  13.274  0.00  0.00    +0.000 A 
ENDROOT
BRANCH   1  10
ATOM      7  C   UNL     1      48.427   3.974  17.675  0.00  0.00    +0.000 A 
ATOM      8  C   UNL     1      48.745   5.268  17.283  0.00  0.00    +0.000 A 
ATOM      9  C   UNL     1      48.338   5.739  16.031  0.00  0.00    +0.000 A 
ATOM     10  C   UNL     1      47.586   4.937  15.148  0.00  0.00    +0.000 A 
ATOM     11  C   UNL     1      47.289   3.629  15.567  0.00  0.00    +0.000 A 
ATOM     12  C   UNL     1      47.707   3.150  16.814  0.00  0.00    +0.000 A 
ENDBRANCH   1  10
BRANCH   5  13
ATOM     13  C   UNL     1      44.028   5.011  11.551  0.00  0.00    +0.000 C 
ATOM     14  C   UNL     1      42.925   6.031  11.359  0.00  0.00    +0.000 C 
ATOM     15  C   UNL     1      42.851   5.104  12.525  0.00  0.00    +0.000 C 
BRANCH  13  16
ATOM     16  N   UNL     1      44.072   3.731  10.825  0.00  0.00    +0.000 N 
ATOM     17  H   UNL     1      43.872   2.913  11.393  0.00  0.00    +0.000 HD
BRANCH  16  18
ATOM     18  C   UNL     1      44.865   3.425   9.705  0.00  0.00    +0.000 A 
ATOM     19  C   UNL     1      45.243   4.344   8.733  0.00  0.00    +0.000 A 
ATOM     20  C   UNL     1      45.960   3.896   7.630  0.00  0.00    +0.000 A 
ATOM     21  N   UNL     1      46.295   2.605   7.412  0.00  0.00    +0.000 NA
ATOM     22  C   UNL     1      45.892   1.722   8.344  0.00  0.00    +0.000 A 
ATOM     23  C   UNL     1      45.184   2.081   9.483  0.00  0.00    +0.000 A 
ENDBRANCH  16  18
ENDBRANCH  13  16
ENDBRANCH   5  13
TORSDOF 4
ENDMDL
MODEL 5
REMARK VINA RESULT:    -6.555      2.177      6.212
REMARK INTER + INTRA:          -9.240
REMARK INTER:                  -8.249
REMARK INTRA:                  -0.991
REMARK UNBOUND:                -1.153
REMARK  Name = 
REMARK  4 active torsions:
REMARK  status: ('A' for Active; 'I' for Inactive)
REMARK    1  A    between atoms: C_4  and  C_5
REMARK    2  A    between atoms: C_9  and  C_10
REMARK    3  A    between atoms: C_10  and  N_11
REMARK    4  A    between atoms: N_11  and  C_12
REMARK                            x       y       z     vdW  Elec       q    Type
REMARK                         _______ _______ _______ _____ _____    ______ ____
ROOT
ATOM      1  C   UNL     1      45.196   2.795   9.071  0.00  0.00    +0.000 A 
ATOM      2  C   UNL     1      44.429   1.729   9.567  0.00  0.00    +0.000 A 
ATOM      3  C   UNL     1      43.617   1.887  10.694  0.00  0.00    +0.000 A 
ATOM      4  C   UNL     1      43.532   3.125  11.331  0.00  0.00    +0.000 A 
ATOM      5  C   UNL     1      44.260   4.230  10.869  0.00  0.00    +0.000 A 
ATOM      6  C   UNL     1      45.102   4.021   9.759  0.00  0.00    +0.000 A 
ENDROOT
BRANCH   1  10
ATOM      7  C   UNL     1      47.672   2.341   5.567  0.00  0.00    +0.000 A 
ATOM      8  C   UNL     1      47.611   1.328   6.515  0.00  0.00    +0.000 A 
ATOM      9  C   UNL     1      46.826   1.490   7.661  0.00  0.00    +0.000 A 
ATOM     10  C   UNL     1      46.067   2.658   7.880  0.00  0.00    +0.000 A 
ATOM     11  C   UNL     1      46.158   3.670   6.909  0.00  0.00    +0.000 A 
ATOM     12  C   UNL     1      46.954   3.517   5.767  0.00  0.00    +0.000 A 
ENDBRANCH   1  10
BRANCH   5  13
ATOM     13  C   UNL     1      44.144   5.614  11.507  0.00  0.00    +0.000 C 
ATOM     14  C   UNL     1      43.252   5.774  12.721  0.00  0.00    +0.000 C 
ATOM     15  C   UNL     1      42.782   6.306  11.409  0.00  0.00    +0.000 C 
BRANCH  13  16
ATOM     16  N   UNL     1      45.269   6.518  11.214  0.00  0.00    +0.000 N 
ATOM     17  H   UNL     1      45.599   6.489  10.253  0.00  0.00    +0.000 HD
BRANCH  16  18
ATOM     18  C   UNL     1      46.267   6.938  12.110  0.00  0.00    +0.000 A 
ATOM     19  C   UNL     1      47.291   6.126  12.585  0.00  0.00    +0.000 A 
ATOM     20  C   UNL     1      48.168   6.641  13.533  0.00  0.00    +0.000 A 
ATOM     21  N   UNL     1      48.078   7.881  14.060  0.00  0.00    +0.000 NA
ATOM     22  C   UNL     1      47.061   8.643  13.617  0.00  0.00    +0.000 A 
ATOM     23  C   UNL     1      46.146   8.218  12.664  0.00  0.00    +0.000 A 
ENDBRANCH  16  18
ENDBRANCH  13  16
ENDBRANCH   5  13
TORSDOF 4
ENDMDL
MODEL 6
REMARK VINA RESULT:    -5.973      3.131      6.923
REMARK INTER + INTRA:          -8.522
REMARK INTER:                  -7.570
REMARK INTRA:                  -0.953
REMARK UNBOUND:                -1.153
REMARK  Name = 
REMARK  4 active torsions:
REMARK  status: ('A' for Active; 'I' for Inactive)
REMARK    1  A    between atoms: C_4  and  C_5
REMARK    2  A    between atoms: C_9  and  C_10
REMARK    3  A    between atoms: C_10  and  N_11
REMARK    4  A    between atoms: N_11  and  C_12
REMARK                            x       y       z     vdW  Elec       q    Type
REMARK                         _______ _______ _______ _____ _____    ______ ____
ROOT
ATOM      1  C   UNL     1      45.485   6.284  11.373  0.00  0.00    +0.000 A 
ATOM      2  C   UNL     1      44.681   7.432  11.294  0.00  0.00    +0.000 A 
ATOM      3  C   UNL     1      44.949   8.557  12.080  0.00  0.00    +0.000 A 
ATOM      4  C   UNL     1      46.048   8.567  12.940  0.00  0.00    +0.000 A 
ATOM      5  C   UNL     1      46.896   7.457  13.046  0.00  0.00    +0.000 A 
ATOM      6  C   UNL     1      46.568   6.325  12.273  0.00  0.00    +0.000 A 
ENDROOT
BRANCH   1  10
ATOM      7  C   UNL     1      44.812   2.748   8.994  0.00  0.00    +0.000 A 
ATOM      8  C   UNL     1      45.408   3.867   8.428  0.00  0.00    +0.000 A 
ATOM      9  C   UNL     1      45.601   5.020   9.196  0.00  0.00    +0.000 A 
ATOM     10  C   UNL     1      45.224   5.076  10.554  0.00  0.00    +0.000 A 
ATOM     11  C   UNL     1      44.614   3.932  11.096  0.00  0.00    +0.000 A 
ATOM     12  C   UNL     1      44.406   2.782  10.325  0.00  0.00    +0.000 A 
ENDBRANCH   1  10
BRANCH   5  13
ATOM     13  C   UNL     1      48.141   7.457  13.933  0.00  0.00    +0.000 C 
ATOM     14  C   UNL     1      48.561   8.759  14.583  0.00  0.00    +0.000 C 
ATOM     15  C   UNL     1      49.350   8.247  13.425  0.00  0.00    +0.000 C 
BRANCH  13  16
ATOM     16  N   UNL     1      48.505   6.137  14.474  0.00  0.00    +0.000 N 
ATOM     17  H   UNL     1      48.601   5.402  13.778  0.00  0.00    +0.000 HD
BRANCH  16  18
ATOM     18  C   UNL     1      48.184   5.629  15.746  0.00  0.00    +0.000 A 
ATOM     19  C   UNL     1      48.693   6.124  16.942  0.00  0.00    +0.000 A 
ATOM     20  C   UNL     1      48.360   5.479  18.127  0.00  0.00    +0.000 A 
ATOM     21  N   UNL     1      47.593   4.370  18.203  0.00  0.00    +0.000 NA
ATOM     22  C   UNL     1      47.138   3.882  17.034  0.00  0.00    +0.000 A 
ATOM     23  C   UNL     1      47.408   4.466  15.804  0.00  0.00    +0.000 A 
ENDBRANCH  16  18
ENDBRANCH  13  16
ENDBRANCH   5  13
TORSDOF 4
ENDMDL
MODEL 7
REMARK VINA RESULT:    -5.912      3.286      7.273
REMARK INTER + INTRA:          -8.447
REMARK INTER:                  -7.523
REMARK INTRA:                  -0.925
REMARK UNBOUND:                -1.153
REMARK  Name = 
REMARK  4 active torsions:
REMARK  status: ('A' for Active; 'I' for Inactive)
REMARK    1  A    between atoms: C_4  and  C_5
REMARK    2  A    between atoms: C_9  and  C_10
REMARK    3  A    between atoms: C_10  and  N_11
REMARK    4  A    between atoms: N_11  and  C_12
REMARK                            x       y       z     vdW  Elec       q    Type
REMARK                         _______ _______ _______ _____ _____    ______ ____
ROOT
ATOM      1  C   UNL     1      45.732   6.279  11.260  0.00  0.00    +0.000 A 
ATOM      2  C   UNL     1      44.790   7.204  11.736  0.00  0.00    +0.000 A 
ATOM      3  C   UNL     1      45.179   8.290  12.525  0.00  0.00    +0.000 A 
ATOM      4  C   UNL     1      46.526   8.490  12.828  0.00  0.00    +0.000 A 
ATOM      5  C   UNL     1      47.513   7.611  12.365  0.00  0.00    +0.000 A 
ATOM      6  C   UNL     1      47.078   6.502  11.611  0.00  0.00    +0.000 A 
ENDROOT
BRANCH   1  10
ATOM      7  C   UNL     1      44.701   2.868   8.827  0.00  0.00    +0.000 A 
ATOM      8  C   UNL     1      45.393   3.936   8.273  0.00  0.00    +0.000 A 
ATOM      9  C   UNL     1      45.704   5.051   9.059  0.00  0.00    +0.000 A 
ATOM     10  C   UNL     1      45.349   5.117  10.422  0.00  0.00    +0.000 A 
ATOM     11  C   UNL     1      44.639   4.026  10.952  0.00  0.00    +0.000 A 
ATOM     12  C   UNL     1      44.314   2.915  10.164  0.00  0.00    +0.000 A 
ENDBRANCH   1  10
BRANCH   5  13
ATOM     13  C   UNL     1      49.002   7.833  12.629  0.00  0.00    +0.000 C 
ATOM     14  C   UNL     1      49.630   9.129  12.158  0.00  0.00    +0.000 C 
ATOM     15  C   UNL     1      49.920   7.875  11.405  0.00  0.00    +0.000 C 
BRANCH  13  16
ATOM     16  N   UNL     1      49.554   7.030  13.733  0.00  0.00    +0.000 N 
ATOM     17  H   UNL     1      49.812   6.080  13.481  0.00  0.00    +0.000 HD
BRANCH  16  18
ATOM     18  C   UNL     1      49.251   7.157  15.100  0.00  0.00    +0.000 A 
ATOM     19  C   UNL     1      48.856   6.105  15.920  0.00  0.00    +0.000 A 
ATOM     20  C   UNL     1      48.506   6.378  17.236  0.00  0.00    +0.000 A 
ATOM     21  N   UNL     1      48.488   7.615  17.780  0.00  0.00    +0.000 NA
ATOM     22  C   UNL     1      48.839   8.626  16.964  0.00  0.00    +0.000 A 
ATOM     23  C   UNL     1      49.215   8.447  15.641  0.00  0.00    +0.000 A 
ENDBRANCH  16  18
ENDBRANCH  13  16
ENDBRANCH   5  13
TORSDOF 4
ENDMDL
MODEL 8
REMARK VINA RESULT:    -5.805      4.900      7.735
REMARK INTER + INTRA:          -8.314
REMARK INTER:                  -7.505
REMARK INTRA:                  -0.809
REMARK UNBOUND:                -1.153
REMARK  Name = 
REMARK  4 active torsions:
REMARK  status: ('A' for Active; 'I' for Inactive)
REMARK    1  A    between atoms: C_4  and  C_5
REMARK    2  A    between atoms: C_9  and  C_10
REMARK    3  A    between atoms: C_10  and  N_11
REMARK    4  A    between atoms: N_11  and  C_12
REMARK                            x       y       z     vdW  Elec       q    Type
REMARK                         _______ _______ _______ _____ _____    ______ ____
ROOT
ATOM      1  C   UNL     1      47.245   5.648  13.681  0.00  0.00    +0.000 A 
ATOM      2  C   UNL     1      48.105   6.736  13.465  0.00  0.00    +0.000 A 
ATOM      3  C   UNL     1      48.986   7.169  14.460  0.00  0.00    +0.000 A 
ATOM      4  C   UNL     1      49.048   6.500  15.683  0.00  0.00    +0.000 A 
ATOM      5  C   UNL     1      48.228   5.395  15.948  0.00  0.00    +0.000 A 
ATOM      6  C   UNL     1      47.320   5.016  14.938  0.00  0.00    +0.000 A 
ENDROOT
BRANCH   1  10
ATOM      7  C   UNL     1      44.559   4.231  10.616  0.00  0.00    +0.000 A 
ATOM      8  C   UNL     1      45.181   5.465  10.483  0.00  0.00    +0.000 A 
ATOM      9  C   UNL     1      46.031   5.931  11.491  0.00  0.00    +0.000 A 
ATOM     10  C   UNL     1      46.299   5.168  12.646  0.00  0.00    +0.000 A 
ATOM     11  C   UNL     1      45.646   3.928  12.758  0.00  0.00    +0.000 A 
ATOM     12  C   UNL     1      44.783   3.465  11.758  0.00  0.00    +0.000 A 
ENDBRANCH   1  10
BRANCH   5  13
ATOM     13  C   UNL     1      48.312   4.603  17.253  0.00  0.00    +0.000 C 
ATOM     14  C   UNL     1      47.260   3.547  17.522  0.00  0.00    +0.000 C 
ATOM     15  C   UNL     1      47.194   4.835  18.272  0.00  0.00    +0.000 C 
BRANCH  13  16
ATOM     16  N   UNL     1      49.650   4.576  17.866  0.00  0.00    +0.000 N 
ATOM     17  H   UNL     1      50.077   5.490  17.996  0.00  0.00    +0.000 HD
BRANCH  16  18
ATOM     18  C   UNL     1      50.605   3.550  17.760  0.00  0.00    +0.000 A 
ATOM     19  C   UNL     1      50.334   2.269  17.292  0.00  0.00    +0.000 A 
ATOM     20  C   UNL     1      51.350   1.320  17.315  0.00  0.00    +0.000 A 
ATOM     21  N   UNL     1      52.592   1.543  17.797  0.00  0.00    +0.000 NA
ATOM     22  C   UNL     1      52.827   2.778  18.280  0.00  0.00    +0.000 A 
ATOM     23  C   UNL     1      51.879   3.791  18.285  0.00  0.00    +0.000 A 
ENDBRANCH  16  18
ENDBRANCH  13  16
ENDBRANCH   5  13
TORSDOF 4
ENDMDL
MODEL 9
REMARK VINA RESULT:    -5.664      4.962      8.339
REMARK INTER + INTRA:          -8.141
REMARK INTER:                  -7.341
REMARK INTRA:                  -0.801
REMARK UNBOUND:                -1.153
REMARK  Name = 
REMARK  4 active torsions:
REMARK  status: ('A' for Active; 'I' for Inactive)
REMARK    1  A    between atoms: C_4  and  C_5
REMARK    2  A    between atoms: C_9  and  C_10
REMARK    3  A    between atoms: C_10  and  N_11
REMARK    4  A    between atoms: N_11  and  C_12
REMARK                            x       y       z     vdW  Elec       q    Type
REMARK                         _______ _______ _______ _____ _____    ______ ____
ROOT
ATOM      1  C   UNL     1      46.936   5.380  13.593  0.00  0.00    +0.000 A 
ATOM      2  C   UNL     1      47.825   6.446  13.385  0.00  0.00    +0.000 A 
ATOM      3  C   UNL     1      48.663   6.898  14.409  0.00  0.00    +0.000 A 
ATOM      4  C   UNL     1      48.652   6.269  15.654  0.00  0.00    +0.000 A 
ATOM      5  C   UNL     1      47.800   5.187  15.914  0.00  0.00    +0.000 A 
ATOM      6  C   UNL     1      46.937   4.790  14.873  0.00  0.00    +0.000 A 
ENDROOT
BRANCH   1  10
ATOM      7  C   UNL     1      44.241   3.940  10.547  0.00  0.00    +0.000 A 
ATOM      8  C   UNL     1      44.558   3.138  11.634  0.00  0.00    +0.000 A 
ATOM      9  C   UNL     1      45.452   3.599  12.607  0.00  0.00    +0.000 A 
ATOM     10  C   UNL     1      46.034   4.881  12.528  0.00  0.00    +0.000 A 
ATOM     11  C   UNL     1      45.703   5.666  11.410  0.00  0.00    +0.000 A 
ATOM     12  C   UNL     1      44.820   5.201  10.428  0.00  0.00    +0.000 A 
ENDBRANCH   1  10
BRANCH   5  13
ATOM     13  C   UNL     1      47.805   4.439  17.247  0.00  0.00    +0.000 C 
ATOM     14  C   UNL     1      48.980   3.535  17.559  0.00  0.00    +0.000 C 
ATOM     15  C   UNL     1      47.676   2.915  17.182  0.00  0.00    +0.000 C 
BRANCH  13  16
ATOM     16  N   UNL     1      46.958   5.042  18.289  0.00  0.00    +0.000 N 
ATOM     17  H   UNL     1      45.972   5.106  18.052  0.00  0.00    +0.000 HD
BRANCH  16  18
ATOM     18  C   UNL     1      47.344   6.009  19.233  0.00  0.00    +0.000 A 
ATOM     19  C   UNL     1      47.398   7.376  18.984  0.00  0.00    +0.000 A 
ATOM     20  C   UNL     1      47.876   8.220  19.979  0.00  0.00    +0.000 A 
ATOM     21  N   UNL     1      48.332   7.801  21.180  0.00  0.00    +0.000 NA
ATOM     22  C   UNL     1      48.307   6.472  21.393  0.00  0.00    +0.000 A 
ATOM     23  C   UNL     1      47.835   5.557  20.463  0.00  0.00    +0.000 A 
ENDBRANCH  16  18
ENDBRANCH  13  16
ENDBRANCH   5  13
TORSDOF 4
ENDMDL
