MODEL 1
REMARK VINA RESULT:    -8.791      0.000      0.000
REMARK INTER + INTRA:         -13.566
REMARK INTER:                 -12.388
REMARK INTRA:                  -1.179
REMARK UNBOUND:                -1.179
REMARK  Name = 
REMARK  8 active torsions:
REMARK  status: ('A' for Active; 'I' for Inactive)
REMARK    1  A    between atoms: C_1  and  C_2
REMARK    2  A    between atoms: C_6  and  C_7
REMARK    3  A    between atoms: C_7  and  N_8
REMARK    4  A    between atoms: N_8  and  C_9
REMARK    5  A    between atoms: C_9  and  C_10
REMARK    6  A    between atoms: C_13  and  C_14
REMARK    7  A    between atoms: C_14  and  N_15
REMARK    8  A    between atoms: C_16  and  C_18
REMARK                            x       y       z     vdW  Elec       q    Type
REMARK                         _______ _______ _______ _____ _____    ______ ____
ROOT
ATOM      1  C   UNL     1      44.533   4.002  12.494  0.00  0.00    +0.000 A 
ATOM      2  C   UNL     1      45.872   3.730  12.838  0.00  0.00    +0.000 A 
ATOM      3  C   UNL     1      46.755   4.759  13.184  0.00  0.00    +0.000 A 
ATOM      4  C   UNL     1      46.320   6.088  13.196  0.00  0.00    +0.000 A 
ATOM      5  C   UNL     1      44.996   6.367  12.829  0.00  0.00    +0.000 A 
ATOM      6  C   UNL     1      44.113   5.338  12.488  0.00  0.00    +0.000 A 
ATOM      7 CL   UNL     1      42.494   5.797  12.084  0.00  0.00    +0.000 Cl
ENDROOT
BRANCH   1   8
ATOM      8  C   UNL     1      43.614   2.845  12.163  0.00  0.00    +0.000 C 
BRANCH   8   9
ATOM      9  N   UNL     1      43.751   2.366  10.787  0.00  0.00    +0.000 NA
ATOM     10  H   UNL     1      44.549   1.732  10.737  0.00  0.00    +0.000 HD
BRANCH   9  11
ATOM     11  C   UNL     1      43.987   3.456   9.834  0.00  0.00    +0.000 C 
BRANCH  11  17
ATOM     12  C   UNL     1      46.834  -0.074   7.661  0.00  0.00    +0.000 C 
ATOM     13  C   UNL     1      46.459   1.370   7.800  0.00  0.00    +0.000 A 
ATOM     14  C   UNL     1      47.096   2.362   7.049  0.00  0.00    +0.000 A 
ATOM     15  C   UNL     1      46.735   3.702   7.199  0.00  0.00    +0.000 A 
ATOM     16  C   UNL     1      45.734   4.065   8.102  0.00  0.00    +0.000 A 
ATOM     17  C   UNL     1      45.085   3.087   8.865  0.00  0.00    +0.000 A 
ATOM     18  C   UNL     1      45.451   1.741   8.699  0.00  0.00    +0.000 A 
ENDBRANCH  11  17
ENDBRANCH   9  11
ENDBRANCH   8   9
ENDBRANCH   1   8
BRANCH   4  19
ATOM     19  C   UNL     1      47.260   7.213  13.543  0.00  0.00    +0.000 C 
BRANCH  19  20
ATOM     20  N   UNL     1      47.722   7.091  14.901  0.00  0.00    +0.000 N 
ATOM     21  C   UNL     1      49.052   6.929  15.189  0.00  0.00    +0.000 C 
ATOM     22  O   UNL     1      49.911   6.919  14.312  0.00  0.00    +0.000 OA
ATOM     23  H   UNL     1      47.028   6.863  15.607  0.00  0.00    +0.000 HD
BRANCH  21  24
ATOM     24  C   UNL     1      49.404   6.832  16.612  0.00  0.00    +0.000 A 
ATOM     25  C   UNL     1      50.271   7.764  17.167  0.00  0.00    +0.000 A 
ATOM     26  S   UNL     1      50.534   7.543  18.838  0.00  0.00    +0.000 S 
ATOM     27  C   UNL     1      49.541   6.162  18.868  0.00  0.00    +0.000 A 
ATOM     28  N   UNL     1      49.353   5.461  20.017  0.00  0.00    +0.000 NA
ATOM     29  C   UNL     1      48.603   4.417  19.889  0.00  0.00    +0.000 A 
ATOM     30  N   UNL     1      48.018   4.017  18.715  0.00  0.00    +0.000 N 
ATOM     31  C   UNL     1      48.152   4.711  17.539  0.00  0.00    +0.000 A 
ATOM     32  O   UNL     1      47.577   4.352  16.515  0.00  0.00    +0.000 OA
ATOM     33  C   UNL     1      49.001   5.887  17.622  0.00  0.00    +0.000 A 
ATOM     34  H   UNL     1      47.433   3.194  18.685  0.00  0.00    +0.000 HD
ENDBRANCH  21  24
ENDBRANCH  19  20
ENDBRANCH   4  19
TORSDOF 7
ENDMDL
MODEL 2
REMARK VINA RESULT:    -8.749      1.262      1.675
REMARK INTER + INTRA:         -13.509
REMARK INTER:                 -12.415
REMARK INTRA:                  -1.094
REMARK UNBOUND:                -1.179
REMARK  Name = 
REMARK  8 active torsions:
REMARK  status: ('A' for Active; 'I' for Inactive)
REMARK    1  A    between atoms: C_1  and  C_2
REMARK    2  A    between atoms: C_6  and  C_7
REMARK    3  A    between atoms: C_7  and  N_8
REMARK    4  A    between atoms: N_8  and  C_9
REMARK    5  A    between atoms: C_9  and  C_10
REMARK    6  A    between atoms: C_13  and  C_14
REMARK    7  A    between atoms: C_14  and  N_15
REMARK    8  A    between atoms: C_16  and  C_18
REMARK                            x       y       z     vdW  Elec       q    Type
REMARK                         _______ _______ _______ _____ _____    ______ ____
ROOT
ATOM      1  C   UNL     1      44.352   6.230  11.750  0.00  0.00    +0.000 A 
ATOM      2  C   UNL     1      44.469   7.616  11.530  0.00  0.00    +0.000 A 
ATOM      3  C   UNL     1      45.505   8.358  12.108  0.00  0.00    +0.000 A 
ATOM      4  C   UNL     1      46.454   7.730  12.920  0.00  0.00    +0.000 A 
ATOM      5  C   UNL     1      46.329   6.356  13.164  0.00  0.00    +0.000 A 
ATOM      6  C   UNL     1      45.296   5.614  12.583  0.00  0.00    +0.000 A 
ATOM      7 CL   UNL     1      45.259   3.918  12.927  0.00  0.00    +0.000 Cl
ENDROOT
BRANCH   1   8
ATOM      8  C   UNL     1      43.231   5.473  11.069  0.00  0.00    +0.000 C 
BRANCH   8   9
ATOM      9  N   UNL     1      43.616   4.899   9.778  0.00  0.00    +0.000 NA
ATOM     10  H   UNL     1      42.826   4.976   9.136  0.00  0.00    +0.000 HD
BRANCH   9  11
ATOM     11  C   UNL     1      43.971   3.479   9.878  0.00  0.00    +0.000 C 
BRANCH  11  17
ATOM     12  C   UNL     1      46.856   0.016   7.648  0.00  0.00    +0.000 C 
ATOM     13  C   UNL     1      46.467   1.454   7.813  0.00  0.00    +0.000 A 
ATOM     14  C   UNL     1      47.099   2.466   7.083  0.00  0.00    +0.000 A 
ATOM     15  C   UNL     1      46.725   3.799   7.258  0.00  0.00    +0.000 A 
ATOM     16  C   UNL     1      45.719   4.136   8.164  0.00  0.00    +0.000 A 
ATOM     17  C   UNL     1      45.076   3.138   8.906  0.00  0.00    +0.000 A 
ATOM     18  C   UNL     1      45.454   1.800   8.716  0.00  0.00    +0.000 A 
ENDBRANCH  11  17
ENDBRANCH   9  11
ENDBRANCH   8   9
ENDBRANCH   1   8
BRANCH   4  19
ATOM     19  C   UNL     1      47.565   8.513  13.570  0.00  0.00    +0.000 C 
BRANCH  19  20
ATOM     20  N   UNL     1      47.854   7.996  14.882  0.00  0.00    +0.000 N 
ATOM     21  C   UNL     1      48.949   7.205  15.110  0.00  0.00    +0.000 C 
ATOM     22  O   UNL     1      49.751   6.933  14.222  0.00  0.00    +0.000 OA
ATOM     23  H   UNL     1      47.099   8.009  15.561  0.00  0.00    +0.000 HD
BRANCH  21  24
ATOM     24  C   UNL     1      49.149   6.750  16.493  0.00  0.00    +0.000 A 
ATOM     25  C   UNL     1      49.770   7.592  17.407  0.00  0.00    +0.000 A 
ATOM     26  S   UNL     1      49.877   6.936  18.977  0.00  0.00    +0.000 S 
ATOM     27  C   UNL     1      49.145   5.482  18.480  0.00  0.00    +0.000 A 
ATOM     28  N   UNL     1      48.954   4.460  19.355  0.00  0.00    +0.000 NA
ATOM     29  C   UNL     1      48.418   3.406  18.836  0.00  0.00    +0.000 A 
ATOM     30  N   UNL     1      48.050   3.286  17.520  0.00  0.00    +0.000 N 
ATOM     31  C   UNL     1      48.192   4.302  16.609  0.00  0.00    +0.000 A 
ATOM     32  O   UNL     1      47.809   4.179  15.449  0.00  0.00    +0.000 OA
ATOM     33  C   UNL     1      48.807   5.507  17.137  0.00  0.00    +0.000 A 
ATOM     34  H   UNL     1      47.626   2.434  17.180  0.00  0.00    +0.000 HD
ENDBRANCH  21  24
ENDBRANCH  19  20
ENDBRANCH   4  19
TORSDOF 7
ENDMDL
MODEL 3
REMARK VINA RESULT:    -8.635      1.179      1.230
REMARK INTER + INTRA:         -13.347
REMARK INTER:                 -12.392
REMARK INTRA:                  -0.955
REMARK UNBOUND:                -1.179
REMARK  Name = 
REMARK  8 active torsions:
REMARK  status: ('A' for Active; 'I' for Inactive)
REMARK    1  A    between atoms: C_1  and  C_2
REMARK    2  A    between atoms: C_6  and  C_7
REMARK    3  A    between atoms: C_7  and  N_8
REMARK    4  A    between atoms: N_8  and  C_9
REMARK    5  A    between atoms: C_9  and  C_10
REMARK    6  A    between atoms: C_13  and  C_14
REMARK    7  A    between atoms: C_14  and  N_15
REMARK    8  A    between atoms: C_16  and  C_18
REMARK                            x       y       z     vdW  Elec       q    Type
REMARK                         _______ _______ _______ _____ _____    ______ ____
ROOT
ATOM      1  C   UNL     1      44.763   4.021  12.230  0.00  0.00    +0.000 A 
ATOM      2  C   UNL     1      45.835   3.351  12.850  0.00  0.00    +0.000 A 
ATOM      3  C   UNL     1      46.905   4.057  13.411  0.00  0.00    +0.000 A 
ATOM      4  C   UNL     1      46.928   5.454  13.369  0.00  0.00    +0.000 A 
ATOM      5  C   UNL     1      45.877   6.126  12.730  0.00  0.00    +0.000 A 
ATOM      6  C   UNL     1      44.806   5.421  12.173  0.00  0.00    +0.000 A 
ATOM      7 CL   UNL     1      43.548   6.356  11.440  0.00  0.00    +0.000 Cl
ENDROOT
BRANCH   1   8
ATOM      8  C   UNL     1      43.615   3.206  11.671  0.00  0.00    +0.000 C 
BRANCH   8   9
ATOM      9  N   UNL     1      43.925   2.564  10.393  0.00  0.00    +0.000 NA
ATOM     10  H   UNL     1      44.694   1.908  10.532  0.00  0.00    +0.000 HD
BRANCH   9  11
ATOM     11  C   UNL     1      44.341   3.526   9.367  0.00  0.00    +0.000 C 
BRANCH  11  17
ATOM     12  C   UNL     1      46.791  -0.522   7.664  0.00  0.00    +0.000 C 
ATOM     13  C   UNL     1      46.592   0.963   7.646  0.00  0.00    +0.000 A 
ATOM     14  C   UNL     1      47.368   1.790   6.828  0.00  0.00    +0.000 A 
ATOM     15  C   UNL     1      47.170   3.172   6.832  0.00  0.00    +0.000 A 
ATOM     16  C   UNL     1      46.197   3.742   7.655  0.00  0.00    +0.000 A 
ATOM     17  C   UNL     1      45.411   2.931   8.483  0.00  0.00    +0.000 A 
ATOM     18  C   UNL     1      45.614   1.542   8.464  0.00  0.00    +0.000 A 
ENDBRANCH  11  17
ENDBRANCH   9  11
ENDBRANCH   8   9
ENDBRANCH   1   8
BRANCH   4  19
ATOM     19  C   UNL     1      48.080   6.233  13.948  0.00  0.00    +0.000 C 
BRANCH  19  20
ATOM     20  N   UNL     1      47.900   6.437  15.362  0.00  0.00    +0.000 N 
ATOM     21  C   UNL     1      48.971   6.495  16.215  0.00  0.00    +0.000 C 
ATOM     22  O   UNL     1      50.128   6.417  15.812  0.00  0.00    +0.000 OA
ATOM     23  H   UNL     1      46.972   6.270  15.739  0.00  0.00    +0.000 HD
BRANCH  21  24
ATOM     24  C   UNL     1      48.663   6.723  17.633  0.00  0.00    +0.000 A 
ATOM     25  C   UNL     1      48.356   8.005  18.070  0.00  0.00    +0.000 A 
ATOM     26  S   UNL     1      47.973   8.089  19.729  0.00  0.00    +0.000 S 
ATOM     27  C   UNL     1      48.254   6.424  19.935  0.00  0.00    +0.000 A 
ATOM     28  N   UNL     1      48.123   5.837  21.155  0.00  0.00    +0.000 NA
ATOM     29  C   UNL     1      48.398   4.576  21.173  0.00  0.00    +0.000 A 
ATOM     30  N   UNL     1      48.786   3.846  20.078  0.00  0.00    +0.000 N 
ATOM     31  C   UNL     1      48.899   4.387  18.822  0.00  0.00    +0.000 A 
ATOM     32  O   UNL     1      49.203   3.697  17.853  0.00  0.00    +0.000 OA
ATOM     33  C   UNL     1      48.617   5.810  18.747  0.00  0.00    +0.000 A 
ATOM     34  H   UNL     1      48.977   2.857  20.159  0.00  0.00    +0.000 HD
ENDBRANCH  21  24
ENDBRANCH  19  20
ENDBRANCH   4  19
TORSDOF 7
ENDMDL
MODEL 4
REMARK VINA RESULT:    -8.162      1.972      2.672
REMARK INTER + INTRA:         -12.681
REMARK INTER:                 -11.735
REMARK INTRA:                  -0.946
REMARK UNBOUND:                -1.179
REMARK  Name = 
REMARK  8 active torsions:
REMARK  status: ('A' for Active; 'I' for Inactive)
REMARK    1  A    between atoms: C_1  and  C_2
REMARK    2  A    between atoms: C_6  and  C_7
REMARK    3  A    between atoms: C_7  and  N_8
REMARK    4  A    between atoms: N_8  and  C_9
REMARK    5  A    between atoms: C_9  and  C_10
REMARK    6  A    between atoms: C_13  and  C_14
REMARK    7  A    between atoms: C_14  and  N_15
REMARK    8  A    between atoms: C_16  and  C_18
REMARK                            x       y       z     vdW  Elec       q    Type
REMARK                         _______ _______ _______ _____ _____    ______ ____
ROOT
ATOM      1  C   UNL     1      44.701   5.662  11.455  0.00  0.00    +0.000 A 
ATOM      2  C   UNL     1      45.070   7.020  11.394  0.00  0.00    +0.000 A 
ATOM      3  C   UNL     1      46.182   7.501  12.093  0.00  0.00    +0.000 A 
ATOM      4  C   UNL     1      46.956   6.635  12.871  0.00  0.00    +0.000 A 
ATOM      5  C   UNL     1      46.579   5.288  12.957  0.00  0.00    +0.000 A 
ATOM      6  C   UNL     1      45.470   4.806  12.254  0.00  0.00    +0.000 A 
ATOM      7 CL   UNL     1      45.119   3.118  12.408  0.00  0.00    +0.000 Cl
ENDROOT
BRANCH   1   8
ATOM      8  C   UNL     1      43.510   5.190  10.648  0.00  0.00    +0.000 C 
BRANCH   8   9
ATOM      9  N   UNL     1      43.870   4.304   9.539  0.00  0.00    +0.000 NA
ATOM     10  H   UNL     1      43.912   3.345   9.885  0.00  0.00    +0.000 HD
BRANCH   9  11
ATOM     11  C   UNL     1      45.181   4.628   8.965  0.00  0.00    +0.000 C 
BRANCH  11  17
ATOM     12  C   UNL     1      47.757   2.698   5.101  0.00  0.00    +0.000 C 
ATOM     13  C   UNL     1      47.030   2.489   6.395  0.00  0.00    +0.000 A 
ATOM     14  C   UNL     1      46.898   1.216   6.957  0.00  0.00    +0.000 A 
ATOM     15  C   UNL     1      46.211   1.044   8.160  0.00  0.00    +0.000 A 
ATOM     16  C   UNL     1      45.648   2.141   8.813  0.00  0.00    +0.000 A 
ATOM     17  C   UNL     1      45.767   3.425   8.265  0.00  0.00    +0.000 A 
ATOM     18  C   UNL     1      46.468   3.586   7.060  0.00  0.00    +0.000 A 
ENDBRANCH  11  17
ENDBRANCH   9  11
ENDBRANCH   8   9
ENDBRANCH   1   8
BRANCH   4  19
ATOM     19  C   UNL     1      48.143   7.137  13.650  0.00  0.00    +0.000 C 
BRANCH  19  20
ATOM     20  N   UNL     1      47.997   6.841  15.051  0.00  0.00    +0.000 N 
ATOM     21  C   UNL     1      49.084   6.554  15.836  0.00  0.00    +0.000 C 
ATOM     22  O   UNL     1      50.229   6.575  15.394  0.00  0.00    +0.000 OA
ATOM     23  H   UNL     1      47.068   6.591  15.377  0.00  0.00    +0.000 HD
BRANCH  21  24
ATOM     24  C   UNL     1      48.812   6.285  17.254  0.00  0.00    +0.000 A 
ATOM     25  C   UNL     1      49.039   5.014  17.765  0.00  0.00    +0.000 A 
ATOM     26  S   UNL     1      48.724   4.882  19.436  0.00  0.00    +0.000 S 
ATOM     27  C   UNL     1      48.223   6.505  19.526  0.00  0.00    +0.000 A 
ATOM     28  N   UNL     1      47.792   7.040  20.699  0.00  0.00    +0.000 NA
ATOM     29  C   UNL     1      47.411   8.271  20.616  0.00  0.00    +0.000 A 
ATOM     30  N   UNL     1      47.430   9.018  19.465  0.00  0.00    +0.000 N 
ATOM     31  C   UNL     1      47.888   8.531  18.267  0.00  0.00    +0.000 A 
ATOM     32  O   UNL     1      47.937   9.240  17.265  0.00  0.00    +0.000 OA
ATOM     33  C   UNL     1      48.314   7.143  18.299  0.00  0.00    +0.000 A 
ATOM     34  H   UNL     1      47.127   9.982  19.472  0.00  0.00    +0.000 HD
ENDBRANCH  21  24
ENDBRANCH  19  20
ENDBRANCH   4  19
TORSDOF 7
ENDMDL
MODEL 5
REMARK VINA RESULT:    -8.027      2.185      3.074
REMARK INTER + INTRA:         -12.490
REMARK INTER:                 -11.367
REMARK INTRA:                  -1.123
REMARK UNBOUND:                -1.179
REMARK  Name = 
REMARK  8 active torsions:
REMARK  status: ('A' for Active; 'I' for Inactive)
REMARK    1  A    between atoms: C_1  and  C_2
REMARK    2  A    between atoms: C_6  and  C_7
REMARK    3  A    between atoms: C_7  and  N_8
REMARK    4  A    between atoms: N_8  and  C_9
REMARK    5  A    between atoms: C_9  and  C_10
REMARK    6  A    between atoms: C_13  and  C_14
REMARK    7  A    between atoms: C_14  and  N_15
REMARK    8  A    between atoms: C_16  and  C_18
REMARK                            x       y       z     vdW  Elec       q    Type
REMARK                         _______ _______ _______ _____ _____    ______ ____
ROOT
ATOM      1  C   UNL     1      45.430   5.397  11.818  0.00  0.00    +0.000 A 
ATOM      2  C   UNL     1      46.508   6.164  12.301  0.00  0.00    +0.000 A 
ATOM      3  C   UNL     1      47.201   5.793  13.458  0.00  0.00    +0.000 A 
ATOM      4  C   UNL     1      46.833   4.642  14.163  0.00  0.00    +0.000 A 
ATOM      5  C   UNL     1      45.744   3.889  13.703  0.00  0.00    +0.000 A 
ATOM      6  C   UNL     1      45.055   4.257  12.543  0.00  0.00    +0.000 A 
ATOM      7 CL   UNL     1      43.749   3.235  12.050  0.00  0.00    +0.000 Cl
ENDROOT
BRANCH   1   8
ATOM      8  C   UNL     1      44.740   5.827  10.540  0.00  0.00    +0.000 C 
BRANCH   8   9
ATOM      9  N   UNL     1      45.403   5.340   9.329  0.00  0.00    +0.000 NA
ATOM     10  H   UNL     1      45.324   6.051   8.602  0.00  0.00    +0.000 HD
BRANCH   9  11
ATOM     11  C   UNL     1      44.795   4.108   8.813  0.00  0.00    +0.000 C 
BRANCH  11  17
ATOM     12  C   UNL     1      46.745  -0.402   7.741  0.00  0.00    +0.000 C 
ATOM     13  C   UNL     1      46.759   1.085   7.548  0.00  0.00    +0.000 A 
ATOM     14  C   UNL     1      47.688   1.699   6.703  0.00  0.00    +0.000 A 
ATOM     15  C   UNL     1      47.686   3.086   6.543  0.00  0.00    +0.000 A 
ATOM     16  C   UNL     1      46.758   3.873   7.226  0.00  0.00    +0.000 A 
ATOM     17  C   UNL     1      45.820   3.277   8.079  0.00  0.00    +0.000 A 
ATOM     18  C   UNL     1      45.826   1.880   8.225  0.00  0.00    +0.000 A 
ENDBRANCH  11  17
ENDBRANCH   9  11
ENDBRANCH   8   9
ENDBRANCH   1   8
BRANCH   4  19
ATOM     19  C   UNL     1      47.551   4.238  15.424  0.00  0.00    +0.000 C 
BRANCH  19  20
ATOM     20  N   UNL     1      47.527   5.305  16.390  0.00  0.00    +0.000 N 
ATOM     21  C   UNL     1      48.686   5.854  16.873  0.00  0.00    +0.000 C 
ATOM     22  O   UNL     1      49.791   5.493  16.478  0.00  0.00    +0.000 OA
ATOM     23  H   UNL     1      46.659   5.453  16.894  0.00  0.00    +0.000 HD
BRANCH  21  24
ATOM     24  C   UNL     1      48.536   6.948  17.842  0.00  0.00    +0.000 A 
ATOM     25  C   UNL     1      48.563   6.666  19.202  0.00  0.00    +0.000 A 
ATOM     26  S   UNL     1      48.429   8.049  20.190  0.00  0.00    +0.000 S 
ATOM     27  C   UNL     1      48.277   9.069  18.837  0.00  0.00    +0.000 A 
ATOM     28  N   UNL     1      48.103  10.409  18.987  0.00  0.00    +0.000 NA
ATOM     29  C   UNL     1      47.969  11.057  17.878  0.00  0.00    +0.000 A 
ATOM     30  N   UNL     1      48.001  10.485  16.632  0.00  0.00    +0.000 N 
ATOM     31  C   UNL     1      48.207   9.144  16.430  0.00  0.00    +0.000 A 
ATOM     32  O   UNL     1      48.277   8.670  15.299  0.00  0.00    +0.000 OA
ATOM     33  C   UNL     1      48.347   8.363  17.647  0.00  0.00    +0.000 A 
ATOM     34  H   UNL     1      47.899  11.053  15.802  0.00  0.00    +0.000 HD
ENDBRANCH  21  24
ENDBRANCH  19  20
ENDBRANCH   4  19
TORSDOF 7
ENDMDL
MODEL 6
REMARK VINA RESULT:    -7.854      2.020      2.588
REMARK INTER + INTRA:         -12.247
REMARK INTER:                 -11.097
REMARK INTRA:                  -1.150
REMARK UNBOUND:                -1.179
REMARK  Name = 
REMARK  8 active torsions:
REMARK  status: ('A' for Active; 'I' for Inactive)
REMARK    1  A    between atoms: C_1  and  C_2
REMARK    2  A    between atoms: C_6  and  C_7
REMARK    3  A    between atoms: C_7  and  N_8
REMARK    4  A    between atoms: N_8  and  C_9
REMARK    5  A    between atoms: C_9  and  C_10
REMARK    6  A    between atoms: C_13  and  C_14
REMARK    7  A    between atoms: C_14  and  N_15
REMARK    8  A    between atoms: C_16  and  C_18
REMARK                            x       y       z     vdW  Elec       q    Type
REMARK                         _______ _______ _______ _____ _____    ______ ____
ROOT
ATOM      1  C   UNL     1      45.335   5.425  11.836  0.00  0.00    +0.000 A 
ATOM      2  C   UNL     1      46.446   6.215  12.190  0.00  0.00    +0.000 A 
ATOM      3  C   UNL     1      47.220   5.915  13.315  0.00  0.00    +0.000 A 
ATOM      4  C   UNL     1      46.905   4.812  14.116  0.00  0.00    +0.000 A 
ATOM      5  C   UNL     1      45.785   4.037  13.784  0.00  0.00    +0.000 A 
ATOM      6  C   UNL     1      45.013   4.335  12.657  0.00  0.00    +0.000 A 
ATOM      7 CL   UNL     1      43.674   3.290  12.325  0.00  0.00    +0.000 Cl
ENDROOT
BRANCH   1   8
ATOM      8  C   UNL     1      44.554   5.777  10.587  0.00  0.00    +0.000 C 
BRANCH   8   9
ATOM      9  N   UNL     1      45.088   5.157   9.373  0.00  0.00    +0.000 NA
ATOM     10  H   UNL     1      44.988   5.813   8.598  0.00  0.00    +0.000 HD
BRANCH   9  11
ATOM     11  C   UNL     1      44.375   3.928   9.010  0.00  0.00    +0.000 C 
BRANCH  11  17
ATOM     12  C   UNL     1      47.544   3.016   5.214  0.00  0.00    +0.000 C 
ATOM     13  C   UNL     1      46.845   2.536   6.449  0.00  0.00    +0.000 A 
ATOM     14  C   UNL     1      47.038   1.240   6.936  0.00  0.00    +0.000 A 
ATOM     15  C   UNL     1      46.372   0.811   8.086  0.00  0.00    +0.000 A 
ATOM     16  C   UNL     1      45.504   1.673   8.759  0.00  0.00    +0.000 A 
ATOM     17  C   UNL     1      45.295   2.974   8.286  0.00  0.00    +0.000 A 
ATOM     18  C   UNL     1      45.978   3.396   7.134  0.00  0.00    +0.000 A 
ENDBRANCH  11  17
ENDBRANCH   9  11
ENDBRANCH   8   9
ENDBRANCH   1   8
BRANCH   4  19
ATOM     19  C   UNL     1      47.713   4.484  15.344  0.00  0.00    +0.000 C 
BRANCH  19  20
ATOM     20  N   UNL     1      47.675   5.572  16.286  0.00  0.00    +0.000 N 
ATOM     21  C   UNL     1      48.816   6.237  16.653  0.00  0.00    +0.000 C 
ATOM     22  O   UNL     1      49.911   5.964  16.170  0.00  0.00    +0.000 OA
ATOM     23  H   UNL     1      46.843   5.657  16.862  0.00  0.00    +0.000 HD
BRANCH  21  24
ATOM     24  C   UNL     1      48.650   7.340  17.609  0.00  0.00    +0.000 A 
ATOM     25  C   UNL     1      48.987   8.632  17.228  0.00  0.00    +0.000 A 
ATOM     26  S   UNL     1      48.685   9.800  18.433  0.00  0.00    +0.000 S 
ATOM     27  C   UNL     1      48.143   8.615  19.526  0.00  0.00    +0.000 A 
ATOM     28  N   UNL     1      47.747   8.950  20.783  0.00  0.00    +0.000 NA
ATOM     29  C   UNL     1      47.391   7.947  21.515  0.00  0.00    +0.000 A 
ATOM     30  N   UNL     1      47.389   6.640  21.100  0.00  0.00    +0.000 N 
ATOM     31  C   UNL     1      47.748   6.258  19.832  0.00  0.00    +0.000 A 
ATOM     32  O   UNL     1      47.690   5.084  19.477  0.00  0.00    +0.000 OA
ATOM     33  C   UNL     1      48.174   7.346  18.969  0.00  0.00    +0.000 A 
ATOM     34  H   UNL     1      47.088   5.902  21.722  0.00  0.00    +0.000 HD
ENDBRANCH  21  24
ENDBRANCH  19  20
ENDBRANCH   4  19
TORSDOF 7
ENDMDL
MODEL 7
REMARK VINA RESULT:    -7.767      2.088      2.805
REMARK INTER + INTRA:         -12.124
REMARK INTER:                 -10.984
REMARK INTRA:                  -1.141
REMARK UNBOUND:                -1.179
REMARK  Name = 
REMARK  8 active torsions:
REMARK  status: ('A' for Active; 'I' for Inactive)
REMARK    1  A    between atoms: C_1  and  C_2
REMARK    2  A    between atoms: C_6  and  C_7
REMARK    3  A    between atoms: C_7  and  N_8
REMARK    4  A    between atoms: N_8  and  C_9
REMARK    5  A    between atoms: C_9  and  C_10
REMARK    6  A    between atoms: C_13  and  C_14
REMARK    7  A    between atoms: C_14  and  N_15
REMARK    8  A    between atoms: C_16  and  C_18
REMARK                            x       y       z     vdW  Elec       q    Type
REMARK                         _______ _______ _______ _____ _____    ______ ____
ROOT
ATOM      1  C   UNL     1      45.300   6.096  12.156  0.00  0.00    +0.000 A 
ATOM      2  C   UNL     1      46.076   5.074  12.737  0.00  0.00    +0.000 A 
ATOM      3  C   UNL     1      47.209   5.370  13.501  0.00  0.00    +0.000 A 
ATOM      4  C   UNL     1      47.595   6.698  13.707  0.00  0.00    +0.000 A 
ATOM      5  C   UNL     1      46.843   7.719  13.109  0.00  0.00    +0.000 A 
ATOM      6  C   UNL     1      45.707   7.423  12.349  0.00  0.00    +0.000 A 
ATOM      7 CL   UNL     1      44.835   8.764  11.688  0.00  0.00    +0.000 Cl
ENDROOT
BRANCH   1   8
ATOM      8  C   UNL     1      44.063   5.717  11.368  0.00  0.00    +0.000 C 
BRANCH   8   9
ATOM      9  N   UNL     1      44.355   5.258  10.009  0.00  0.00    +0.000 NA
ATOM     10  H   UNL     1      43.678   5.674   9.369  0.00  0.00    +0.000 HD
BRANCH   9  11
ATOM     11  C   UNL     1      44.256   3.801   9.875  0.00  0.00    +0.000 C 
BRANCH  11  17
ATOM     12  C   UNL     1      46.652  -0.056   7.714  0.00  0.00    +0.000 C 
ATOM     13  C   UNL     1      46.394   1.418   7.790  0.00  0.00    +0.000 A 
ATOM     14  C   UNL     1      47.036   2.314   6.929  0.00  0.00    +0.000 A 
ATOM     15  C   UNL     1      46.786   3.684   7.022  0.00  0.00    +0.000 A 
ATOM     16  C   UNL     1      45.892   4.174   7.976  0.00  0.00    +0.000 A 
ATOM     17  C   UNL     1      45.241   3.294   8.849  0.00  0.00    +0.000 A 
ATOM     18  C   UNL     1      45.494   1.917   8.740  0.00  0.00    +0.000 A 
ENDBRANCH  11  17
ENDBRANCH   9  11
ENDBRANCH   8   9
ENDBRANCH   1   8
BRANCH   4  19
ATOM     19  C   UNL     1      48.825   7.038  14.507  0.00  0.00    +0.000 C 
BRANCH  19  20
ATOM     20  N   UNL     1      48.498   7.202  15.900  0.00  0.00    +0.000 N 
ATOM     21  C   UNL     1      48.865   6.267  16.833  0.00  0.00    +0.000 C 
ATOM     22  O   UNL     1      49.520   5.273  16.534  0.00  0.00    +0.000 OA
ATOM     23  H   UNL     1      47.773   7.875  16.129  0.00  0.00    +0.000 HD
BRANCH  21  24
ATOM     24  C   UNL     1      48.490   6.551  18.224  0.00  0.00    +0.000 A 
ATOM     25  C   UNL     1      47.778   5.604  18.948  0.00  0.00    +0.000 A 
ATOM     26  S   UNL     1      47.469   6.066  20.560  0.00  0.00    +0.000 S 
ATOM     27  C   UNL     1      48.229   7.571  20.334  0.00  0.00    +0.000 A 
ATOM     28  N   UNL     1      48.293   8.482  21.341  0.00  0.00    +0.000 NA
ATOM     29  C   UNL     1      48.869   9.592  21.021  0.00  0.00    +0.000 A 
ATOM     30  N   UNL     1      49.392   9.871  19.784  0.00  0.00    +0.000 N 
ATOM     31  C   UNL     1      49.380   8.972  18.748  0.00  0.00    +0.000 A 
ATOM     32  O   UNL     1      49.900   9.235  17.666  0.00  0.00    +0.000 OA
ATOM     33  C   UNL     1      48.729   7.709  19.049  0.00  0.00    +0.000 A 
ATOM     34  H   UNL     1      49.839  10.759  19.602  0.00  0.00    +0.000 HD
ENDBRANCH  21  24
ENDBRANCH  19  20
ENDBRANCH   4  19
TORSDOF 7
ENDMDL
MODEL 8
REMARK VINA RESULT:    -7.675      1.536      2.043
REMARK INTER + INTRA:         -11.994
REMARK INTER:                 -11.111
REMARK INTRA:                  -0.883
REMARK UNBOUND:                -1.179
REMARK  Name = 
REMARK  8 active torsions:
REMARK  status: ('A' for Active; 'I' for Inactive)
REMARK    1  A    between atoms: C_1  and  C_2
REMARK    2  A    between atoms: C_6  and  C_7
REMARK    3  A    between atoms: C_7  and  N_8
REMARK    4  A    between atoms: N_8  and  C_9
REMARK    5  A    between atoms: C_9  and  C_10
REMARK    6  A    between atoms: C_13  and  C_14
REMARK    7  A    between atoms: C_14  and  N_15
REMARK    8  A    between atoms: C_16  and  C_18
REMARK                            x       y       z     vdW  Elec       q    Type
REMARK                         _______ _______ _______ _____ _____    ______ ____
ROOT
ATOM      1  C   UNL     1      45.531   6.373  11.672  0.00  0.00    +0.000 A 
ATOM      2  C   UNL     1      46.615   5.801  12.365  0.00  0.00    +0.000 A 
ATOM      3  C   UNL     1      47.408   6.564  13.229  0.00  0.00    +0.000 A 
ATOM      4  C   UNL     1      47.134   7.921  13.424  0.00  0.00    +0.000 A 
ATOM      5  C   UNL     1      46.073   8.503  12.717  0.00  0.00    +0.000 A 
ATOM      6  C   UNL     1      45.277   7.739  11.858  0.00  0.00    +0.000 A 
ATOM      7 CL   UNL     1      43.974   8.555  11.064  0.00  0.00    +0.000 Cl
ENDROOT
BRANCH   1   8
ATOM      8  C   UNL     1      44.685   5.490  10.779  0.00  0.00    +0.000 C 
BRANCH   8   9
ATOM      9  N   UNL     1      45.363   5.091   9.544  0.00  0.00    +0.000 NA
ATOM     10  H   UNL     1      45.556   5.925   8.990  0.00  0.00    +0.000 HD
BRANCH   9  11
ATOM     11  C   UNL     1      44.549   4.189   8.723  0.00  0.00    +0.000 C 
BRANCH  11  17
ATOM     12  C   UNL     1      47.704   2.715   5.093  0.00  0.00    +0.000 C 
ATOM     13  C   UNL     1      46.951   2.399   6.351  0.00  0.00    +0.000 A 
ATOM     14  C   UNL     1      47.041   1.141   6.955  0.00  0.00    +0.000 A 
ATOM     15  C   UNL     1      46.327   0.867   8.122  0.00  0.00    +0.000 A 
ATOM     16  C   UNL     1      45.514   1.845   8.697  0.00  0.00    +0.000 A 
ATOM     17  C   UNL     1      45.408   3.110   8.106  0.00  0.00    +0.000 A 
ATOM     18  C   UNL     1      46.139   3.377   6.937  0.00  0.00    +0.000 A 
ENDBRANCH  11  17
ENDBRANCH   9  11
ENDBRANCH   8   9
ENDBRANCH   1   8
BRANCH   4  19
ATOM     19  C   UNL     1      47.989   8.766  14.332  0.00  0.00    +0.000 C 
BRANCH  19  20
ATOM     20  N   UNL     1      48.121   8.151  15.627  0.00  0.00    +0.000 N 
ATOM     21  C   UNL     1      49.334   7.706  16.084  0.00  0.00    +0.000 C 
ATOM     22  O   UNL     1      50.365   7.845  15.433  0.00  0.00    +0.000 OA
ATOM     23  H   UNL     1      47.270   7.819  16.071  0.00  0.00    +0.000 HD
BRANCH  21  24
ATOM     24  C   UNL     1      49.347   7.110  17.427  0.00  0.00    +0.000 A 
ATOM     25  C   UNL     1      49.736   7.882  18.514  0.00  0.00    +0.000 A 
ATOM     26  S   UNL     1      49.644   7.058  20.005  0.00  0.00    +0.000 S 
ATOM     27  C   UNL     1      49.131   5.625  19.245  0.00  0.00    +0.000 A 
ATOM     28  N   UNL     1      48.891   4.498  19.966  0.00  0.00    +0.000 NA
ATOM     29  C   UNL     1      48.539   3.476  19.259  0.00  0.00    +0.000 A 
ATOM     30  N   UNL     1      48.400   3.483  17.894  0.00  0.00    +0.000 N 
ATOM     31  C   UNL     1      48.600   4.605  17.129  0.00  0.00    +0.000 A 
ATOM     32  O   UNL     1      48.421   4.590  15.914  0.00  0.00    +0.000 OA
ATOM     33  C   UNL     1      49.013   5.781  17.873  0.00  0.00    +0.000 A 
ATOM     34  H   UNL     1      48.112   2.649  17.402  0.00  0.00    +0.000 HD
ENDBRANCH  21  24
ENDBRANCH  19  20
ENDBRANCH   4  19
TORSDOF 7
ENDMDL
MODEL 9
REMARK VINA RESULT:    -7.509      2.356      2.987
REMARK INTER + INTRA:         -11.760
REMARK INTER:                 -10.655
REMARK INTRA:                  -1.105
REMARK UNBOUND:                -1.179
REMARK  Name = 
REMARK  8 active torsions:
REMARK  status: ('A' for Active; 'I' for Inactive)
REMARK    1  A    between atoms: C_1  and  C_2
REMARK    2  A    between atoms: C_6  and  C_7
REMARK    3  A    between atoms: C_7  and  N_8
REMARK    4  A    between atoms: N_8  and  C_9
REMARK    5  A    between atoms: C_9  and  C_10
REMARK    6  A    between atoms: C_13  and  C_14
REMARK    7  A    between atoms: C_14  and  N_15
REMARK    8  A    between atoms: C_16  and  C_18
REMARK                            x       y       z     vdW  Elec       q    Type
REMARK                         _______ _______ _______ _____ _____    ______ ____
ROOT
ATOM      1  C   UNL     1      45.266   6.305  12.061  0.00  0.00    +0.000 A 
ATOM      2  C   UNL     1      46.220   5.494  12.705  0.00  0.00    +0.000 A 
ATOM      3  C   UNL     1      47.296   6.054  13.401  0.00  0.00    +0.000 A 
ATOM      4  C   UNL     1      47.445   7.442  13.473  0.00  0.00    +0.000 A 
ATOM      5  C   UNL     1      46.514   8.255  12.812  0.00  0.00    +0.000 A 
ATOM      6  C   UNL     1      45.435   7.695  12.120  0.00  0.00    +0.000 A 
ATOM      7 CL   UNL     1      44.330   8.795  11.370  0.00  0.00    +0.000 Cl
ENDROOT
BRANCH   1   8
ATOM      8  C   UNL     1      44.102   5.644  11.353  0.00  0.00    +0.000 C 
BRANCH   8   9
ATOM      9  N   UNL     1      44.428   5.182  10.002  0.00  0.00    +0.000 NA
ATOM     10  H   UNL     1      43.759   5.586   9.346  0.00  0.00    +0.000 HD
BRANCH   9  11
ATOM     11  C   UNL     1      44.351   3.723   9.874  0.00  0.00    +0.000 C 
BRANCH  11  17
ATOM     12  C   UNL     1      46.767  -0.101   7.676  0.00  0.00    +0.000 C 
ATOM     13  C   UNL     1      46.486   1.370   7.753  0.00  0.00    +0.000 A 
ATOM     14  C   UNL     1      47.095   2.273   6.877  0.00  0.00    +0.000 A 
ATOM     15  C   UNL     1      46.823   3.639   6.970  0.00  0.00    +0.000 A 
ATOM     16  C   UNL     1      45.941   4.117   7.941  0.00  0.00    +0.000 A 
ATOM     17  C   UNL     1      45.322   3.229   8.829  0.00  0.00    +0.000 A 
ATOM     18  C   UNL     1      45.597   1.856   8.719  0.00  0.00    +0.000 A 
ENDBRANCH  11  17
ENDBRANCH   9  11
ENDBRANCH   8   9
ENDBRANCH   1   8
BRANCH   4  19
ATOM     19  C   UNL     1      48.609   8.065  14.199  0.00  0.00    +0.000 C 
BRANCH  19  20
ATOM     20  N   UNL     1      49.365   7.064  14.906  0.00  0.00    +0.000 N 
ATOM     21  C   UNL     1      49.274   6.934  16.267  0.00  0.00    +0.000 C 
ATOM     22  O   UNL     1      48.520   7.632  16.939  0.00  0.00    +0.000 OA
ATOM     23  H   UNL     1      50.151   6.647  14.417  0.00  0.00    +0.000 HD
BRANCH  21  24
ATOM     24  C   UNL     1      50.080   5.867  16.875  0.00  0.00    +0.000 A 
ATOM     25  C   UNL     1      49.446   4.824  17.539  0.00  0.00    +0.000 A 
ATOM     26  S   UNL     1      50.520   3.643  18.140  0.00  0.00    +0.000 S 
ATOM     27  C   UNL     1      51.874   4.509  17.581  0.00  0.00    +0.000 A 
ATOM     28  N   UNL     1      53.135   4.050  17.794  0.00  0.00    +0.000 NA
ATOM     29  C   UNL     1      54.068   4.823  17.345  0.00  0.00    +0.000 A 
ATOM     30  N   UNL     1      53.850   6.011  16.696  0.00  0.00    +0.000 N 
ATOM     31  C   UNL     1      52.595   6.498  16.429  0.00  0.00    +0.000 A 
ATOM     32  O   UNL     1      52.434   7.542  15.803  0.00  0.00    +0.000 OA
ATOM     33  C   UNL     1      51.507   5.675  16.927  0.00  0.00    +0.000 A 
ATOM     34  H   UNL     1      54.626   6.565  16.361  0.00  0.00    +0.000 HD
ENDBRANCH  21  24
ENDBRANCH  19  20
ENDBRANCH   4  19
TORSDOF 7
ENDMDL
