MODEL 1
REMARK VINA RESULT:    -7.684      0.000      0.000
REMARK INTER + INTRA:         -10.515
REMARK INTER:                  -9.705
REMARK INTRA:                  -0.810
REMARK UNBOUND:                -0.810
REMARK  Name = 
REMARK  6 active torsions:
REMARK  status: ('A' for Active; 'I' for Inactive)
REMARK    1  A    between atoms: C_1  and  O_2
REMARK    2  A    between atoms: O_2  and  C_3
REMARK    3  A    between atoms: C_6  and  C_7
REMARK    4  A    between atoms: C_7  and  O_8
REMARK    5  A    between atoms: N_11  and  C_12
REMARK    6  A    between atoms: C_16  and  C_17
REMARK                            x       y       z     vdW  Elec       q    Type
REMARK                         _______ _______ _______ _____ _____    ______ ____
ROOT
ATOM      1  C   UNL     1      44.998   4.472  10.481  0.00  0.00    +0.000 C 
ATOM      2  C   UNL     1      45.910   5.700  10.704  0.00  0.00    +0.000 C 
ATOM      3  C   UNL     1      45.547   6.461  11.973  0.00  0.00    +0.000 C 
ATOM      4  N   UNL     1      45.555   5.558  13.124  0.00  0.00    +0.000 N 
ATOM      5  C   UNL     1      44.606   4.444  13.013  0.00  0.00    +0.000 C 
ATOM      6  C   UNL     1      44.939   3.619  11.771  0.00  0.00    +0.000 C 
ENDROOT
BRANCH   1  10
ATOM      7  C   UNL     1      46.574   2.349   6.988  0.00  0.00    +0.000 A 
ATOM      8  C   UNL     1      46.512   3.738   7.008  0.00  0.00    +0.000 A 
ATOM      9  C   UNL     1      45.975   4.405   8.117  0.00  0.00    +0.000 A 
ATOM     10  C   UNL     1      45.486   3.704   9.238  0.00  0.00    +0.000 A 
ATOM     11  C   UNL     1      45.517   2.302   9.176  0.00  0.00    +0.000 A 
ATOM     12  C   UNL     1      46.062   1.638   8.071  0.00  0.00    +0.000 A 
BRANCH   7  14
ATOM     13  C   UNL     1      47.933   2.230   5.043  0.00  0.00    +0.000 C 
ATOM     14  O   UNL     1      47.100   1.576   5.991  0.00  0.00    +0.000 OA
ENDBRANCH   7  14
ENDBRANCH   1  10
BRANCH   4  15
ATOM     15  C   UNL     1      46.570   5.555  14.064  0.00  0.00    +0.000 A 
ATOM     16  C   UNL     1      47.494   6.602  14.123  0.00  0.00    +0.000 A 
ATOM     17  C   UNL     1      48.533   6.558  15.042  0.00  0.00    +0.000 A 
ATOM     18  N   UNL     1      48.720   5.556  15.917  0.00  0.00    +0.000 NA
ATOM     19  C   UNL     1      47.831   4.527  15.876  0.00  0.00    +0.000 A 
ATOM     20  C   UNL     1      46.763   4.504  14.970  0.00  0.00    +0.000 A 
BRANCH  19  21
ATOM     21  C   UNL     1      47.993   3.358  16.836  0.00  0.00    +0.000 C 
ATOM     22  F   UNL     1      46.826   2.895  17.368  0.00  0.00    +0.000 F 
ATOM     23  F   UNL     1      48.585   2.276  16.246  0.00  0.00    +0.000 F 
ATOM     24  F   UNL     1      48.789   3.666  17.904  0.00  0.00    +0.000 F 
ENDBRANCH  19  21
ENDBRANCH   4  15
BRANCH   1  25
ATOM     25  O   UNL     1      43.665   4.952  10.240  0.00  0.00    +0.000 OA
ATOM     26  H   UNL     1      43.159   4.264   9.777  0.00  0.00    +0.000 HD
ENDBRANCH   1  25
TORSDOF 5
ENDMDL
MODEL 2
REMARK VINA RESULT:    -7.074      4.790      7.131
REMARK INTER + INTRA:          -9.744
REMARK INTER:                  -8.901
REMARK INTRA:                  -0.843
REMARK UNBOUND:                -0.810
REMARK  Name = 
REMARK  6 active torsions:
REMARK  status: ('A' for Active; 'I' for Inactive)
REMARK    1  A    between atoms: C_1  and  O_2
REMARK    2  A    between atoms: O_2  and  C_3
REMARK    3  A    between atoms: C_6  and  C_7
REMARK    4  A    between atoms: C_7  and  O_8
REMARK    5  A    between atoms: N_11  and  C_12
REMARK    6  A    between atoms: C_16  and  C_17
REMARK                            x       y       z     vdW  Elec       q    Type
REMARK                         _______ _______ _______ _____ _____    ______ ____
ROOT
ATOM      1  C   UNL     1      47.250   7.720  12.832  0.00  0.00    +0.000 C 
ATOM      2  C   UNL     1      47.564   6.231  13.102  0.00  0.00    +0.000 C 
ATOM      3  C   UNL     1      46.365   5.487  13.675  0.00  0.00    +0.000 C 
ATOM      4  N   UNL     1      45.203   5.650  12.801  0.00  0.00    +0.000 N 
ATOM      5  C   UNL     1      44.787   7.045  12.620  0.00  0.00    +0.000 C 
ATOM      6  C   UNL     1      45.941   7.842  12.014  0.00  0.00    +0.000 C 
ENDROOT
BRANCH   1  10
ATOM      7  C   UNL     1      50.767   9.692  11.120  0.00  0.00    +0.000 A 
ATOM      8  C   UNL     1      49.608  10.413  11.389  0.00  0.00    +0.000 A 
ATOM      9  C   UNL     1      48.478   9.764  11.905  0.00  0.00    +0.000 A 
ATOM     10  C   UNL     1      48.474   8.379  12.168  0.00  0.00    +0.000 A 
ATOM     11  C   UNL     1      49.639   7.666  11.847  0.00  0.00    +0.000 A 
ATOM     12  C   UNL     1      50.770   8.317  11.340  0.00  0.00    +0.000 A 
BRANCH   7  14
ATOM     13  C   UNL     1      52.733   9.343   9.834  0.00  0.00    +0.000 C 
ATOM     14  O   UNL     1      51.945  10.200  10.649  0.00  0.00    +0.000 OA
ENDBRANCH   7  14
ENDBRANCH   1  10
BRANCH   4  15
ATOM     15  C   UNL     1      44.746   4.643  11.969  0.00  0.00    +0.000 A 
ATOM     16  C   UNL     1      43.790   3.726  12.415  0.00  0.00    +0.000 A 
ATOM     17  C   UNL     1      43.379   2.694  11.583  0.00  0.00    +0.000 A 
ATOM     18  N   UNL     1      43.837   2.509  10.333  0.00  0.00    +0.000 NA
ATOM     19  C   UNL     1      44.769   3.391   9.881  0.00  0.00    +0.000 A 
ATOM     20  C   UNL     1      45.232   4.452  10.670  0.00  0.00    +0.000 A 
BRANCH  19  21
ATOM     21  C   UNL     1      45.334   3.230   8.477  0.00  0.00    +0.000 C 
ATOM     22  F   UNL     1      44.397   3.229   7.485  0.00  0.00    +0.000 F 
ATOM     23  F   UNL     1      46.215   4.223   8.152  0.00  0.00    +0.000 F 
ATOM     24  F   UNL     1      46.032   2.065   8.326  0.00  0.00    +0.000 F 
ENDBRANCH  19  21
ENDBRANCH   4  15
BRANCH   1  25
ATOM     25  O   UNL     1      47.008   8.355  14.099  0.00  0.00    +0.000 OA
ATOM     26  H   UNL     1      46.636   7.702  14.714  0.00  0.00    +0.000 HD
ENDBRANCH   1  25
TORSDOF 5
ENDMDL
MODEL 3
REMARK VINA RESULT:    -6.913      4.462      8.056
REMARK INTER + INTRA:          -9.542
REMARK INTER:                  -8.748
REMARK INTRA:                  -0.794
REMARK UNBOUND:                -0.810
REMARK  Name = 
REMARK  6 active torsions:
REMARK  status: ('A' for Active; 'I' for Inactive)
REMARK    1  A    between atoms: C_1  and  O_2
REMARK    2  A    between atoms: O_2  and  C_3
REMARK    3  A    between atoms: C_6  and  C_7
REMARK    4  A    between atoms: C_7  and  O_8
REMARK    5  A    between atoms: N_11  and  C_12
REMARK    6  A    between atoms: C_16  and  C_17
REMARK                            x       y       z     vdW  Elec       q    Type
REMARK                         _______ _______ _______ _____ _____    ______ ____
ROOT
ATOM      1  C   UNL     1      46.133   5.993  13.090  0.00  0.00    +0.000 C 
ATOM      2  C   UNL     1      45.094   4.850  13.062  0.00  0.00    +0.000 C 
ATOM      3  C   UNL     1      44.158   4.956  11.864  0.00  0.00    +0.000 C 
ATOM      4  N   UNL     1      44.929   5.024  10.623  0.00  0.00    +0.000 N 
ATOM      5  C   UNL     1      45.840   6.173  10.551  0.00  0.00    +0.000 C 
ATOM      6  C   UNL     1      46.830   6.106  11.713  0.00  0.00    +0.000 C 
ENDROOT
BRANCH   1  10
ATOM      7  C   UNL     1      48.791   5.502  16.538  0.00  0.00    +0.000 A 
ATOM      8  C   UNL     1      48.942   6.579  15.671  0.00  0.00    +0.000 A 
ATOM      9  C   UNL     1      48.108   6.707  14.553  0.00  0.00    +0.000 A 
ATOM     10  C   UNL     1      47.098   5.765  14.269  0.00  0.00    +0.000 A 
ATOM     11  C   UNL     1      46.994   4.664  15.133  0.00  0.00    +0.000 A 
ATOM     12  C   UNL     1      47.823   4.542  16.255  0.00  0.00    +0.000 A 
BRANCH   7  14
ATOM     13  C   UNL     1      49.730   3.915  18.035  0.00  0.00    +0.000 C 
ATOM     14  O   UNL     1      49.510   5.273  17.678  0.00  0.00    +0.000 OA
ENDBRANCH   7  14
ENDBRANCH   1  10
BRANCH   4  15
ATOM     15  C   UNL     1      45.042   3.953   9.754  0.00  0.00    +0.000 A 
ATOM     16  C   UNL     1      44.359   2.759   9.997  0.00  0.00    +0.000 A 
ATOM     17  C   UNL     1      44.522   1.680   9.139  0.00  0.00    +0.000 A 
ATOM     18  N   UNL     1      45.305   1.700   8.048  0.00  0.00    +0.000 NA
ATOM     19  C   UNL     1      45.980   2.854   7.794  0.00  0.00    +0.000 A 
ATOM     20  C   UNL     1      45.866   3.979   8.622  0.00  0.00    +0.000 A 
BRANCH  19  21
ATOM     21  C   UNL     1      46.891   2.937   6.578  0.00  0.00    +0.000 C 
ATOM     22  F   UNL     1      48.223   2.879   6.862  0.00  0.00    +0.000 F 
ATOM     23  F   UNL     1      46.659   1.932   5.682  0.00  0.00    +0.000 F 
ATOM     24  F   UNL     1      46.714   4.095   5.873  0.00  0.00    +0.000 F 
ENDBRANCH  19  21
ENDBRANCH   4  15
BRANCH   1  25
ATOM     25  O   UNL     1      45.425   7.226  13.299  0.00  0.00    +0.000 OA
ATOM     26  H   UNL     1      44.908   7.434  12.504  0.00  0.00    +0.000 HD
ENDBRANCH   1  25
TORSDOF 5
ENDMDL
MODEL 4
REMARK VINA RESULT:    -6.804      2.063      2.581
REMARK INTER + INTRA:          -9.404
REMARK INTER:                  -8.597
REMARK INTRA:                  -0.807
REMARK UNBOUND:                -0.810
REMARK  Name = 
REMARK  6 active torsions:
REMARK  status: ('A' for Active; 'I' for Inactive)
REMARK    1  A    between atoms: C_1  and  O_2
REMARK    2  A    between atoms: O_2  and  C_3
REMARK    3  A    between atoms: C_6  and  C_7
REMARK    4  A    between atoms: C_7  and  O_8
REMARK    5  A    between atoms: N_11  and  C_12
REMARK    6  A    between atoms: C_16  and  C_17
REMARK                            x       y       z     vdW  Elec       q    Type
REMARK                         _______ _______ _______ _____ _____    ______ ____
ROOT
ATOM      1  C   UNL     1      45.004   4.504  10.537  0.00  0.00    +0.000 C 
ATOM      2  C   UNL     1      45.904   5.747  10.712  0.00  0.00    +0.000 C 
ATOM      3  C   UNL     1      45.579   6.515  11.987  0.00  0.00    +0.000 C 
ATOM      4  N   UNL     1      45.647   5.624  13.146  0.00  0.00    +0.000 N 
ATOM      5  C   UNL     1      44.712   4.495  13.083  0.00  0.00    +0.000 C 
ATOM      6  C   UNL     1      45.010   3.663  11.836  0.00  0.00    +0.000 C 
ENDROOT
BRANCH   1  10
ATOM      7  C   UNL     1      46.477   2.358   7.013  0.00  0.00    +0.000 A 
ATOM      8  C   UNL     1      46.481   3.748   7.052  0.00  0.00    +0.000 A 
ATOM      9  C   UNL     1      45.976   4.424   8.171  0.00  0.00    +0.000 A 
ATOM     10  C   UNL     1      45.454   3.731   9.282  0.00  0.00    +0.000 A 
ATOM     11  C   UNL     1      45.420   2.330   9.201  0.00  0.00    +0.000 A 
ATOM     12  C   UNL     1      45.932   1.656   8.086  0.00  0.00    +0.000 A 
BRANCH   7  14
ATOM     13  C   UNL     1      47.847   2.196   5.079  0.00  0.00    +0.000 C 
ATOM     14  O   UNL     1      46.965   1.574   6.005  0.00  0.00    +0.000 OA
ENDBRANCH   7  14
ENDBRANCH   1  10
BRANCH   4  15
ATOM     15  C   UNL     1      46.699   5.647  14.045  0.00  0.00    +0.000 A 
ATOM     16  C   UNL     1      46.801   4.681  15.050  0.00  0.00    +0.000 A 
ATOM     17  C   UNL     1      47.836   4.748  15.971  0.00  0.00    +0.000 A 
ATOM     18  N   UNL     1      48.788   5.696  15.965  0.00  0.00    +0.000 NA
ATOM     19  C   UNL     1      48.706   6.646  14.994  0.00  0.00    +0.000 A 
ATOM     20  C   UNL     1      47.683   6.642  14.036  0.00  0.00    +0.000 A 
BRANCH  19  21
ATOM     21  C   UNL     1      49.748   7.753  14.938  0.00  0.00    +0.000 C 
ATOM     22  F   UNL     1      51.035   7.315  14.830  0.00  0.00    +0.000 F 
ATOM     23  F   UNL     1      49.555   8.599  13.883  0.00  0.00    +0.000 F 
ATOM     24  F   UNL     1      49.722   8.550  16.048  0.00  0.00    +0.000 F 
ENDBRANCH  19  21
ENDBRANCH   4  15
BRANCH   1  25
ATOM     25  O   UNL     1      43.655   4.960  10.344  0.00  0.00    +0.000 OA
ATOM     26  H   UNL     1      43.659   5.707   9.722  0.00  0.00    +0.000 HD
ENDBRANCH   1  25
TORSDOF 5
ENDMDL
MODEL 5
REMARK VINA RESULT:    -6.357      5.131      8.608
REMARK INTER + INTRA:          -8.839
REMARK INTER:                  -8.064
REMARK INTRA:                  -0.775
REMARK UNBOUND:                -0.810
REMARK  Name = 
REMARK  6 active torsions:
REMARK  status: ('A' for Active; 'I' for Inactive)
REMARK    1  A    between atoms: C_1  and  O_2
REMARK    2  A    between atoms: O_2  and  C_3
REMARK    3  A    between atoms: C_6  and  C_7
REMARK    4  A    between atoms: C_7  and  O_8
REMARK    5  A    between atoms: N_11  and  C_12
REMARK    6  A    between atoms: C_16  and  C_17
REMARK                            x       y       z     vdW  Elec       q    Type
REMARK                         _______ _______ _______ _____ _____    ______ ____
ROOT
ATOM      1  C   UNL     1      49.760   3.557  17.715  0.00  0.00    +0.000 C 
ATOM      2  C   UNL     1      48.791   2.776  16.801  0.00  0.00    +0.000 C 
ATOM      3  C   UNL     1      47.458   3.494  16.631  0.00  0.00    +0.000 C 
ATOM      4  N   UNL     1      47.676   4.860  16.155  0.00  0.00    +0.000 N 
ATOM      5  C   UNL     1      48.488   5.683  17.059  0.00  0.00    +0.000 C 
ATOM      6  C   UNL     1      49.856   5.029  17.245  0.00  0.00    +0.000 C 
ENDROOT
BRANCH   1  10
ATOM      7  C   UNL     1      53.591   1.458  18.048  0.00  0.00    +0.000 A 
ATOM      8  C   UNL     1      53.479   2.795  18.414  0.00  0.00    +0.000 A 
ATOM      9  C   UNL     1      52.256   3.465  18.271  0.00  0.00    +0.000 A 
ATOM     10  C   UNL     1      51.112   2.819  17.760  0.00  0.00    +0.000 A 
ATOM     11  C   UNL     1      51.261   1.484  17.356  0.00  0.00    +0.000 A 
ATOM     12  C   UNL     1      52.481   0.813  17.507  0.00  0.00    +0.000 A 
BRANCH   7  14
ATOM     13  C   UNL     1      54.501  -0.702  18.433  0.00  0.00    +0.000 C 
ATOM     14  O   UNL     1      54.707   0.678  18.164  0.00  0.00    +0.000 OA
ENDBRANCH   7  14
ENDBRANCH   1  10
BRANCH   4  15
ATOM     15  C   UNL     1      47.433   5.244  14.848  0.00  0.00    +0.000 A 
ATOM     16  C   UNL     1      48.111   6.327  14.282  0.00  0.00    +0.000 A 
ATOM     17  C   UNL     1      47.819   6.726  12.985  0.00  0.00    +0.000 A 
ATOM     18  N   UNL     1      46.909   6.124  12.201  0.00  0.00    +0.000 NA
ATOM     19  C   UNL     1      46.237   5.067  12.734  0.00  0.00    +0.000 A 
ATOM     20  C   UNL     1      46.478   4.616  14.038  0.00  0.00    +0.000 A 
BRANCH  19  21
ATOM     21  C   UNL     1      45.188   4.348  11.900  0.00  0.00    +0.000 C 
ATOM     22  F   UNL     1      43.906   4.510  12.337  0.00  0.00    +0.000 F 
ATOM     23  F   UNL     1      45.188   4.756  10.595  0.00  0.00    +0.000 F 
ATOM     24  F   UNL     1      45.393   2.998  11.854  0.00  0.00    +0.000 F 
ENDBRANCH  19  21
ENDBRANCH   4  15
BRANCH   1  25
ATOM     25  O   UNL     1      49.197   3.580  19.037  0.00  0.00    +0.000 OA
ATOM     26  H   UNL     1      48.732   4.423  19.169  0.00  0.00    +0.000 HD
ENDBRANCH   1  25
TORSDOF 5
ENDMDL
MODEL 6
REMARK VINA RESULT:    -6.333      5.189      7.287
REMARK INTER + INTRA:          -8.808
REMARK INTER:                  -7.981
REMARK INTRA:                  -0.827
REMARK UNBOUND:                -0.810
REMARK  Name = 
REMARK  6 active torsions:
REMARK  status: ('A' for Active; 'I' for Inactive)
REMARK    1  A    between atoms: C_1  and  O_2
REMARK    2  A    between atoms: O_2  and  C_3
REMARK    3  A    between atoms: C_6  and  C_7
REMARK    4  A    between atoms: C_7  and  O_8
REMARK    5  A    between atoms: N_11  and  C_12
REMARK    6  A    between atoms: C_16  and  C_17
REMARK                            x       y       z     vdW  Elec       q    Type
REMARK                         _______ _______ _______ _____ _____    ______ ____
ROOT
ATOM      1  C   UNL     1      48.416   8.182  12.747  0.00  0.00    +0.000 C 
ATOM      2  C   UNL     1      48.369   6.638  12.746  0.00  0.00    +0.000 C 
ATOM      3  C   UNL     1      47.113   6.102  13.423  0.00  0.00    +0.000 C 
ATOM      4  N   UNL     1      45.920   6.685  12.809  0.00  0.00    +0.000 N 
ATOM      5  C   UNL     1      45.858   8.148  12.901  0.00  0.00    +0.000 C 
ATOM      6  C   UNL     1      47.080   8.750  12.209  0.00  0.00    +0.000 C 
ENDROOT
BRANCH   1  10
ATOM      7  C   UNL     1      51.873   9.419  10.358  0.00  0.00    +0.000 A 
ATOM      8  C   UNL     1      51.677   8.081  10.685  0.00  0.00    +0.000 A 
ATOM      9  C   UNL     1      50.586   7.702  11.478  0.00  0.00    +0.000 A 
ATOM     10  C   UNL     1      49.660   8.647  11.965  0.00  0.00    +0.000 A 
ATOM     11  C   UNL     1      49.903   9.995  11.659  0.00  0.00    +0.000 A 
ATOM     12  C   UNL     1      50.989  10.371  10.859  0.00  0.00    +0.000 A 
BRANCH   7  14
ATOM     13  C   UNL     1      53.652   8.980   8.846  0.00  0.00    +0.000 C 
ATOM     14  O   UNL     1      52.871   9.922   9.570  0.00  0.00    +0.000 OA
ENDBRANCH   7  14
ENDBRANCH   1  10
BRANCH   4  15
ATOM     15  C   UNL     1      45.102   5.977  11.946  0.00  0.00    +0.000 A 
ATOM     16  C   UNL     1      43.746   5.800  12.230  0.00  0.00    +0.000 A 
ATOM     17  C   UNL     1      42.952   5.047  11.376  0.00  0.00    +0.000 A 
ATOM     18  N   UNL     1      43.400   4.464  10.252  0.00  0.00    +0.000 NA
ATOM     19  C   UNL     1      44.719   4.624   9.958  0.00  0.00    +0.000 A 
ATOM     20  C   UNL     1      45.578   5.366  10.779  0.00  0.00    +0.000 A 
BRANCH  19  21
ATOM     21  C   UNL     1      45.291   3.981   8.703  0.00  0.00    +0.000 C 
ATOM     22  F   UNL     1      44.403   3.853   7.676  0.00  0.00    +0.000 F 
ATOM     23  F   UNL     1      46.349   4.680   8.194  0.00  0.00    +0.000 F 
ATOM     24  F   UNL     1      45.770   2.722   8.935  0.00  0.00    +0.000 F 
ENDBRANCH  19  21
ENDBRANCH   4  15
BRANCH   1  25
ATOM     25  O   UNL     1      48.532   8.619  14.111  0.00  0.00    +0.000 OA
ATOM     26  H   UNL     1      47.649   8.839  14.450  0.00  0.00    +0.000 HD
ENDBRANCH   1  25
TORSDOF 5
ENDMDL
MODEL 7
REMARK VINA RESULT:    -6.245      2.507      2.932
REMARK INTER + INTRA:          -8.698
REMARK INTER:                  -7.887
REMARK INTRA:                  -0.811
REMARK UNBOUND:                -0.810
REMARK  Name = 
REMARK  6 active torsions:
REMARK  status: ('A' for Active; 'I' for Inactive)
REMARK    1  A    between atoms: C_1  and  O_2
REMARK    2  A    between atoms: O_2  and  C_3
REMARK    3  A    between atoms: C_6  and  C_7
REMARK    4  A    between atoms: C_7  and  O_8
REMARK    5  A    between atoms: N_11  and  C_12
REMARK    6  A    between atoms: C_16  and  C_17
REMARK                            x       y       z     vdW  Elec       q    Type
REMARK                         _______ _______ _______ _____ _____    ______ ____
ROOT
ATOM      1  C   UNL     1      44.619   4.111  10.559  0.00  0.00    +0.000 C 
ATOM      2  C   UNL     1      44.325   5.583  10.196  0.00  0.00    +0.000 C 
ATOM      3  C   UNL     1      43.824   6.380  11.393  0.00  0.00    +0.000 C 
ATOM      4  N   UNL     1      44.768   6.270  12.506  0.00  0.00    +0.000 N 
ATOM      5  C   UNL     1      44.980   4.895  12.972  0.00  0.00    +0.000 C 
ATOM      6  C   UNL     1      45.516   4.048  11.819  0.00  0.00    +0.000 C 
ENDROOT
BRANCH   1  10
ATOM      7  C   UNL     1      46.480   2.162   7.105  0.00  0.00    +0.000 A 
ATOM      8  C   UNL     1      46.292   3.540   7.128  0.00  0.00    +0.000 A 
ATOM      9  C   UNL     1      45.664   4.148   8.224  0.00  0.00    +0.000 A 
ATOM     10  C   UNL     1      45.209   3.398   9.327  0.00  0.00    +0.000 A 
ATOM     11  C   UNL     1      45.370   2.005   9.262  0.00  0.00    +0.000 A 
ATOM     12  C   UNL     1      46.005   1.400   8.170  0.00  0.00    +0.000 A 
BRANCH   7  14
ATOM     13  C   UNL     1      47.891   2.181   5.194  0.00  0.00    +0.000 C 
ATOM     14  O   UNL     1      47.102   1.446   6.121  0.00  0.00    +0.000 OA
ENDBRANCH   7  14
ENDBRANCH   1  10
BRANCH   4  15
ATOM     15  C   UNL     1      45.622   7.298  12.866  0.00  0.00    +0.000 A 
ATOM     16  C   UNL     1      45.363   8.614  12.475  0.00  0.00    +0.000 A 
ATOM     17  C   UNL     1      46.256   9.624  12.805  0.00  0.00    +0.000 A 
ATOM     18  N   UNL     1      47.385   9.428  13.506  0.00  0.00    +0.000 NA
ATOM     19  C   UNL     1      47.656   8.153  13.896  0.00  0.00    +0.000 A 
ATOM     20  C   UNL     1      46.801   7.085  13.591  0.00  0.00    +0.000 A 
BRANCH  19  21
ATOM     21  C   UNL     1      48.925   7.864  14.685  0.00  0.00    +0.000 C 
ATOM     22  F   UNL     1      48.727   7.647  16.017  0.00  0.00    +0.000 F 
ATOM     23  F   UNL     1      49.586   6.760  14.225  0.00  0.00    +0.000 F 
ATOM     24  F   UNL     1      49.831   8.884  14.608  0.00  0.00    +0.000 F 
ENDBRANCH  19  21
ENDBRANCH   4  15
BRANCH   1  25
ATOM     25  O   UNL     1      43.372   3.486  10.906  0.00  0.00    +0.000 OA
ATOM     26  H   UNL     1      43.537   2.797  11.571  0.00  0.00    +0.000 HD
ENDBRANCH   1  25
TORSDOF 5
ENDMDL
MODEL 8
REMARK VINA RESULT:    -5.957      4.552      5.543
REMARK INTER + INTRA:          -8.334
REMARK INTER:                  -7.526
REMARK INTRA:                  -0.808
REMARK UNBOUND:                -0.810
REMARK  Name = 
REMARK  6 active torsions:
REMARK  status: ('A' for Active; 'I' for Inactive)
REMARK    1  A    between atoms: C_1  and  O_2
REMARK    2  A    between atoms: O_2  and  C_3
REMARK    3  A    between atoms: C_6  and  C_7
REMARK    4  A    between atoms: C_7  and  O_8
REMARK    5  A    between atoms: N_11  and  C_12
REMARK    6  A    between atoms: C_16  and  C_17
REMARK                            x       y       z     vdW  Elec       q    Type
REMARK                         _______ _______ _______ _____ _____    ______ ____
ROOT
ATOM      1  C   UNL     1      45.312   6.554  12.224  0.00  0.00    +0.000 C 
ATOM      2  C   UNL     1      45.054   7.862  11.443  0.00  0.00    +0.000 C 
ATOM      3  C   UNL     1      45.390   9.098  12.267  0.00  0.00    +0.000 C 
ATOM      4  N   UNL     1      46.766   9.019  12.760  0.00  0.00    +0.000 N 
ATOM      5  C   UNL     1      47.024   7.856  13.618  0.00  0.00    +0.000 C 
ATOM      6  C   UNL     1      46.735   6.577  12.834  0.00  0.00    +0.000 C 
ENDROOT
BRANCH   1  10
ATOM      7  C   UNL     1      44.743   3.109   9.579  0.00  0.00    +0.000 A 
ATOM      8  C   UNL     1      45.277   4.298   9.093  0.00  0.00    +0.000 A 
ATOM      9  C   UNL     1      45.422   5.404   9.941  0.00  0.00    +0.000 A 
ATOM     10  C   UNL     1      45.041   5.353  11.297  0.00  0.00    +0.000 A 
ATOM     11  C   UNL     1      44.464   4.158  11.753  0.00  0.00    +0.000 A 
ATOM     12  C   UNL     1      44.327   3.051  10.907  0.00  0.00    +0.000 A 
BRANCH   7  14
ATOM     13  C   UNL     1      45.751   1.338   8.357  0.00  0.00    +0.000 C 
ATOM     14  O   UNL     1      44.576   1.949   8.875  0.00  0.00    +0.000 OA
ENDBRANCH   7  14
ENDBRANCH   1  10
BRANCH   4  15
ATOM     15  C   UNL     1      47.798   9.764  12.218  0.00  0.00    +0.000 A 
ATOM     16  C   UNL     1      47.601  11.097  11.848  0.00  0.00    +0.000 A 
ATOM     17  C   UNL     1      48.634  11.814  11.263  0.00  0.00    +0.000 A 
ATOM     18  N   UNL     1      49.857  11.310  11.025  0.00  0.00    +0.000 NA
ATOM     19  C   UNL     1      50.070  10.013  11.378  0.00  0.00    +0.000 A 
ATOM     20  C   UNL     1      49.068   9.231  11.968  0.00  0.00    +0.000 A 
BRANCH  19  21
ATOM     21  C   UNL     1      51.431   9.382  11.127  0.00  0.00    +0.000 C 
ATOM     22  F   UNL     1      51.808   9.348   9.817  0.00  0.00    +0.000 F 
ATOM     23  F   UNL     1      52.437  10.031  11.785  0.00  0.00    +0.000 F 
ATOM     24  F   UNL     1      51.493   8.087  11.561  0.00  0.00    +0.000 F 
ENDBRANCH  19  21
ENDBRANCH   4  15
BRANCH   1  25
ATOM     25  O   UNL     1      44.390   6.510  13.326  0.00  0.00    +0.000 OA
ATOM     26  H   UNL     1      44.572   7.255  13.921  0.00  0.00    +0.000 HD
ENDBRANCH   1  25
TORSDOF 5
ENDMDL
MODEL 9
REMARK VINA RESULT:    -5.769      3.456      5.369
REMARK INTER + INTRA:          -8.097
REMARK INTER:                  -7.307
REMARK INTRA:                  -0.790
REMARK UNBOUND:                -0.810
REMARK  Name = 
REMARK  6 active torsions:
REMARK  status: ('A' for Active; 'I' for Inactive)
REMARK    1  A    between atoms: C_1  and  O_2
REMARK    2  A    between atoms: O_2  and  C_3
REMARK    3  A    between atoms: C_6  and  C_7
REMARK    4  A    between atoms: C_7  and  O_8
REMARK    5  A    between atoms: N_11  and  C_12
REMARK    6  A    between atoms: C_16  and  C_17
REMARK                            x       y       z     vdW  Elec       q    Type
REMARK                         _______ _______ _______ _____ _____    ______ ____
ROOT
ATOM      1  C   UNL     1      48.044   6.624  13.679  0.00  0.00    +0.000 C 
ATOM      2  C   UNL     1      48.171   5.884  15.029  0.00  0.00    +0.000 C 
ATOM      3  C   UNL     1      49.218   6.519  15.935  0.00  0.00    +0.000 C 
ATOM      4  N   UNL     1      48.934   7.942  16.117  0.00  0.00    +0.000 N 
ATOM      5  C   UNL     1      48.933   8.713  14.868  0.00  0.00    +0.000 C 
ATOM      6  C   UNL     1      47.875   8.143  13.925  0.00  0.00    +0.000 C 
ENDROOT
BRANCH   1  10
ATOM      7  C   UNL     1      44.945   4.745  11.219  0.00  0.00    +0.000 A 
ATOM      8  C   UNL     1      45.590   5.900  10.789  0.00  0.00    +0.000 A 
ATOM      9  C   UNL     1      46.556   6.511  11.601  0.00  0.00    +0.000 A 
ATOM     10  C   UNL     1      46.905   5.985  12.861  0.00  0.00    +0.000 A 
ATOM     11  C   UNL     1      46.209   4.845  13.292  0.00  0.00    +0.000 A 
ATOM     12  C   UNL     1      45.250   4.231  12.476  0.00  0.00    +0.000 A 
BRANCH   7  14
ATOM     13  C   UNL     1      44.472   2.878   9.828  0.00  0.00    +0.000 C 
ATOM     14  O   UNL     1      44.012   4.032  10.519  0.00  0.00    +0.000 OA
ENDBRANCH   7  14
ENDBRANCH   1  10
BRANCH   4  15
ATOM     15  C   UNL     1      48.399   8.454  17.285  0.00  0.00    +0.000 A 
ATOM     16  C   UNL     1      48.031   9.799  17.375  0.00  0.00    +0.000 A 
ATOM     17  C   UNL     1      47.540  10.305  18.570  0.00  0.00    +0.000 A 
ATOM     18  N   UNL     1      47.374   9.573  19.684  0.00  0.00    +0.000 NA
ATOM     19  C   UNL     1      47.727   8.260  19.618  0.00  0.00    +0.000 A 
ATOM     20  C   UNL     1      48.235   7.686  18.445  0.00  0.00    +0.000 A 
BRANCH  19  21
ATOM     21  C   UNL     1      47.572   7.379  20.849  0.00  0.00    +0.000 C 
ATOM     22  F   UNL     1      46.964   6.181  20.615  0.00  0.00    +0.000 F 
ATOM     23  F   UNL     1      48.771   7.078  21.430  0.00  0.00    +0.000 F 
ATOM     24  F   UNL     1      46.836   7.981  21.831  0.00  0.00    +0.000 F 
ENDBRANCH  19  21
ENDBRANCH   4  15
BRANCH   1  25
ATOM     25  O   UNL     1      49.281   6.454  12.967  0.00  0.00    +0.000 OA
ATOM     26  H   UNL     1      49.484   5.507  12.904  0.00  0.00    +0.000 HD
ENDBRANCH   1  25
TORSDOF 5
ENDMDL
