MODEL 1
REMARK VINA RESULT:    -8.183      0.000      0.000
REMARK INTER + INTRA:         -11.253
REMARK INTER:                 -10.814
REMARK INTRA:                  -0.439
REMARK UNBOUND:                -0.439
REMARK  Name = 
REMARK  7 active torsions:
REMARK  status: ('A' for Active; 'I' for Inactive)
REMARK    1  A    between atoms: C_1  and  C_2
REMARK    2  A    between atoms: C_3  and  C_4
REMARK    3  A    between atoms: C_6  and  C_7
REMARK    4  A    between atoms: C_7  and  N_8
REMARK    5  A    between atoms: C_10  and  C_11
REMARK    6  A    between atoms: C_11  and  N_12
REMARK    7  A    between atoms: C_16  and  C_17
REMARK                            x       y       z     vdW  Elec       q    Type
REMARK                         _______ _______ _______ _____ _____    ______ ____
ROOT
ATOM      1  C   UNL     1      43.654   5.031  10.421  0.00  0.00    +0.000 C 
ENDROOT
BRANCH   1   2
ATOM      2  N   UNL     1      43.959   3.604  10.305  0.00  0.00    +0.000 N 
ATOM      3  C   UNL     1      44.884   3.302   9.296  0.00  0.00    +0.000 A 
ATOM      4  C   UNL     1      45.266   1.974   9.108  0.00  0.00    +0.000 A 
ATOM      5  C   UNL     1      46.168   1.654   8.088  0.00  0.00    +0.000 A 
ATOM      6  C   UNL     1      46.674   2.665   7.273  0.00  0.00    +0.000 A 
ATOM      7  C   UNL     1      46.258   3.957   7.546  0.00  0.00    +0.000 A 
ATOM      8  N   UNL     1      45.392   4.290   8.535  0.00  0.00    +0.000 NA
ATOM      9  H   UNL     1      43.116   3.058  10.157  0.00  0.00    +0.000 HD
BRANCH   6  10
ATOM     10  C   UNL     1      47.606   2.322   6.172  0.00  0.00    +0.000 C 
ATOM     11  N   UNL     1      47.695   3.157   5.091  0.00  0.00    +0.000 N 
ATOM     12  O   UNL     1      48.286   1.304   6.216  0.00  0.00    +0.000 OA
ATOM     13  H   UNL     1      47.188   4.014   4.953  0.00  0.00    +0.000 HD
ATOM     14  H   UNL     1      48.339   2.878   4.361  0.00  0.00    +0.000 HD
ENDBRANCH   6  10
ENDBRANCH   1   2
BRANCH   1  19
ATOM     15  C   UNL     1      46.093   5.593  13.311  0.00  0.00    +0.000 A 
ATOM     16  C   UNL     1      46.250   6.981  13.282  0.00  0.00    +0.000 A 
ATOM     17  C   UNL     1      45.562   7.759  12.343  0.00  0.00    +0.000 A 
ATOM     18  C   UNL     1      44.721   7.119  11.422  0.00  0.00    +0.000 A 
ATOM     19  C   UNL     1      44.583   5.721  11.402  0.00  0.00    +0.000 A 
ATOM     20  C   UNL     1      45.266   4.964  12.374  0.00  0.00    +0.000 A 
BRANCH  15  23
ATOM     21  C   UNL     1      47.708   3.513  16.438  0.00  0.00    +0.000 C 
ATOM     22  C   UNL     1      47.226   4.241  15.264  0.00  0.00    +0.000 C 
ATOM     23  C   UNL     1      46.762   4.851  14.339  0.00  0.00    +0.000 C 
ENDBRANCH  15  23
BRANCH  17  24
ATOM     24  C   UNL     1      45.683   9.260  12.349  0.00  0.00    +0.000 C 
BRANCH  24  25
ATOM     25  N   UNL     1      44.391   9.907  12.548  0.00  0.00    +0.000 NA
ATOM     26  H   UNL     1      43.709   9.201  12.821  0.00  0.00    +0.000 HD
ATOM     27  H   UNL     1      44.073  10.294  11.662  0.00  0.00    +0.000 HD
ENDBRANCH  24  25
ENDBRANCH  17  24
ENDBRANCH   1  19
TORSDOF 6
ENDMDL
MODEL 2
REMARK VINA RESULT:    -8.053      1.557      3.418
REMARK INTER + INTRA:         -11.081
REMARK INTER:                 -10.642
REMARK INTRA:                  -0.439
REMARK UNBOUND:                -0.439
REMARK  Name = 
REMARK  7 active torsions:
REMARK  status: ('A' for Active; 'I' for Inactive)
REMARK    1  A    between atoms: C_1  and  C_2
REMARK    2  A    between atoms: C_3  and  C_4
REMARK    3  A    between atoms: C_6  and  C_7
REMARK    4  A    between atoms: C_7  and  N_8
REMARK    5  A    between atoms: C_10  and  C_11
REMARK    6  A    between atoms: C_11  and  N_12
REMARK    7  A    between atoms: C_16  and  C_17
REMARK                            x       y       z     vdW  Elec       q    Type
REMARK                         _______ _______ _______ _____ _____    ______ ____
ROOT
ATOM      1  C   UNL     1      43.689   4.974  10.610  0.00  0.00    +0.000 C 
ENDROOT
BRANCH   1   2
ATOM      2  N   UNL     1      43.927   3.541  10.429  0.00  0.00    +0.000 N 
ATOM      3  C   UNL     1      44.855   3.243   9.421  0.00  0.00    +0.000 A 
ATOM      4  C   UNL     1      45.175   1.909   9.174  0.00  0.00    +0.000 A 
ATOM      5  C   UNL     1      46.079   1.595   8.155  0.00  0.00    +0.000 A 
ATOM      6  C   UNL     1      46.649   2.618   7.399  0.00  0.00    +0.000 A 
ATOM      7  C   UNL     1      46.291   3.914   7.729  0.00  0.00    +0.000 A 
ATOM      8  N   UNL     1      45.424   4.241   8.718  0.00  0.00    +0.000 NA
ATOM      9  H   UNL     1      43.061   3.045  10.240  0.00  0.00    +0.000 HD
BRANCH   6  10
ATOM     10  C   UNL     1      47.584   2.283   6.298  0.00  0.00    +0.000 C 
ATOM     11  N   UNL     1      47.683   3.132   5.229  0.00  0.00    +0.000 N 
ATOM     12  O   UNL     1      48.257   1.260   6.331  0.00  0.00    +0.000 OA
ATOM     13  H   UNL     1      47.182   3.993   5.100  0.00  0.00    +0.000 HD
ATOM     14  H   UNL     1      48.329   2.858   4.498  0.00  0.00    +0.000 HD
ENDBRANCH   6  10
ENDBRANCH   1   2
BRANCH   1  19
ATOM     15  C   UNL     1      45.994   7.498  12.321  0.00  0.00    +0.000 A 
ATOM     16  C   UNL     1      46.567   6.719  13.330  0.00  0.00    +0.000 A 
ATOM     17  C   UNL     1      46.232   5.367  13.467  0.00  0.00    +0.000 A 
ATOM     18  C   UNL     1      45.301   4.809  12.579  0.00  0.00    +0.000 A 
ATOM     19  C   UNL     1      44.678   5.583  11.586  0.00  0.00    +0.000 A 
ATOM     20  C   UNL     1      45.052   6.934  11.454  0.00  0.00    +0.000 A 
BRANCH  15  23
ATOM     21  C   UNL     1      47.357  11.284  11.600  0.00  0.00    +0.000 C 
ATOM     22  C   UNL     1      46.831   9.967  11.956  0.00  0.00    +0.000 C 
ATOM     23  C   UNL     1      46.427   8.857  12.179  0.00  0.00    +0.000 C 
ENDBRANCH  15  23
BRANCH  17  24
ATOM     24  C   UNL     1      46.893   4.511  14.515  0.00  0.00    +0.000 C 
BRANCH  24  25
ATOM     25  N   UNL     1      47.278   3.207  13.987  0.00  0.00    +0.000 NA
ATOM     26  H   UNL     1      47.254   3.245  12.969  0.00  0.00    +0.000 HD
ATOM     27  H   UNL     1      46.587   2.516  14.269  0.00  0.00    +0.000 HD
ENDBRANCH  24  25
ENDBRANCH  17  24
ENDBRANCH   1  19
TORSDOF 6
ENDMDL
MODEL 3
REMARK VINA RESULT:    -6.571      3.803      7.165
REMARK INTER + INTRA:          -9.123
REMARK INTER:                  -8.582
REMARK INTRA:                  -0.541
REMARK UNBOUND:                -0.439
REMARK  Name = 
REMARK  7 active torsions:
REMARK  status: ('A' for Active; 'I' for Inactive)
REMARK    1  A    between atoms: C_1  and  C_2
REMARK    2  A    between atoms: C_3  and  C_4
REMARK    3  A    between atoms: C_6  and  C_7
REMARK    4  A    between atoms: C_7  and  N_8
REMARK    5  A    between atoms: C_10  and  C_11
REMARK    6  A    between atoms: C_11  and  N_12
REMARK    7  A    between atoms: C_16  and  C_17
REMARK                            x       y       z     vdW  Elec       q    Type
REMARK                         _______ _______ _______ _____ _____    ______ ____
ROOT
ATOM      1  C   UNL     1      45.571   6.991  11.270  0.00  0.00    +0.000 C 
ENDROOT
BRANCH   1   2
ATOM      2  N   UNL     1      46.165   6.875  12.602  0.00  0.00    +0.000 N 
ATOM      3  C   UNL     1      47.508   7.272  12.661  0.00  0.00    +0.000 A 
ATOM      4  C   UNL     1      48.172   7.223  13.886  0.00  0.00    +0.000 A 
ATOM      5  C   UNL     1      49.519   7.590  13.954  0.00  0.00    +0.000 A 
ATOM      6  C   UNL     1      50.182   8.001  12.799  0.00  0.00    +0.000 A 
ATOM      7  C   UNL     1      49.439   8.040  11.631  0.00  0.00    +0.000 A 
ATOM      8  N   UNL     1      48.130   7.697  11.545  0.00  0.00    +0.000 NA
ATOM      9  H   UNL     1      46.082   5.928  12.961  0.00  0.00    +0.000 HD
BRANCH   6  10
ATOM     10  C   UNL     1      51.619   8.360  12.866  0.00  0.00    +0.000 C 
ATOM     11  N   UNL     1      52.354   7.960  13.949  0.00  0.00    +0.000 N 
ATOM     12  O   UNL     1      52.148   9.013  11.975  0.00  0.00    +0.000 OA
ATOM     13  H   UNL     1      52.024   7.423  14.732  0.00  0.00    +0.000 HD
ATOM     14  H   UNL     1      53.329   8.235  13.955  0.00  0.00    +0.000 HD
ENDBRANCH   6  10
ENDBRANCH   1   2
BRANCH   1  19
ATOM     15  C   UNL     1      45.521   4.055   8.822  0.00  0.00    +0.000 A 
ATOM     16  C   UNL     1      44.700   3.143   9.492  0.00  0.00    +0.000 A 
ATOM     17  C   UNL     1      44.138   3.464  10.733  0.00  0.00    +0.000 A 
ATOM     18  C   UNL     1      44.423   4.715  11.300  0.00  0.00    +0.000 A 
ATOM     19  C   UNL     1      45.282   5.629  10.668  0.00  0.00    +0.000 A 
ATOM     20  C   UNL     1      45.813   5.291   9.408  0.00  0.00    +0.000 A 
BRANCH  15  23
ATOM     21  C   UNL     1      47.143   2.834   5.274  0.00  0.00    +0.000 C 
ATOM     22  C   UNL     1      46.495   3.339   6.485  0.00  0.00    +0.000 C 
ATOM     23  C   UNL     1      46.011   3.705   7.522  0.00  0.00    +0.000 C 
ENDBRANCH  15  23
BRANCH  17  24
ATOM     24  C   UNL     1      43.205   2.507  11.428  0.00  0.00    +0.000 C 
BRANCH  24  25
ATOM     25  N   UNL     1      43.512   2.385  12.848  0.00  0.00    +0.000 NA
ATOM     26  H   UNL     1      44.179   3.113  13.104  0.00  0.00    +0.000 HD
ATOM     27  H   UNL     1      43.976   1.495  13.013  0.00  0.00    +0.000 HD
ENDBRANCH  24  25
ENDBRANCH  17  24
ENDBRANCH   1  19
TORSDOF 6
ENDMDL
MODEL 4
REMARK VINA RESULT:    -6.515      4.762      7.856
REMARK INTER + INTRA:          -9.049
REMARK INTER:                  -8.518
REMARK INTRA:                  -0.532
REMARK UNBOUND:                -0.439
REMARK  Name = 
REMARK  7 active torsions:
REMARK  status: ('A' for Active; 'I' for Inactive)
REMARK    1  A    between atoms: C_1  and  C_2
REMARK    2  A    between atoms: C_3  and  C_4
REMARK    3  A    between atoms: C_6  and  C_7
REMARK    4  A    between atoms: C_7  and  N_8
REMARK    5  A    between atoms: C_10  and  C_11
REMARK    6  A    between atoms: C_11  and  N_12
REMARK    7  A    between atoms: C_16  and  C_17
REMARK                            x       y       z     vdW  Elec       q    Type
REMARK                         _______ _______ _______ _____ _____    ______ ____
ROOT
ATOM      1  C   UNL     1      46.596   4.294  15.273  0.00  0.00    +0.000 C 
ENDROOT
BRANCH   1   2
ATOM      2  N   UNL     1      47.606   4.968  16.090  0.00  0.00    +0.000 N 
ATOM      3  C   UNL     1      48.662   4.136  16.486  0.00  0.00    +0.000 A 
ATOM      4  C   UNL     1      49.694   4.677  17.252  0.00  0.00    +0.000 A 
ATOM      5  C   UNL     1      50.742   3.853  17.676  0.00  0.00    +0.000 A 
ATOM      6  C   UNL     1      50.742   2.503  17.329  0.00  0.00    +0.000 A 
ATOM      7  C   UNL     1      49.690   2.057  16.548  0.00  0.00    +0.000 A 
ATOM      8  N   UNL     1      48.669   2.840  16.119  0.00  0.00    +0.000 NA
ATOM      9  H   UNL     1      47.190   5.391  16.914  0.00  0.00    +0.000 HD
BRANCH   6  10
ATOM     10  C   UNL     1      51.837   1.624  17.805  0.00  0.00    +0.000 C 
ATOM     11  N   UNL     1      51.568   0.305  18.056  0.00  0.00    +0.000 N 
ATOM     12  O   UNL     1      52.966   2.062  17.983  0.00  0.00    +0.000 OA
ATOM     13  H   UNL     1      50.684  -0.158  17.943  0.00  0.00    +0.000 HD
ATOM     14  H   UNL     1      52.346  -0.255  18.386  0.00  0.00    +0.000 HD
ENDBRANCH   6  10
ENDBRANCH   1   2
BRANCH   1  19
ATOM     15  C   UNL     1      47.261   6.557  12.265  0.00  0.00    +0.000 A 
ATOM     16  C   UNL     1      46.292   6.114  11.359  0.00  0.00    +0.000 A 
ATOM     17  C   UNL     1      45.401   5.092  11.707  0.00  0.00    +0.000 A 
ATOM     18  C   UNL     1      45.505   4.510  12.979  0.00  0.00    +0.000 A 
ATOM     19  C   UNL     1      46.499   4.906  13.889  0.00  0.00    +0.000 A 
ATOM     20  C   UNL     1      47.366   5.954  13.523  0.00  0.00    +0.000 A 
BRANCH  15  23
ATOM     21  C   UNL     1      49.647   9.792  11.522  0.00  0.00    +0.000 C 
ATOM     22  C   UNL     1      48.801   8.609  11.679  0.00  0.00    +0.000 C 
ATOM     23  C   UNL     1      48.099   7.655  11.885  0.00  0.00    +0.000 C 
ENDBRANCH  15  23
BRANCH  17  24
ATOM     24  C   UNL     1      44.319   4.656  10.756  0.00  0.00    +0.000 C 
BRANCH  24  25
ATOM     25  N   UNL     1      43.281   5.670  10.613  0.00  0.00    +0.000 NA
ATOM     26  H   UNL     1      42.455   5.370  11.129  0.00  0.00    +0.000 HD
ATOM     27  H   UNL     1      43.008   5.731   9.634  0.00  0.00    +0.000 HD
ENDBRANCH  24  25
ENDBRANCH  17  24
ENDBRANCH   1  19
TORSDOF 6
ENDMDL
MODEL 5
REMARK VINA RESULT:    -6.424      4.978      8.653
REMARK INTER + INTRA:          -8.928
REMARK INTER:                  -8.476
REMARK INTRA:                  -0.452
REMARK UNBOUND:                -0.439
REMARK  Name = 
REMARK  7 active torsions:
REMARK  status: ('A' for Active; 'I' for Inactive)
REMARK    1  A    between atoms: C_1  and  C_2
REMARK    2  A    between atoms: C_3  and  C_4
REMARK    3  A    between atoms: C_6  and  C_7
REMARK    4  A    between atoms: C_7  and  N_8
REMARK    5  A    between atoms: C_10  and  C_11
REMARK    6  A    between atoms: C_11  and  N_12
REMARK    7  A    between atoms: C_16  and  C_17
REMARK                            x       y       z     vdW  Elec       q    Type
REMARK                         _______ _______ _______ _____ _____    ______ ____
ROOT
ATOM      1  C   UNL     1      47.148   3.890  14.514  0.00  0.00    +0.000 C 
ENDROOT
BRANCH   1   2
ATOM      2  N   UNL     1      46.635   4.268  15.831  0.00  0.00    +0.000 N 
ATOM      3  C   UNL     1      47.637   4.497  16.785  0.00  0.00    +0.000 A 
ATOM      4  C   UNL     1      47.265   4.884  18.072  0.00  0.00    +0.000 A 
ATOM      5  C   UNL     1      48.251   5.091  19.042  0.00  0.00    +0.000 A 
ATOM      6  C   UNL     1      49.593   4.908  18.711  0.00  0.00    +0.000 A 
ATOM      7  C   UNL     1      49.872   4.546  17.404  0.00  0.00    +0.000 A 
ATOM      8  N   UNL     1      48.932   4.350  16.446  0.00  0.00    +0.000 NA
ATOM      9  H   UNL     1      45.989   3.571  16.189  0.00  0.00    +0.000 HD
BRANCH   6  10
ATOM     10  C   UNL     1      50.636   5.097  19.747  0.00  0.00    +0.000 C 
ATOM     11  N   UNL     1      51.626   4.160  19.872  0.00  0.00    +0.000 N 
ATOM     12  O   UNL     1      50.618   6.071  20.490  0.00  0.00    +0.000 OA
ATOM     13  H   UNL     1      51.737   3.329  19.318  0.00  0.00    +0.000 HD
ATOM     14  H   UNL     1      52.312   4.328  20.599  0.00  0.00    +0.000 HD
ENDBRANCH   6  10
ENDBRANCH   1   2
BRANCH   1  19
ATOM     15  C   UNL     1      45.330   6.317  12.187  0.00  0.00    +0.000 A 
ATOM     16  C   UNL     1      44.583   5.441  11.393  0.00  0.00    +0.000 A 
ATOM     17  C   UNL     1      44.641   4.059  11.605  0.00  0.00    +0.000 A 
ATOM     18  C   UNL     1      45.472   3.565  12.620  0.00  0.00    +0.000 A 
ATOM     19  C   UNL     1      46.267   4.422  13.399  0.00  0.00    +0.000 A 
ATOM     20  C   UNL     1      46.170   5.811  13.183  0.00  0.00    +0.000 A 
BRANCH  15  23
ATOM     21  C   UNL     1      45.146  10.386  11.835  0.00  0.00    +0.000 C 
ATOM     22  C   UNL     1      45.133   8.924  11.881  0.00  0.00    +0.000 C 
ATOM     23  C   UNL     1      45.178   7.727  11.977  0.00  0.00    +0.000 C 
ENDBRANCH  15  23
BRANCH  17  24
ATOM     24  C   UNL     1      43.791   3.118  10.792  0.00  0.00    +0.000 C 
BRANCH  24  25
ATOM     25  N   UNL     1      43.050   2.189  11.637  0.00  0.00    +0.000 NA
ATOM     26  H   UNL     1      42.667   1.448  11.052  0.00  0.00    +0.000 HD
ATOM     27  H   UNL     1      42.257   2.674  12.049  0.00  0.00    +0.000 HD
ENDBRANCH  24  25
ENDBRANCH  17  24
ENDBRANCH   1  19
TORSDOF 6
ENDMDL
MODEL 6
REMARK VINA RESULT:    -6.418      4.483      8.016
REMARK INTER + INTRA:          -8.920
REMARK INTER:                  -8.534
REMARK INTRA:                  -0.386
REMARK UNBOUND:                -0.439
REMARK  Name = 
REMARK  7 active torsions:
REMARK  status: ('A' for Active; 'I' for Inactive)
REMARK    1  A    between atoms: C_1  and  C_2
REMARK    2  A    between atoms: C_3  and  C_4
REMARK    3  A    between atoms: C_6  and  C_7
REMARK    4  A    between atoms: C_7  and  N_8
REMARK    5  A    between atoms: C_10  and  C_11
REMARK    6  A    between atoms: C_11  and  N_12
REMARK    7  A    between atoms: C_16  and  C_17
REMARK                            x       y       z     vdW  Elec       q    Type
REMARK                         _______ _______ _______ _____ _____    ______ ____
ROOT
ATOM      1  C   UNL     1      46.528   5.056  14.150  0.00  0.00    +0.000 C 
ENDROOT
BRANCH   1   2
ATOM      2  N   UNL     1      46.613   3.910  15.057  0.00  0.00    +0.000 N 
ATOM      3  C   UNL     1      47.579   4.055  16.063  0.00  0.00    +0.000 A 
ATOM      4  C   UNL     1      47.734   3.033  16.999  0.00  0.00    +0.000 A 
ATOM      5  C   UNL     1      48.711   3.150  17.992  0.00  0.00    +0.000 A 
ATOM      6  C   UNL     1      49.517   4.287  18.035  0.00  0.00    +0.000 A 
ATOM      7  C   UNL     1      49.278   5.261  17.081  0.00  0.00    +0.000 A 
ATOM      8  N   UNL     1      48.331   5.171  16.115  0.00  0.00    +0.000 NA
ATOM      9  H   UNL     1      46.789   3.050  14.548  0.00  0.00    +0.000 HD
BRANCH   6  10
ATOM     10  C   UNL     1      50.574   4.397  19.070  0.00  0.00    +0.000 C 
ATOM     11  N   UNL     1      50.209   4.621  20.370  0.00  0.00    +0.000 N 
ATOM     12  O   UNL     1      51.758   4.298  18.775  0.00  0.00    +0.000 OA
ATOM     13  H   UNL     1      49.273   4.716  20.722  0.00  0.00    +0.000 HD
ATOM     14  H   UNL     1      50.966   4.696  21.040  0.00  0.00    +0.000 HD
ENDBRANCH   6  10
ENDBRANCH   1   2
BRANCH   1  19
ATOM     15  C   UNL     1      44.938   3.656  10.968  0.00  0.00    +0.000 A 
ATOM     16  C   UNL     1      43.746   4.384  10.904  0.00  0.00    +0.000 A 
ATOM     17  C   UNL     1      43.443   5.346  11.874  0.00  0.00    +0.000 A 
ATOM     18  C   UNL     1      44.352   5.559  12.921  0.00  0.00    +0.000 A 
ATOM     19  C   UNL     1      45.533   4.808  13.031  0.00  0.00    +0.000 A 
ATOM     20  C   UNL     1      45.827   3.865  12.027  0.00  0.00    +0.000 A 
BRANCH  15  23
ATOM     21  C   UNL     1      46.125   1.100   8.007  0.00  0.00    +0.000 C 
ATOM     22  C   UNL     1      45.594   1.987   9.042  0.00  0.00    +0.000 C 
ATOM     23  C   UNL     1      45.234   2.736   9.909  0.00  0.00    +0.000 C 
ENDBRANCH  15  23
BRANCH  17  24
ATOM     24  C   UNL     1      42.188   6.173  11.774  0.00  0.00    +0.000 C 
BRANCH  24  25
ATOM     25  N   UNL     1      42.444   7.475  11.168  0.00  0.00    +0.000 NA
ATOM     26  H   UNL     1      42.529   8.171  11.907  0.00  0.00    +0.000 HD
ATOM     27  H   UNL     1      41.640   7.743  10.605  0.00  0.00    +0.000 HD
ENDBRANCH  24  25
ENDBRANCH  17  24
ENDBRANCH   1  19
TORSDOF 6
ENDMDL
MODEL 7
REMARK VINA RESULT:    -6.229      4.355      6.923
REMARK INTER + INTRA:          -8.670
REMARK INTER:                  -8.270
REMARK INTRA:                  -0.400
REMARK UNBOUND:                -0.439
REMARK  Name = 
REMARK  7 active torsions:
REMARK  status: ('A' for Active; 'I' for Inactive)
REMARK    1  A    between atoms: C_1  and  C_2
REMARK    2  A    between atoms: C_3  and  C_4
REMARK    3  A    between atoms: C_6  and  C_7
REMARK    4  A    between atoms: C_7  and  N_8
REMARK    5  A    between atoms: C_10  and  C_11
REMARK    6  A    between atoms: C_11  and  N_12
REMARK    7  A    between atoms: C_16  and  C_17
REMARK                            x       y       z     vdW  Elec       q    Type
REMARK                         _______ _______ _______ _____ _____    ______ ____
ROOT
ATOM      1  C   UNL     1      47.323   4.141  15.990  0.00  0.00    +0.000 C 
ENDROOT
BRANCH   1   2
ATOM      2  N   UNL     1      47.287   5.272  15.062  0.00  0.00    +0.000 N 
ATOM      3  C   UNL     1      46.580   5.011  13.879  0.00  0.00    +0.000 A 
ATOM      4  C   UNL     1      46.463   6.024  12.929  0.00  0.00    +0.000 A 
ATOM      5  C   UNL     1      45.783   5.772  11.733  0.00  0.00    +0.000 A 
ATOM      6  C   UNL     1      45.232   4.512  11.506  0.00  0.00    +0.000 A 
ATOM      7  C   UNL     1      45.377   3.574  12.514  0.00  0.00    +0.000 A 
ATOM      8  N   UNL     1      46.024   3.801  13.683  0.00  0.00    +0.000 NA
ATOM      9  H   UNL     1      48.224   5.585  14.826  0.00  0.00    +0.000 HD
BRANCH   6  10
ATOM     10  C   UNL     1      44.538   4.235  10.225  0.00  0.00    +0.000 C 
ATOM     11  N   UNL     1      44.971   4.860   9.086  0.00  0.00    +0.000 N 
ATOM     12  O   UNL     1      43.587   3.465  10.176  0.00  0.00    +0.000 OA
ATOM     13  H   UNL     1      45.737   5.506   9.012  0.00  0.00    +0.000 HD
ATOM     14  H   UNL     1      44.462   4.646   8.237  0.00  0.00    +0.000 HD
ENDBRANCH   6  10
ENDBRANCH   1   2
BRANCH   1  19
ATOM     15  C   UNL     1      48.398   5.591  19.360  0.00  0.00    +0.000 A 
ATOM     16  C   UNL     1      49.709   5.118  19.466  0.00  0.00    +0.000 A 
ATOM     17  C   UNL     1      50.272   4.338  18.449  0.00  0.00    +0.000 A 
ATOM     18  C   UNL     1      49.493   4.030  17.324  0.00  0.00    +0.000 A 
ATOM     19  C   UNL     1      48.158   4.455  17.217  0.00  0.00    +0.000 A 
ATOM     20  C   UNL     1      47.625   5.260  18.243  0.00  0.00    +0.000 A 
BRANCH  15  23
ATOM     21  C   UNL     1      47.125   8.298  22.147  0.00  0.00    +0.000 C 
ATOM     22  C   UNL     1      47.526   7.250  21.208  0.00  0.00    +0.000 C 
ATOM     23  C   UNL     1      47.895   6.446  20.395  0.00  0.00    +0.000 C 
ENDBRANCH  15  23
BRANCH  17  24
ATOM     24  C   UNL     1      51.704   3.878  18.533  0.00  0.00    +0.000 C 
BRANCH  24  25
ATOM     25  N   UNL     1      51.846   2.476  18.158  0.00  0.00    +0.000 NA
ATOM     26  H   UNL     1      51.748   1.901  18.994  0.00  0.00    +0.000 HD
ATOM     27  H   UNL     1      52.787   2.319  17.805  0.00  0.00    +0.000 HD
ENDBRANCH  24  25
ENDBRANCH  17  24
ENDBRANCH   1  19
TORSDOF 6
ENDMDL
MODEL 8
REMARK VINA RESULT:    -5.842      3.655      5.458
REMARK INTER + INTRA:          -8.160
REMARK INTER:                  -7.625
REMARK INTRA:                  -0.535
REMARK UNBOUND:                -0.439
REMARK  Name = 
REMARK  7 active torsions:
REMARK  status: ('A' for Active; 'I' for Inactive)
REMARK    1  A    between atoms: C_1  and  C_2
REMARK    2  A    between atoms: C_3  and  C_4
REMARK    3  A    between atoms: C_6  and  C_7
REMARK    4  A    between atoms: C_7  and  N_8
REMARK    5  A    between atoms: C_10  and  C_11
REMARK    6  A    between atoms: C_11  and  N_12
REMARK    7  A    between atoms: C_16  and  C_17
REMARK                            x       y       z     vdW  Elec       q    Type
REMARK                         _______ _______ _______ _____ _____    ______ ____
ROOT
ATOM      1  C   UNL     1      45.904   8.518  13.024  0.00  0.00    +0.000 C 
ENDROOT
BRANCH   1   2
ATOM      2  N   UNL     1      46.384   7.223  13.509  0.00  0.00    +0.000 N 
ATOM      3  C   UNL     1      45.794   6.124  12.868  0.00  0.00    +0.000 A 
ATOM      4  C   UNL     1      46.191   4.839  13.235  0.00  0.00    +0.000 A 
ATOM      5  C   UNL     1      45.593   3.732  12.624  0.00  0.00    +0.000 A 
ATOM      6  C   UNL     1      44.609   3.927  11.656  0.00  0.00    +0.000 A 
ATOM      7  C   UNL     1      44.293   5.237  11.338  0.00  0.00    +0.000 A 
ATOM      8  N   UNL     1      44.867   6.323  11.912  0.00  0.00    +0.000 NA
ATOM      9  H   UNL     1      46.252   7.133  14.512  0.00  0.00    +0.000 HD
BRANCH   6  10
ATOM     10  C   UNL     1      43.953   2.753  11.031  0.00  0.00    +0.000 C 
ATOM     11  N   UNL     1      44.517   2.193   9.917  0.00  0.00    +0.000 N 
ATOM     12  O   UNL     1      42.918   2.289  11.492  0.00  0.00    +0.000 OA
ATOM     13  H   UNL     1      45.360   2.490   9.458  0.00  0.00    +0.000 HD
ATOM     14  H   UNL     1      44.030   1.398   9.520  0.00  0.00    +0.000 HD
ENDBRANCH   6  10
ENDBRANCH   1   2
BRANCH   1  19
ATOM     15  C   UNL     1      49.268   9.369  11.422  0.00  0.00    +0.000 A 
ATOM     16  C   UNL     1      49.052  10.680  10.990  0.00  0.00    +0.000 A 
ATOM     17  C   UNL     1      47.826  11.316  11.221  0.00  0.00    +0.000 A 
ATOM     18  C   UNL     1      46.813  10.609  11.884  0.00  0.00    +0.000 A 
ATOM     19  C   UNL     1      46.991   9.275  12.286  0.00  0.00    +0.000 A 
ATOM     20  C   UNL     1      48.243   8.668  12.065  0.00  0.00    +0.000 A 
BRANCH  15  23
ATOM     21  C   UNL     1      52.815   7.497  10.631  0.00  0.00    +0.000 C 
ATOM     22  C   UNL     1      51.602   8.233  10.985  0.00  0.00    +0.000 C 
ATOM     23  C   UNL     1      50.565   8.791  11.226  0.00  0.00    +0.000 C 
ENDBRANCH  15  23
BRANCH  17  24
ATOM     24  C   UNL     1      47.612  12.749  10.810  0.00  0.00    +0.000 C 
BRANCH  24  25
ATOM     25  N   UNL     1      46.459  12.894   9.929  0.00  0.00    +0.000 NA
ATOM     26  H   UNL     1      45.628  13.048  10.498  0.00  0.00    +0.000 HD
ATOM     27  H   UNL     1      46.311  12.021   9.428  0.00  0.00    +0.000 HD
ENDBRANCH  24  25
ENDBRANCH  17  24
ENDBRANCH   1  19
TORSDOF 6
ENDMDL
MODEL 9
REMARK VINA RESULT:    -5.776      5.082      7.659
REMARK INTER + INTRA:          -8.072
REMARK INTER:                  -7.526
REMARK INTRA:                  -0.545
REMARK UNBOUND:                -0.439
REMARK  Name = 
REMARK  7 active torsions:
REMARK  status: ('A' for Active; 'I' for Inactive)
REMARK    1  A    between atoms: C_1  and  C_2
REMARK    2  A    between atoms: C_3  and  C_4
REMARK    3  A    between atoms: C_6  and  C_7
REMARK    4  A    between atoms: C_7  and  N_8
REMARK    5  A    between atoms: C_10  and  C_11
REMARK    6  A    between atoms: C_11  and  N_12
REMARK    7  A    between atoms: C_16  and  C_17
REMARK                            x       y       z     vdW  Elec       q    Type
REMARK                         _______ _______ _______ _____ _____    ______ ____
ROOT
ATOM      1  C   UNL     1      49.542   6.450  16.206  0.00  0.00    +0.000 C 
ENDROOT
BRANCH   1   2
ATOM      2  N   UNL     1      48.801   7.186  15.180  0.00  0.00    +0.000 N 
ATOM      3  C   UNL     1      47.901   6.393  14.454  0.00  0.00    +0.000 A 
ATOM      4  C   UNL     1      47.125   6.993  13.463  0.00  0.00    +0.000 A 
ATOM      5  C   UNL     1      46.242   6.211  12.712  0.00  0.00    +0.000 A 
ATOM      6  C   UNL     1      46.147   4.843  12.963  0.00  0.00    +0.000 A 
ATOM      7  C   UNL     1      46.938   4.337  13.980  0.00  0.00    +0.000 A 
ATOM      8  N   UNL     1      47.794   5.079  14.726  0.00  0.00    +0.000 NA
ATOM      9  H   UNL     1      49.431   7.650  14.533  0.00  0.00    +0.000 HD
BRANCH   6  10
ATOM     10  C   UNL     1      45.234   4.009  12.146  0.00  0.00    +0.000 C 
ATOM     11  N   UNL     1      45.037   2.700  12.496  0.00  0.00    +0.000 N 
ATOM     12  O   UNL     1      44.663   4.472  11.166  0.00  0.00    +0.000 OA
ATOM     13  H   UNL     1      45.450   2.220  13.276  0.00  0.00    +0.000 HD
ATOM     14  H   UNL     1      44.410   2.168  11.904  0.00  0.00    +0.000 HD
ENDBRANCH   6  10
ENDBRANCH   1   2
BRANCH   1  19
ATOM     15  C   UNL     1      47.747   8.044  19.181  0.00  0.00    +0.000 A 
ATOM     16  C   UNL     1      47.835   7.030  20.140  0.00  0.00    +0.000 A 
ATOM     17  C   UNL     1      48.486   5.825  19.849  0.00  0.00    +0.000 A 
ATOM     18  C   UNL     1      49.039   5.647  18.573  0.00  0.00    +0.000 A 
ATOM     19  C   UNL     1      48.922   6.633  17.579  0.00  0.00    +0.000 A 
ATOM     20  C   UNL     1      48.286   7.846  17.906  0.00  0.00    +0.000 A 
BRANCH  15  23
ATOM     21  C   UNL     1      45.746  11.392  20.402  0.00  0.00    +0.000 C 
ATOM     22  C   UNL     1      46.539  10.262  19.919  0.00  0.00    +0.000 C 
ATOM     23  C   UNL     1      47.135   9.285  19.555  0.00  0.00    +0.000 C 
ENDBRANCH  15  23
BRANCH  17  24
ATOM     24  C   UNL     1      48.634   4.756  20.900  0.00  0.00    +0.000 C 
BRANCH  24  25
ATOM     25  N   UNL     1      48.390   3.425  20.357  0.00  0.00    +0.000 NA
ATOM     26  H   UNL     1      49.025   2.766  20.805  0.00  0.00    +0.000 HD
ATOM     27  H   UNL     1      48.619   3.422  19.365  0.00  0.00    +0.000 HD
ENDBRANCH  24  25
ENDBRANCH  17  24
ENDBRANCH   1  19
TORSDOF 6
ENDMDL
