MODEL 1
REMARK VINA RESULT:    -8.158      0.000      0.000
REMARK INTER + INTRA:         -11.768
REMARK INTER:                 -10.543
REMARK INTRA:                  -1.226
REMARK UNBOUND:                -1.226
REMARK  Name = 
REMARK  5 active torsions:
REMARK  status: ('A' for Active; 'I' for Inactive)
REMARK    1  A    between atoms: C_2  and  C_4
REMARK    2  A    between atoms: C_9  and  O_10
REMARK    3  A    between atoms: O_10  and  C_11
REMARK    4  A    between atoms: C_11  and  C_12
REMARK    5  A    between atoms: C_16  and  C_17
REMARK                            x       y       z     vdW  Elec       q    Type
REMARK                         _______ _______ _______ _____ _____    ______ ____
ROOT
ATOM      1  O   UNL     1      44.817   6.926  12.636  0.00  0.00    +0.000 OA
ENDROOT
BRANCH   1   7
ATOM      2  C   UNL     1      48.248   7.995  12.171  0.00  0.00    +0.000 A 
ATOM      3  C   UNL     1      48.951   6.915  12.676  0.00  0.00    +0.000 A 
ATOM      4  N   UNL     1      48.358   5.825  13.208  0.00  0.00    +0.000 NA
ATOM      5  C   UNL     1      47.002   5.792  13.217  0.00  0.00    +0.000 A 
ATOM      6 CL   UNL     1      46.485   4.319  13.944  0.00  0.00    +0.000 Cl
ATOM      7  C   UNL     1      46.185   6.815  12.712  0.00  0.00    +0.000 A 
ATOM      8  C   UNL     1      46.852   7.937  12.186  0.00  0.00    +0.000 A 
BRANCH   2  10
ATOM      9  N   UNL     1      50.379   8.973  11.513  0.00  0.00    +0.000 N 
ATOM     10  C   UNL     1      49.027   9.131  11.633  0.00  0.00    +0.000 C 
ATOM     11  O   UNL     1      48.479  10.163  11.273  0.00  0.00    +0.000 OA
ATOM     12  H   UNL     1      50.870   9.720  11.038  0.00  0.00    +0.000 HD
ATOM     13  H   UNL     1      50.833   8.074  11.568  0.00  0.00    +0.000 HD
ENDBRANCH   2  10
ENDBRANCH   1   7
BRANCH   1  14
ATOM     14  C   UNL     1      44.183   6.570  11.411  0.00  0.00    +0.000 C 
BRANCH  14  15
ATOM     15  C   UNL     1      44.228   5.081  11.140  0.00  0.00    +0.000 A 
ATOM     16  C   UNL     1      43.366   4.204  11.805  0.00  0.00    +0.000 A 
ATOM     17  C   UNL     1      43.305   2.864  11.426  0.00  0.00    +0.000 A 
ATOM     18  C   UNL     1      44.094   2.395  10.372  0.00  0.00    +0.000 A 
ATOM     19  C   UNL     1      44.962   3.247   9.668  0.00  0.00    +0.000 A 
ATOM     20  C   UNL     1      45.042   4.584  10.105  0.00  0.00    +0.000 A 
BRANCH  19  21
ATOM     21  C   UNL     1      45.668   2.800   8.443  0.00  0.00    +0.000 A 
ATOM     22  C   UNL     1      45.932   3.705   7.396  0.00  0.00    +0.000 A 
ATOM     23  C   UNL     1      46.678   3.334   6.274  0.00  0.00    +0.000 A 
ATOM     24  C   UNL     1      47.187   2.044   6.175  0.00  0.00    +0.000 A 
ATOM     25  C   UNL     1      46.934   1.123   7.188  0.00  0.00    +0.000 A 
ATOM     26  C   UNL     1      46.174   1.495   8.304  0.00  0.00    +0.000 A 
ENDBRANCH  19  21
ENDBRANCH  14  15
ENDBRANCH   1  14
TORSDOF 5
ENDMDL
MODEL 2
REMARK VINA RESULT:    -7.757      1.893      2.986
REMARK INTER + INTRA:         -11.250
REMARK INTER:                 -10.902
REMARK INTRA:                  -0.348
REMARK UNBOUND:                -1.226
REMARK  Name = 
REMARK  5 active torsions:
REMARK  status: ('A' for Active; 'I' for Inactive)
REMARK    1  A    between atoms: C_2  and  C_4
REMARK    2  A    between atoms: C_9  and  O_10
REMARK    3  A    between atoms: O_10  and  C_11
REMARK    4  A    between atoms: C_11  and  C_12
REMARK    5  A    between atoms: C_16  and  C_17
REMARK                            x       y       z     vdW  Elec       q    Type
REMARK                         _______ _______ _______ _____ _____    ______ ____
ROOT
ATOM      1  O   UNL     1      45.545   7.066  11.347  0.00  0.00    +0.000 OA
ENDROOT
BRANCH   1   7
ATOM      2  C   UNL     1      47.295   5.556  14.138  0.00  0.00    +0.000 A 
ATOM      3  C   UNL     1      48.276   6.498  14.399  0.00  0.00    +0.000 A 
ATOM      4  N   UNL     1      48.431   7.628  13.678  0.00  0.00    +0.000 NA
ATOM      5  C   UNL     1      47.558   7.849  12.664  0.00  0.00    +0.000 A 
ATOM      6 CL   UNL     1      47.960   9.337  11.896  0.00  0.00    +0.000 Cl
ATOM      7  C   UNL     1      46.510   6.980  12.322  0.00  0.00    +0.000 A 
ATOM      8  C   UNL     1      46.403   5.807  13.093  0.00  0.00    +0.000 A 
BRANCH   2  10
ATOM      9  N   UNL     1      46.954   4.532  16.321  0.00  0.00    +0.000 N 
ATOM     10  C   UNL     1      47.250   4.354  14.999  0.00  0.00    +0.000 C 
ATOM     11  O   UNL     1      47.434   3.237  14.539  0.00  0.00    +0.000 OA
ATOM     12  H   UNL     1      46.818   3.685  16.860  0.00  0.00    +0.000 HD
ATOM     13  H   UNL     1      46.565   5.387  16.686  0.00  0.00    +0.000 HD
ENDBRANCH   2  10
ENDBRANCH   1   7
BRANCH   1  14
ATOM     14  C   UNL     1      44.288   6.443  11.591  0.00  0.00    +0.000 C 
BRANCH  14  15
ATOM     15  C   UNL     1      44.289   4.969  11.246  0.00  0.00    +0.000 A 
ATOM     16  C   UNL     1      43.402   4.086  11.869  0.00  0.00    +0.000 A 
ATOM     17  C   UNL     1      43.301   2.769  11.424  0.00  0.00    +0.000 A 
ATOM     18  C   UNL     1      44.073   2.329  10.345  0.00  0.00    +0.000 A 
ATOM     19  C   UNL     1      44.965   3.190   9.682  0.00  0.00    +0.000 A 
ATOM     20  C   UNL     1      45.086   4.501  10.185  0.00  0.00    +0.000 A 
BRANCH  19  21
ATOM     21  C   UNL     1      45.655   2.785   8.433  0.00  0.00    +0.000 A 
ATOM     22  C   UNL     1      45.885   3.717   7.404  0.00  0.00    +0.000 A 
ATOM     23  C   UNL     1      46.616   3.386   6.261  0.00  0.00    +0.000 A 
ATOM     24  C   UNL     1      47.144   2.107   6.121  0.00  0.00    +0.000 A 
ATOM     25  C   UNL     1      46.925   1.158   7.116  0.00  0.00    +0.000 A 
ATOM     26  C   UNL     1      46.180   1.491   8.255  0.00  0.00    +0.000 A 
ENDBRANCH  19  21
ENDBRANCH  14  15
ENDBRANCH   1  14
TORSDOF 5
ENDMDL
MODEL 3
REMARK VINA RESULT:    -7.592      1.838      2.157
REMARK INTER + INTRA:         -11.036
REMARK INTER:                 -10.095
REMARK INTRA:                  -0.942
REMARK UNBOUND:                -1.226
REMARK  Name = 
REMARK  5 active torsions:
REMARK  status: ('A' for Active; 'I' for Inactive)
REMARK    1  A    between atoms: C_2  and  C_4
REMARK    2  A    between atoms: C_9  and  O_10
REMARK    3  A    between atoms: O_10  and  C_11
REMARK    4  A    between atoms: C_11  and  C_12
REMARK    5  A    between atoms: C_16  and  C_17
REMARK                            x       y       z     vdW  Elec       q    Type
REMARK                         _______ _______ _______ _____ _____    ______ ____
ROOT
ATOM      1  O   UNL     1      44.803   7.004  12.554  0.00  0.00    +0.000 OA
ENDROOT
BRANCH   1   7
ATOM      2  C   UNL     1      48.204   8.193  12.169  0.00  0.00    +0.000 A 
ATOM      3  C   UNL     1      48.007   9.545  11.948  0.00  0.00    +0.000 A 
ATOM      4  N   UNL     1      46.786  10.117  11.884  0.00  0.00    +0.000 NA
ATOM      5  C   UNL     1      45.708   9.316  12.073  0.00  0.00    +0.000 A 
ATOM      6 CL   UNL     1      44.277  10.265  11.940  0.00  0.00    +0.000 Cl
ATOM      7  C   UNL     1      45.786   7.938  12.329  0.00  0.00    +0.000 A 
ATOM      8  C   UNL     1      47.080   7.387  12.367  0.00  0.00    +0.000 A 
BRANCH   2  10
ATOM      9  N   UNL     1      50.104   7.300  13.403  0.00  0.00    +0.000 N 
ATOM     10  C   UNL     1      49.597   7.698  12.198  0.00  0.00    +0.000 C 
ATOM     11  O   UNL     1      50.262   7.611  11.176  0.00  0.00    +0.000 OA
ATOM     12  H   UNL     1      51.016   6.860  13.375  0.00  0.00    +0.000 HD
ATOM     13  H   UNL     1      49.526   7.129  14.212  0.00  0.00    +0.000 HD
ENDBRANCH   2  10
ENDBRANCH   1   7
BRANCH   1  14
ATOM     14  C   UNL     1      44.016   6.578  11.446  0.00  0.00    +0.000 C 
BRANCH  14  15
ATOM     15  C   UNL     1      44.126   5.091  11.188  0.00  0.00    +0.000 A 
ATOM     16  C   UNL     1      43.307   4.182  11.866  0.00  0.00    +0.000 A 
ATOM     17  C   UNL     1      43.303   2.837  11.499  0.00  0.00    +0.000 A 
ATOM     18  C   UNL     1      44.106   2.394  10.445  0.00  0.00    +0.000 A 
ATOM     19  C   UNL     1      44.933   3.277   9.729  0.00  0.00    +0.000 A 
ATOM     20  C   UNL     1      44.956   4.620  10.153  0.00  0.00    +0.000 A 
BRANCH  19  21
ATOM     21  C   UNL     1      45.651   2.851   8.503  0.00  0.00    +0.000 A 
ATOM     22  C   UNL     1      45.951   3.778   7.487  0.00  0.00    +0.000 A 
ATOM     23  C   UNL     1      46.710   3.424   6.369  0.00  0.00    +0.000 A 
ATOM     24  C   UNL     1      47.196   2.128   6.242  0.00  0.00    +0.000 A 
ATOM     25  C   UNL     1      46.907   1.184   7.224  0.00  0.00    +0.000 A 
ATOM     26  C   UNL     1      46.135   1.540   8.337  0.00  0.00    +0.000 A 
ENDBRANCH  19  21
ENDBRANCH  14  15
ENDBRANCH   1  14
TORSDOF 5
ENDMDL
MODEL 4
REMARK VINA RESULT:    -7.493      3.273      6.712
REMARK INTER + INTRA:         -10.909
REMARK INTER:                 -10.149
REMARK INTRA:                  -0.760
REMARK UNBOUND:                -1.226
REMARK  Name = 
REMARK  5 active torsions:
REMARK  status: ('A' for Active; 'I' for Inactive)
REMARK    1  A    between atoms: C_2  and  C_4
REMARK    2  A    between atoms: C_9  and  O_10
REMARK    3  A    between atoms: O_10  and  C_11
REMARK    4  A    between atoms: C_11  and  C_12
REMARK    5  A    between atoms: C_16  and  C_17
REMARK                            x       y       z     vdW  Elec       q    Type
REMARK                         _______ _______ _______ _____ _____    ______ ____
ROOT
ATOM      1  O   UNL     1      45.035   5.248   9.435  0.00  0.00    +0.000 OA
ENDROOT
BRANCH   1   7
ATOM      2  C   UNL     1      46.583   2.603   7.502  0.00  0.00    +0.000 A 
ATOM      3  C   UNL     1      46.031   1.472   8.078  0.00  0.00    +0.000 A 
ATOM      4  N   UNL     1      45.172   1.512   9.119  0.00  0.00    +0.000 NA
ATOM      5  C   UNL     1      44.824   2.733   9.597  0.00  0.00    +0.000 A 
ATOM      6 CL   UNL     1      43.735   2.526  10.915  0.00  0.00    +0.000 Cl
ATOM      7  C   UNL     1      45.299   3.947   9.078  0.00  0.00    +0.000 A 
ATOM      8  C   UNL     1      46.206   3.850   8.006  0.00  0.00    +0.000 A 
BRANCH   2  10
ATOM      9  N   UNL     1      47.341   3.178   5.261  0.00  0.00    +0.000 N 
ATOM     10  C   UNL     1      47.523   2.411   6.377  0.00  0.00    +0.000 C 
ATOM     11  O   UNL     1      48.453   1.621   6.454  0.00  0.00    +0.000 OA
ATOM     12  H   UNL     1      48.065   3.108   4.554  0.00  0.00    +0.000 HD
ATOM     13  H   UNL     1      46.751   3.995   5.246  0.00  0.00    +0.000 HD
ENDBRANCH   2  10
ENDBRANCH   1   7
BRANCH   1  14
ATOM     14  C   UNL     1      44.573   5.499  10.759  0.00  0.00    +0.000 C 
BRANCH  14  15
ATOM     15  C   UNL     1      45.699   5.789  11.727  0.00  0.00    +0.000 A 
ATOM     16  C   UNL     1      45.950   4.943  12.811  0.00  0.00    +0.000 A 
ATOM     17  C   UNL     1      47.088   5.130  13.595  0.00  0.00    +0.000 A 
ATOM     18  C   UNL     1      47.989   6.155  13.292  0.00  0.00    +0.000 A 
ATOM     19  C   UNL     1      47.781   7.018  12.202  0.00  0.00    +0.000 A 
ATOM     20  C   UNL     1      46.598   6.839  11.458  0.00  0.00    +0.000 A 
BRANCH  19  21
ATOM     21  C   UNL     1      48.814   7.991  11.771  0.00  0.00    +0.000 A 
ATOM     22  C   UNL     1      48.529   9.369  11.726  0.00  0.00    +0.000 A 
ATOM     23  C   UNL     1      49.511  10.314  11.417  0.00  0.00    +0.000 A 
ATOM     24  C   UNL     1      50.811   9.900  11.149  0.00  0.00    +0.000 A 
ATOM     25  C   UNL     1      51.122   8.544  11.172  0.00  0.00    +0.000 A 
ATOM     26  C   UNL     1      50.132   7.600  11.470  0.00  0.00    +0.000 A 
ENDBRANCH  19  21
ENDBRANCH  14  15
ENDBRANCH   1  14
TORSDOF 5
ENDMDL
MODEL 5
REMARK VINA RESULT:    -7.307      3.659      7.296
REMARK INTER + INTRA:         -10.669
REMARK INTER:                  -9.896
REMARK INTRA:                  -0.773
REMARK UNBOUND:                -1.226
REMARK  Name = 
REMARK  5 active torsions:
REMARK  status: ('A' for Active; 'I' for Inactive)
REMARK    1  A    between atoms: C_2  and  C_4
REMARK    2  A    between atoms: C_9  and  O_10
REMARK    3  A    between atoms: O_10  and  C_11
REMARK    4  A    between atoms: C_11  and  C_12
REMARK    5  A    between atoms: C_16  and  C_17
REMARK                            x       y       z     vdW  Elec       q    Type
REMARK                         _______ _______ _______ _____ _____    ______ ____
ROOT
ATOM      1  O   UNL     1      45.103   5.404   9.770  0.00  0.00    +0.000 OA
ENDROOT
BRANCH   1   7
ATOM      2  C   UNL     1      46.348   2.695   7.710  0.00  0.00    +0.000 A 
ATOM      3  C   UNL     1      45.670   1.608   8.234  0.00  0.00    +0.000 A 
ATOM      4  N   UNL     1      44.819   1.696   9.277  0.00  0.00    +0.000 NA
ATOM      5  C   UNL     1      44.609   2.924   9.813  0.00  0.00    +0.000 A 
ATOM      6 CL   UNL     1      43.499   2.779  11.122  0.00  0.00    +0.000 Cl
ATOM      7  C   UNL     1      45.220   4.100   9.351  0.00  0.00    +0.000 A 
ATOM      8  C   UNL     1      46.113   3.952   8.274  0.00  0.00    +0.000 A 
BRANCH   2  10
ATOM      9  N   UNL     1      47.146   3.260   5.480  0.00  0.00    +0.000 N 
ATOM     10  C   UNL     1      47.265   2.452   6.575  0.00  0.00    +0.000 C 
ATOM     11  O   UNL     1      48.123   1.583   6.627  0.00  0.00    +0.000 OA
ATOM     12  H   UNL     1      47.858   3.147   4.768  0.00  0.00    +0.000 HD
ATOM     13  H   UNL     1      46.629   4.126   5.490  0.00  0.00    +0.000 HD
ENDBRANCH   2  10
ENDBRANCH   1   7
BRANCH   1  14
ATOM     14  C   UNL     1      44.939   5.648  11.163  0.00  0.00    +0.000 C 
BRANCH  14  15
ATOM     15  C   UNL     1      46.248   5.946  11.863  0.00  0.00    +0.000 A 
ATOM     16  C   UNL     1      47.130   6.906  11.358  0.00  0.00    +0.000 A 
ATOM     17  C   UNL     1      48.248   7.285  12.099  0.00  0.00    +0.000 A 
ATOM     18  C   UNL     1      48.485   6.718  13.355  0.00  0.00    +0.000 A 
ATOM     19  C   UNL     1      47.615   5.760  13.904  0.00  0.00    +0.000 A 
ATOM     20  C   UNL     1      46.522   5.358  13.112  0.00  0.00    +0.000 A 
BRANCH  19  21
ATOM     21  C   UNL     1      47.762   5.285  15.301  0.00  0.00    +0.000 A 
ATOM     22  C   UNL     1      47.122   4.106  15.730  0.00  0.00    +0.000 A 
ATOM     23  C   UNL     1      47.322   3.586  17.011  0.00  0.00    +0.000 A 
ATOM     24  C   UNL     1      48.176   4.233  17.898  0.00  0.00    +0.000 A 
ATOM     25  C   UNL     1      48.814   5.407  17.508  0.00  0.00    +0.000 A 
ATOM     26  C   UNL     1      48.601   5.932  16.227  0.00  0.00    +0.000 A 
ENDBRANCH  19  21
ENDBRANCH  14  15
ENDBRANCH   1  14
TORSDOF 5
ENDMDL
MODEL 6
REMARK VINA RESULT:    -7.184      3.000      4.125
REMARK INTER + INTRA:         -10.509
REMARK INTER:                  -9.766
REMARK INTRA:                  -0.743
REMARK UNBOUND:                -1.226
REMARK  Name = 
REMARK  5 active torsions:
REMARK  status: ('A' for Active; 'I' for Inactive)
REMARK    1  A    between atoms: C_2  and  C_4
REMARK    2  A    between atoms: C_9  and  O_10
REMARK    3  A    between atoms: O_10  and  C_11
REMARK    4  A    between atoms: C_11  and  C_12
REMARK    5  A    between atoms: C_16  and  C_17
REMARK                            x       y       z     vdW  Elec       q    Type
REMARK                         _______ _______ _______ _____ _____    ______ ____
ROOT
ATOM      1  O   UNL     1      46.738   5.461  13.472  0.00  0.00    +0.000 OA
ENDROOT
BRANCH   1   7
ATOM      2  C   UNL     1      48.087   4.590  16.721  0.00  0.00    +0.000 A 
ATOM      3  C   UNL     1      49.111   5.511  16.858  0.00  0.00    +0.000 A 
ATOM      4  N   UNL     1      49.425   6.419  15.910  0.00  0.00    +0.000 NA
ATOM      5  C   UNL     1      48.673   6.432  14.781  0.00  0.00    +0.000 A 
ATOM      6 CL   UNL     1      49.265   7.661  13.730  0.00  0.00    +0.000 Cl
ATOM      7  C   UNL     1      47.596   5.564  14.542  0.00  0.00    +0.000 A 
ATOM      8  C   UNL     1      47.321   4.625  15.553  0.00  0.00    +0.000 A 
BRANCH   2  10
ATOM      9  N   UNL     1      46.880   2.705  17.680  0.00  0.00    +0.000 N 
ATOM     10  C   UNL     1      47.863   3.641  17.833  0.00  0.00    +0.000 C 
ATOM     11  O   UNL     1      48.556   3.669  18.841  0.00  0.00    +0.000 OA
ATOM     12  H   UNL     1      46.826   1.999  18.405  0.00  0.00    +0.000 HD
ATOM     13  H   UNL     1      46.457   2.494  16.789  0.00  0.00    +0.000 HD
ENDBRANCH   2  10
ENDBRANCH   1   7
BRANCH   1  14
ATOM     14  C   UNL     1      45.706   4.482  13.534  0.00  0.00    +0.000 C 
BRANCH  14  15
ATOM     15  C   UNL     1      44.919   4.380  12.245  0.00  0.00    +0.000 A 
ATOM     16  C   UNL     1      43.755   5.129  12.053  0.00  0.00    +0.000 A 
ATOM     17  C   UNL     1      43.136   5.150  10.804  0.00  0.00    +0.000 A 
ATOM     18  C   UNL     1      43.684   4.434   9.735  0.00  0.00    +0.000 A 
ATOM     19  C   UNL     1      44.861   3.681   9.883  0.00  0.00    +0.000 A 
ATOM     20  C   UNL     1      45.437   3.636  11.168  0.00  0.00    +0.000 A 
BRANCH  19  21
ATOM     21  C   UNL     1      45.542   3.064   8.719  0.00  0.00    +0.000 A 
ATOM     22  C   UNL     1      45.989   3.857   7.645  0.00  0.00    +0.000 A 
ATOM     23  C   UNL     1      46.717   3.314   6.583  0.00  0.00    +0.000 A 
ATOM     24  C   UNL     1      47.023   1.958   6.573  0.00  0.00    +0.000 A 
ATOM     25  C   UNL     1      46.585   1.145   7.614  0.00  0.00    +0.000 A 
ATOM     26  C   UNL     1      45.844   1.690   8.670  0.00  0.00    +0.000 A 
ENDBRANCH  19  21
ENDBRANCH  14  15
ENDBRANCH   1  14
TORSDOF 5
ENDMDL
MODEL 7
REMARK VINA RESULT:    -6.740      1.671      2.265
REMARK INTER + INTRA:          -9.935
REMARK INTER:                  -8.925
REMARK INTRA:                  -1.010
REMARK UNBOUND:                -1.226
REMARK  Name = 
REMARK  5 active torsions:
REMARK  status: ('A' for Active; 'I' for Inactive)
REMARK    1  A    between atoms: C_2  and  C_4
REMARK    2  A    between atoms: C_9  and  O_10
REMARK    3  A    between atoms: O_10  and  C_11
REMARK    4  A    between atoms: C_11  and  C_12
REMARK    5  A    between atoms: C_16  and  C_17
REMARK                            x       y       z     vdW  Elec       q    Type
REMARK                         _______ _______ _______ _____ _____    ______ ____
ROOT
ATOM      1  O   UNL     1      46.407   3.648  13.638  0.00  0.00    +0.000 OA
ENDROOT
BRANCH   1   7
ATOM      2  C   UNL     1      48.223   6.783  13.575  0.00  0.00    +0.000 A 
ATOM      3  C   UNL     1      48.736   6.838  14.860  0.00  0.00    +0.000 A 
ATOM      4  N   UNL     1      48.497   5.896  15.796  0.00  0.00    +0.000 NA
ATOM      5  C   UNL     1      47.733   4.835  15.436  0.00  0.00    +0.000 A 
ATOM      6 CL   UNL     1      47.567   3.783  16.789  0.00  0.00    +0.000 Cl
ATOM      7  C   UNL     1      47.180   4.659  14.158  0.00  0.00    +0.000 A 
ATOM      8  C   UNL     1      47.443   5.679  13.224  0.00  0.00    +0.000 A 
BRANCH   2  10
ATOM      9  N   UNL     1      49.314   7.604  11.559  0.00  0.00    +0.000 N 
ATOM     10  C   UNL     1      48.552   7.894  12.656  0.00  0.00    +0.000 C 
ATOM     11  O   UNL     1      48.129   9.025  12.848  0.00  0.00    +0.000 OA
ATOM     12  H   UNL     1      49.427   8.356  10.889  0.00  0.00    +0.000 HD
ATOM     13  H   UNL     1      49.477   6.663  11.237  0.00  0.00    +0.000 HD
ENDBRANCH   2  10
ENDBRANCH   1   7
BRANCH   1  14
ATOM     14  C   UNL     1      45.000   3.851  13.561  0.00  0.00    +0.000 C 
BRANCH  14  15
ATOM     15  C   UNL     1      44.512   4.034  12.140  0.00  0.00    +0.000 A 
ATOM     16  C   UNL     1      43.545   4.995  11.832  0.00  0.00    +0.000 A 
ATOM     17  C   UNL     1      43.228   5.265  10.501  0.00  0.00    +0.000 A 
ATOM     18  C   UNL     1      43.885   4.587   9.471  0.00  0.00    +0.000 A 
ATOM     19  C   UNL     1      44.873   3.624   9.738  0.00  0.00    +0.000 A 
ATOM     20  C   UNL     1      45.138   3.335  11.091  0.00  0.00    +0.000 A 
BRANCH  19  21
ATOM     21  C   UNL     1      45.695   3.029   8.656  0.00  0.00    +0.000 A 
ATOM     22  C   UNL     1      45.942   1.643   8.621  0.00  0.00    +0.000 A 
ATOM     23  C   UNL     1      46.630   1.046   7.561  0.00  0.00    +0.000 A 
ATOM     24  C   UNL     1      47.084   1.824   6.502  0.00  0.00    +0.000 A 
ATOM     25  C   UNL     1      46.867   3.199   6.514  0.00  0.00    +0.000 A 
ATOM     26  C   UNL     1      46.188   3.795   7.584  0.00  0.00    +0.000 A 
ENDBRANCH  19  21
ENDBRANCH  14  15
ENDBRANCH   1  14
TORSDOF 5
ENDMDL
MODEL 8
REMARK VINA RESULT:    -6.678      3.366      5.103
REMARK INTER + INTRA:          -9.855
REMARK INTER:                  -8.866
REMARK INTRA:                  -0.989
REMARK UNBOUND:                -1.226
REMARK  Name = 
REMARK  5 active torsions:
REMARK  status: ('A' for Active; 'I' for Inactive)
REMARK    1  A    between atoms: C_2  and  C_4
REMARK    2  A    between atoms: C_9  and  O_10
REMARK    3  A    between atoms: O_10  and  C_11
REMARK    4  A    between atoms: C_11  and  C_12
REMARK    5  A    between atoms: C_16  and  C_17
REMARK                            x       y       z     vdW  Elec       q    Type
REMARK                         _______ _______ _______ _____ _____    ______ ____
ROOT
ATOM      1  O   UNL     1      48.606   6.161  14.239  0.00  0.00    +0.000 OA
ENDROOT
BRANCH   1   7
ATOM      2  C   UNL     1      47.952   5.294  17.696  0.00  0.00    +0.000 A 
ATOM      3  C   UNL     1      47.265   4.100  17.563  0.00  0.00    +0.000 A 
ATOM      4  N   UNL     1      46.961   3.548  16.370  0.00  0.00    +0.000 NA
ATOM      5  C   UNL     1      47.380   4.196  15.255  0.00  0.00    +0.000 A 
ATOM      6 CL   UNL     1      46.871   3.307  13.869  0.00  0.00    +0.000 Cl
ATOM      7  C   UNL     1      48.104   5.398  15.267  0.00  0.00    +0.000 A 
ATOM      8  C   UNL     1      48.379   5.942  16.535  0.00  0.00    +0.000 A 
BRANCH   2  10
ATOM      9  N   UNL     1      47.215   5.622  19.994  0.00  0.00    +0.000 N 
ATOM     10  C   UNL     1      48.203   5.793  19.066  0.00  0.00    +0.000 C 
ATOM     11  O   UNL     1      49.269   6.309  19.369  0.00  0.00    +0.000 OA
ATOM     12  H   UNL     1      47.457   5.868  20.947  0.00  0.00    +0.000 HD
ATOM     13  H   UNL     1      46.434   4.999  19.856  0.00  0.00    +0.000 HD
ENDBRANCH   2  10
ENDBRANCH   1   7
BRANCH   1  14
ATOM     14  C   UNL     1      48.088   7.476  14.066  0.00  0.00    +0.000 C 
BRANCH  14  15
ATOM     15  C   UNL     1      46.850   7.507  13.195  0.00  0.00    +0.000 A 
ATOM     16  C   UNL     1      46.150   8.699  12.985  0.00  0.00    +0.000 A 
ATOM     17  C   UNL     1      45.115   8.745  12.053  0.00  0.00    +0.000 A 
ATOM     18  C   UNL     1      44.781   7.606  11.315  0.00  0.00    +0.000 A 
ATOM     19  C   UNL     1      45.470   6.392  11.486  0.00  0.00    +0.000 A 
ATOM     20  C   UNL     1      46.477   6.360  12.470  0.00  0.00    +0.000 A 
BRANCH  19  21
ATOM     21  C   UNL     1      45.241   5.234  10.589  0.00  0.00    +0.000 A 
ATOM     22  C   UNL     1      45.698   5.255   9.257  0.00  0.00    +0.000 A 
ATOM     23  C   UNL     1      45.580   4.141   8.422  0.00  0.00    +0.000 A 
ATOM     24  C   UNL     1      45.005   2.970   8.903  0.00  0.00    +0.000 A 
ATOM     25  C   UNL     1      44.532   2.922  10.211  0.00  0.00    +0.000 A 
ATOM     26  C   UNL     1      44.640   4.044  11.041  0.00  0.00    +0.000 A 
ENDBRANCH  19  21
ENDBRANCH  14  15
ENDBRANCH   1  14
TORSDOF 5
ENDMDL
MODEL 9
REMARK VINA RESULT:    -6.585      3.405      3.850
REMARK INTER + INTRA:          -9.735
REMARK INTER:                  -8.997
REMARK INTRA:                  -0.739
REMARK UNBOUND:                -1.226
REMARK  Name = 
REMARK  5 active torsions:
REMARK  status: ('A' for Active; 'I' for Inactive)
REMARK    1  A    between atoms: C_2  and  C_4
REMARK    2  A    between atoms: C_9  and  O_10
REMARK    3  A    between atoms: O_10  and  C_11
REMARK    4  A    between atoms: C_11  and  C_12
REMARK    5  A    between atoms: C_16  and  C_17
REMARK                            x       y       z     vdW  Elec       q    Type
REMARK                         _______ _______ _______ _____ _____    ______ ____
ROOT
ATOM      1  O   UNL     1      43.496   8.177  11.066  0.00  0.00    +0.000 OA
ENDROOT
BRANCH   1   7
ATOM      2  C   UNL     1      45.188  11.375  11.276  0.00  0.00    +0.000 A 
ATOM      3  C   UNL     1      44.135  12.261  11.125  0.00  0.00    +0.000 A 
ATOM      4  N   UNL     1      42.860  11.872  10.923  0.00  0.00    +0.000 NA
ATOM      5  C   UNL     1      42.609  10.539  10.892  0.00  0.00    +0.000 A 
ATOM      6 CL   UNL     1      40.926  10.295  10.617  0.00  0.00    +0.000 Cl
ATOM      7  C   UNL     1      43.589   9.549  11.057  0.00  0.00    +0.000 A 
ATOM      8  C   UNL     1      44.906  10.007  11.246  0.00  0.00    +0.000 A 
BRANCH   2  10
ATOM      9  N   UNL     1      46.936  12.200  12.757  0.00  0.00    +0.000 N 
ATOM     10  C   UNL     1      46.540  11.941  11.475  0.00  0.00    +0.000 C 
ATOM     11  O   UNL     1      47.292  12.137  10.531  0.00  0.00    +0.000 OA
ATOM     12  H   UNL     1      47.903  12.478  12.872  0.00  0.00    +0.000 HD
ATOM     13  H   UNL     1      46.454  11.836  13.564  0.00  0.00    +0.000 HD
ENDBRANCH   2  10
ENDBRANCH   1   7
BRANCH   1  14
ATOM     14  C   UNL     1      44.690   7.426  11.262  0.00  0.00    +0.000 C 
BRANCH  14  15
ATOM     15  C   UNL     1      44.473   5.935  11.121  0.00  0.00    +0.000 A 
ATOM     16  C   UNL     1      43.427   5.295  11.792  0.00  0.00    +0.000 A 
ATOM     17  C   UNL     1      43.140   3.957  11.522  0.00  0.00    +0.000 A 
ATOM     18  C   UNL     1      43.886   3.255  10.571  0.00  0.00    +0.000 A 
ATOM     19  C   UNL     1      44.936   3.867   9.864  0.00  0.00    +0.000 A 
ATOM     20  C   UNL     1      45.238   5.203  10.193  0.00  0.00    +0.000 A 
BRANCH  19  21
ATOM     21  C   UNL     1      45.616   3.186   8.736  0.00  0.00    +0.000 A 
ATOM     22  C   UNL     1      46.194   3.931   7.690  0.00  0.00    +0.000 A 
ATOM     23  C   UNL     1      46.922   3.319   6.667  0.00  0.00    +0.000 A 
ATOM     24  C   UNL     1      47.095   1.940   6.667  0.00  0.00    +0.000 A 
ATOM     25  C   UNL     1      46.525   1.173   7.679  0.00  0.00    +0.000 A 
ATOM     26  C   UNL     1      45.785   1.789   8.697  0.00  0.00    +0.000 A 
ENDBRANCH  19  21
ENDBRANCH  14  15
ENDBRANCH   1  14
TORSDOF 5
ENDMDL
