MODEL 1
REMARK VINA RESULT:    -8.888      0.000      0.000
REMARK INTER + INTRA:         -13.122
REMARK INTER:                 -12.006
REMARK INTRA:                  -1.116
REMARK UNBOUND:                -1.116
REMARK  Name = 
REMARK  6 active torsions:
REMARK  status: ('A' for Active; 'I' for Inactive)
REMARK    1  A    between atoms: C_2  and  C_4
REMARK    2  A    between atoms: C_8  and  O_9
REMARK    3  A    between atoms: O_9  and  C_10
REMARK    4  A    between atoms: C_10  and  C_11
REMARK    5  A    between atoms: C_11  and  C_14
REMARK    6  A    between atoms: C_18  and  C_19
REMARK                            x       y       z     vdW  Elec       q    Type
REMARK                         _______ _______ _______ _____ _____    ______ ____
ROOT
ATOM      1  C   UNL     1      43.693   4.533  12.393  0.00  0.00    +0.000 C 
ATOM      2  F   UNL     1      43.068   5.307  11.459  0.00  0.00    +0.000 F 
ATOM      3  F   UNL     1      42.846   4.483  13.460  0.00  0.00    +0.000 F 
ENDROOT
BRANCH   1   4
ATOM      4  C   UNL     1      45.057   5.091  12.766  0.00  0.00    +0.000 A 
ATOM      5  C   UNL     1      45.580   6.210  12.105  0.00  0.00    +0.000 A 
ATOM      6  C   UNL     1      46.788   6.766  12.520  0.00  0.00    +0.000 A 
ATOM      7  C   UNL     1      47.478   6.217  13.604  0.00  0.00    +0.000 A 
ATOM      8  C   UNL     1      46.985   5.098  14.296  0.00  0.00    +0.000 A 
ATOM      9  C   UNL     1      45.773   4.541  13.847  0.00  0.00    +0.000 A 
BRANCH   8  10
ATOM     10  C   UNL     1      47.685   4.573  15.489  0.00  0.00    +0.000 A 
ATOM     11  C   UNL     1      48.350   5.392  16.402  0.00  0.00    +0.000 A 
ATOM     12  C   UNL     1      49.055   4.811  17.455  0.00  0.00    +0.000 A 
ATOM     13  C   UNL     1      49.075   3.429  17.579  0.00  0.00    +0.000 A 
ATOM     14  C   UNL     1      48.374   2.683  16.649  0.00  0.00    +0.000 A 
ATOM     15  N   UNL     1      47.685   3.221  15.619  0.00  0.00    +0.000 NA
ENDBRANCH   8  10
ENDBRANCH   1   4
BRANCH   1  16
ATOM     16  C   UNL     1      43.879   3.114  11.825  0.00  0.00    +0.000 C 
BRANCH  16  17
ATOM     17  O   UNL     1      43.473   3.012  10.452  0.00  0.00    +0.000 OA
BRANCH  17  22
ATOM     18  C   UNL     1      46.159   2.207   8.128  0.00  0.00    +0.000 A 
ATOM     19  C   UNL     1      46.516   3.465   7.633  0.00  0.00    +0.000 A 
ATOM     20  C   UNL     1      45.843   4.602   8.070  0.00  0.00    +0.000 A 
ATOM     21  C   UNL     1      44.818   4.489   9.010  0.00  0.00    +0.000 A 
ATOM     22  C   UNL     1      44.460   3.239   9.524  0.00  0.00    +0.000 A 
ATOM     23  C   UNL     1      45.138   2.096   9.084  0.00  0.00    +0.000 A 
BRANCH  18  25
ATOM     24  N   UNL     1      48.015   1.263   6.862  0.00  0.00    +0.000 N 
ATOM     25  C   UNL     1      46.904   1.024   7.620  0.00  0.00    +0.000 C 
ATOM     26  O   UNL     1      46.566  -0.118   7.906  0.00  0.00    +0.000 OA
ATOM     27  H   UNL     1      48.574   0.454   6.625  0.00  0.00    +0.000 HD
ATOM     28  H   UNL     1      48.456   2.170   6.814  0.00  0.00    +0.000 HD
ENDBRANCH  18  25
ENDBRANCH  17  22
ENDBRANCH  16  17
ENDBRANCH   1  16
TORSDOF 6
ENDMDL
MODEL 2
REMARK VINA RESULT:    -8.700      2.581      4.547
REMARK INTER + INTRA:         -12.868
REMARK INTER:                 -11.418
REMARK INTRA:                  -1.449
REMARK UNBOUND:                -1.116
REMARK  Name = 
REMARK  6 active torsions:
REMARK  status: ('A' for Active; 'I' for Inactive)
REMARK    1  A    between atoms: C_2  and  C_4
REMARK    2  A    between atoms: C_8  and  O_9
REMARK    3  A    between atoms: O_9  and  C_10
REMARK    4  A    between atoms: C_10  and  C_11
REMARK    5  A    between atoms: C_11  and  C_14
REMARK    6  A    between atoms: C_18  and  C_19
REMARK                            x       y       z     vdW  Elec       q    Type
REMARK                         _______ _______ _______ _____ _____    ______ ____
ROOT
ATOM      1  C   UNL     1      43.911   3.993  12.681  0.00  0.00    +0.000 C 
ATOM      2  F   UNL     1      42.980   4.136  13.668  0.00  0.00    +0.000 F 
ATOM      3  F   UNL     1      44.482   2.772  12.884  0.00  0.00    +0.000 F 
ENDROOT
BRANCH   1   4
ATOM      4  C   UNL     1      44.934   5.117  12.703  0.00  0.00    +0.000 A 
ATOM      5  C   UNL     1      46.280   4.858  12.990  0.00  0.00    +0.000 A 
ATOM      6  C   UNL     1      47.221   5.883  12.917  0.00  0.00    +0.000 A 
ATOM      7  C   UNL     1      46.829   7.170  12.543  0.00  0.00    +0.000 A 
ATOM      8  C   UNL     1      45.489   7.471  12.243  0.00  0.00    +0.000 A 
ATOM      9  C   UNL     1      44.553   6.425  12.344  0.00  0.00    +0.000 A 
BRANCH   8  10
ATOM     10  C   UNL     1      45.099   8.819  11.776  0.00  0.00    +0.000 A 
ATOM     11  C   UNL     1      43.977   9.054  10.980  0.00  0.00    +0.000 A 
ATOM     12  C   UNL     1      43.727  10.343  10.514  0.00  0.00    +0.000 A 
ATOM     13  C   UNL     1      44.594  11.371  10.858  0.00  0.00    +0.000 A 
ATOM     14  C   UNL     1      45.672  11.067  11.669  0.00  0.00    +0.000 A 
ATOM     15  N   UNL     1      45.938   9.826  12.131  0.00  0.00    +0.000 NA
ENDBRANCH   8  10
ENDBRANCH   1   4
BRANCH   1  16
ATOM     16  C   UNL     1      43.201   4.000  11.315  0.00  0.00    +0.000 C 
BRANCH  16  17
ATOM     17  O   UNL     1      43.579   2.886  10.491  0.00  0.00    +0.000 OA
BRANCH  17  22
ATOM     18  C   UNL     1      46.216   2.188   8.078  0.00  0.00    +0.000 A 
ATOM     19  C   UNL     1      46.514   3.462   7.582  0.00  0.00    +0.000 A 
ATOM     20  C   UNL     1      45.817   4.572   8.049  0.00  0.00    +0.000 A 
ATOM     21  C   UNL     1      44.827   4.417   9.020  0.00  0.00    +0.000 A 
ATOM     22  C   UNL     1      44.528   3.152   9.535  0.00  0.00    +0.000 A 
ATOM     23  C   UNL     1      45.230   2.036   9.064  0.00  0.00    +0.000 A 
BRANCH  18  25
ATOM     24  N   UNL     1      48.065   1.317   6.751  0.00  0.00    +0.000 N 
ATOM     25  C   UNL     1      46.984   1.035   7.538  0.00  0.00    +0.000 C 
ATOM     26  O   UNL     1      46.693  -0.119   7.822  0.00  0.00    +0.000 OA
ATOM     27  H   UNL     1      48.643   0.529   6.491  0.00  0.00    +0.000 HD
ATOM     28  H   UNL     1      48.475   2.239   6.699  0.00  0.00    +0.000 HD
ENDBRANCH  18  25
ENDBRANCH  17  22
ENDBRANCH  16  17
ENDBRANCH   1  16
TORSDOF 6
ENDMDL
MODEL 3
REMARK VINA RESULT:    -8.366      2.047      2.557
REMARK INTER + INTRA:         -12.416
REMARK INTER:                 -11.283
REMARK INTRA:                  -1.133
REMARK UNBOUND:                -1.116
REMARK  Name = 
REMARK  6 active torsions:
REMARK  status: ('A' for Active; 'I' for Inactive)
REMARK    1  A    between atoms: C_2  and  C_4
REMARK    2  A    between atoms: C_8  and  O_9
REMARK    3  A    between atoms: O_9  and  C_10
REMARK    4  A    between atoms: C_10  and  C_11
REMARK    5  A    between atoms: C_11  and  C_14
REMARK    6  A    between atoms: C_18  and  C_19
REMARK                            x       y       z     vdW  Elec       q    Type
REMARK                         _______ _______ _______ _____ _____    ______ ____
ROOT
ATOM      1  C   UNL     1      44.135   3.874  12.454  0.00  0.00    +0.000 C 
ATOM      2  F   UNL     1      43.319   3.829  13.547  0.00  0.00    +0.000 F 
ATOM      3  F   UNL     1      45.053   2.883  12.635  0.00  0.00    +0.000 F 
ENDROOT
BRANCH   1   4
ATOM      4  C   UNL     1      44.785   5.239  12.292  0.00  0.00    +0.000 A 
ATOM      5  C   UNL     1      44.077   6.309  11.729  0.00  0.00    +0.000 A 
ATOM      6  C   UNL     1      44.654   7.576  11.672  0.00  0.00    +0.000 A 
ATOM      7  C   UNL     1      45.935   7.787  12.188  0.00  0.00    +0.000 A 
ATOM      8  C   UNL     1      46.676   6.742  12.766  0.00  0.00    +0.000 A 
ATOM      9  C   UNL     1      46.081   5.467  12.794  0.00  0.00    +0.000 A 
BRANCH   8  10
ATOM     10  C   UNL     1      47.999   6.995  13.376  0.00  0.00    +0.000 A 
ATOM     11  C   UNL     1      48.285   6.719  14.714  0.00  0.00    +0.000 A 
ATOM     12  C   UNL     1      49.532   7.065  15.232  0.00  0.00    +0.000 A 
ATOM     13  C   UNL     1      50.468   7.669  14.405  0.00  0.00    +0.000 A 
ATOM     14  C   UNL     1      50.121   7.891  13.085  0.00  0.00    +0.000 A 
ATOM     15  N   UNL     1      48.919   7.568  12.559  0.00  0.00    +0.000 NA
ENDBRANCH   8  10
ENDBRANCH   1   4
BRANCH   1  16
ATOM     16  C   UNL     1      43.303   3.571  11.194  0.00  0.00    +0.000 C 
BRANCH  16  17
ATOM     17  O   UNL     1      43.895   2.550  10.376  0.00  0.00    +0.000 OA
BRANCH  17  22
ATOM     18  C   UNL     1      46.465   2.336   7.804  0.00  0.00    +0.000 A 
ATOM     19  C   UNL     1      46.623   3.673   7.426  0.00  0.00    +0.000 A 
ATOM     20  C   UNL     1      45.853   4.664   8.027  0.00  0.00    +0.000 A 
ATOM     21  C   UNL     1      44.929   4.325   9.016  0.00  0.00    +0.000 A 
ATOM     22  C   UNL     1      44.769   2.994   9.414  0.00  0.00    +0.000 A 
ATOM     23  C   UNL     1      45.545   1.999   8.808  0.00  0.00    +0.000 A 
BRANCH  18  25
ATOM     24  N   UNL     1      48.441   1.757   6.502  0.00  0.00    +0.000 N 
ATOM     25  C   UNL     1      47.306   1.317   7.122  0.00  0.00    +0.000 C 
ATOM     26  O   UNL     1      47.023   0.127   7.153  0.00  0.00    +0.000 OA
ATOM     27  H   UNL     1      49.060   1.040   6.147  0.00  0.00    +0.000 HD
ATOM     28  H   UNL     1      48.829   2.676   6.663  0.00  0.00    +0.000 HD
ENDBRANCH  18  25
ENDBRANCH  17  22
ENDBRANCH  16  17
ENDBRANCH   1  16
TORSDOF 6
ENDMDL
MODEL 4
REMARK VINA RESULT:    -8.006      2.256      7.465
REMARK INTER + INTRA:         -11.930
REMARK INTER:                 -11.062
REMARK INTRA:                  -0.868
REMARK UNBOUND:                -1.116
REMARK  Name = 
REMARK  6 active torsions:
REMARK  status: ('A' for Active; 'I' for Inactive)
REMARK    1  A    between atoms: C_2  and  C_4
REMARK    2  A    between atoms: C_8  and  O_9
REMARK    3  A    between atoms: O_9  and  C_10
REMARK    4  A    between atoms: C_10  and  C_11
REMARK    5  A    between atoms: C_11  and  C_14
REMARK    6  A    between atoms: C_18  and  C_19
REMARK                            x       y       z     vdW  Elec       q    Type
REMARK                         _______ _______ _______ _____ _____    ______ ____
ROOT
ATOM      1  C   UNL     1      44.470   6.410  11.584  0.00  0.00    +0.000 C 
ATOM      2  F   UNL     1      43.222   6.928  11.777  0.00  0.00    +0.000 F 
ATOM      3  F   UNL     1      45.070   7.220  10.666  0.00  0.00    +0.000 F 
ENDROOT
BRANCH   1   4
ATOM      4  C   UNL     1      44.413   4.962  11.125  0.00  0.00    +0.000 A 
ATOM      5  C   UNL     1      43.538   4.051  11.729  0.00  0.00    +0.000 A 
ATOM      6  C   UNL     1      43.431   2.752  11.237  0.00  0.00    +0.000 A 
ATOM      7  C   UNL     1      44.186   2.356  10.130  0.00  0.00    +0.000 A 
ATOM      8  C   UNL     1      45.073   3.241   9.492  0.00  0.00    +0.000 A 
ATOM      9  C   UNL     1      45.179   4.542  10.020  0.00  0.00    +0.000 A 
BRANCH   8  10
ATOM     10  C   UNL     1      45.809   2.834   8.277  0.00  0.00    +0.000 A 
ATOM     11  C   UNL     1      46.296   1.541   8.079  0.00  0.00    +0.000 A 
ATOM     12  C   UNL     1      47.052   1.261   6.942  0.00  0.00    +0.000 A 
ATOM     13  C   UNL     1      47.300   2.271   6.024  0.00  0.00    +0.000 A 
ATOM     14  C   UNL     1      46.766   3.522   6.276  0.00  0.00    +0.000 A 
ATOM     15  N   UNL     1      46.032   3.820   7.370  0.00  0.00    +0.000 NA
ENDBRANCH   8  10
ENDBRANCH   1   4
BRANCH   1  16
ATOM     16  C   UNL     1      45.251   6.477  12.909  0.00  0.00    +0.000 C 
BRANCH  16  17
ATOM     17  O   UNL     1      46.384   5.595  12.925  0.00  0.00    +0.000 OA
BRANCH  17  22
ATOM     18  C   UNL     1      47.719   4.533  16.143  0.00  0.00    +0.000 A 
ATOM     19  C   UNL     1      48.634   5.549  16.438  0.00  0.00    +0.000 A 
ATOM     20  C   UNL     1      48.820   6.601  15.546  0.00  0.00    +0.000 A 
ATOM     21  C   UNL     1      48.087   6.647  14.360  0.00  0.00    +0.000 A 
ATOM     22  C   UNL     1      47.159   5.646  14.057  0.00  0.00    +0.000 A 
ATOM     23  C   UNL     1      46.973   4.589  14.956  0.00  0.00    +0.000 A 
BRANCH  18  25
ATOM     24  N   UNL     1      48.699   2.982  17.746  0.00  0.00    +0.000 N 
ATOM     25  C   UNL     1      47.567   3.428  17.126  0.00  0.00    +0.000 C 
ATOM     26  O   UNL     1      46.468   2.967  17.407  0.00  0.00    +0.000 OA
ATOM     27  H   UNL     1      48.564   2.315  18.495  0.00  0.00    +0.000 HD
ATOM     28  H   UNL     1      49.570   3.495  17.725  0.00  0.00    +0.000 HD
ENDBRANCH  18  25
ENDBRANCH  17  22
ENDBRANCH  16  17
ENDBRANCH   1  16
TORSDOF 6
ENDMDL
MODEL 5
REMARK VINA RESULT:    -7.743      1.618      2.187
REMARK INTER + INTRA:         -11.574
REMARK INTER:                 -10.655
REMARK INTRA:                  -0.920
REMARK UNBOUND:                -1.116
REMARK  Name = 
REMARK  6 active torsions:
REMARK  status: ('A' for Active; 'I' for Inactive)
REMARK    1  A    between atoms: C_2  and  C_4
REMARK    2  A    between atoms: C_8  and  O_9
REMARK    3  A    between atoms: O_9  and  C_10
REMARK    4  A    between atoms: C_10  and  C_11
REMARK    5  A    between atoms: C_11  and  C_14
REMARK    6  A    between atoms: C_18  and  C_19
REMARK                            x       y       z     vdW  Elec       q    Type
REMARK                         _______ _______ _______ _____ _____    ______ ____
ROOT
ATOM      1  C   UNL     1      45.196   5.903  11.635  0.00  0.00    +0.000 C 
ATOM      2  F   UNL     1      44.283   6.915  11.698  0.00  0.00    +0.000 F 
ATOM      3  F   UNL     1      44.540   4.784  12.056  0.00  0.00    +0.000 F 
ENDROOT
BRANCH   1   4
ATOM      4  C   UNL     1      46.425   6.200  12.477  0.00  0.00    +0.000 A 
ATOM      5  C   UNL     1      47.248   7.296  12.186  0.00  0.00    +0.000 A 
ATOM      6  C   UNL     1      48.318   7.609  13.021  0.00  0.00    +0.000 A 
ATOM      7  C   UNL     1      48.567   6.841  14.160  0.00  0.00    +0.000 A 
ATOM      8  C   UNL     1      47.763   5.736  14.491  0.00  0.00    +0.000 A 
ATOM      9  C   UNL     1      46.701   5.426  13.621  0.00  0.00    +0.000 A 
BRANCH   8  10
ATOM     10  C   UNL     1      47.992   4.977  15.739  0.00  0.00    +0.000 A 
ATOM     11  C   UNL     1      47.132   3.973  16.187  0.00  0.00    +0.000 A 
ATOM     12  C   UNL     1      47.375   3.363  17.417  0.00  0.00    +0.000 A 
ATOM     13  C   UNL     1      48.473   3.759  18.168  0.00  0.00    +0.000 A 
ATOM     14  C   UNL     1      49.293   4.744  17.649  0.00  0.00    +0.000 A 
ATOM     15  N   UNL     1      49.078   5.353  16.462  0.00  0.00    +0.000 NA
ENDBRANCH   8  10
ENDBRANCH   1   4
BRANCH   1  16
ATOM     16  C   UNL     1      45.635   5.714  10.171  0.00  0.00    +0.000 C 
BRANCH  16  17
ATOM     17  O   UNL     1      44.686   4.955   9.405  0.00  0.00    +0.000 OA
BRANCH  17  22
ATOM     18  C   UNL     1      46.541   2.680   7.249  0.00  0.00    +0.000 A 
ATOM     19  C   UNL     1      46.191   1.427   7.763  0.00  0.00    +0.000 A 
ATOM     20  C   UNL     1      45.333   1.336   8.855  0.00  0.00    +0.000 A 
ATOM     21  C   UNL     1      44.812   2.496   9.432  0.00  0.00    +0.000 A 
ATOM     22  C   UNL     1      45.142   3.754   8.920  0.00  0.00    +0.000 A 
ATOM     23  C   UNL     1      46.005   3.844   7.822  0.00  0.00    +0.000 A 
BRANCH  18  25
ATOM     24  N   UNL     1      48.792   2.486   6.337  0.00  0.00    +0.000 N 
ATOM     25  C   UNL     1      47.469   2.720   6.088  0.00  0.00    +0.000 C 
ATOM     26  O   UNL     1      47.063   2.907   4.949  0.00  0.00    +0.000 OA
ATOM     27  H   UNL     1      49.389   2.400   5.525  0.00  0.00    +0.000 HD
ATOM     28  H   UNL     1      49.121   2.092   7.207  0.00  0.00    +0.000 HD
ENDBRANCH  18  25
ENDBRANCH  17  22
ENDBRANCH  16  17
ENDBRANCH   1  16
TORSDOF 6
ENDMDL
MODEL 6
REMARK VINA RESULT:    -7.623      2.582      7.266
REMARK INTER + INTRA:         -11.413
REMARK INTER:                 -10.366
REMARK INTRA:                  -1.047
REMARK UNBOUND:                -1.116
REMARK  Name = 
REMARK  6 active torsions:
REMARK  status: ('A' for Active; 'I' for Inactive)
REMARK    1  A    between atoms: C_2  and  C_4
REMARK    2  A    between atoms: C_8  and  O_9
REMARK    3  A    between atoms: O_9  and  C_10
REMARK    4  A    between atoms: C_10  and  C_11
REMARK    5  A    between atoms: C_11  and  C_14
REMARK    6  A    between atoms: C_18  and  C_19
REMARK                            x       y       z     vdW  Elec       q    Type
REMARK                         _______ _______ _______ _____ _____    ______ ____
ROOT
ATOM      1  C   UNL     1      45.675   7.674  12.000  0.00  0.00    +0.000 C 
ATOM      2  F   UNL     1      45.248   8.065  13.236  0.00  0.00    +0.000 F 
ATOM      3  F   UNL     1      45.468   8.744  11.181  0.00  0.00    +0.000 F 
ENDROOT
BRANCH   1   4
ATOM      4  C   UNL     1      44.944   6.431  11.519  0.00  0.00    +0.000 A 
ATOM      5  C   UNL     1      43.632   6.165  11.930  0.00  0.00    +0.000 A 
ATOM      6  C   UNL     1      42.944   5.072  11.409  0.00  0.00    +0.000 A 
ATOM      7  C   UNL     1      43.555   4.244  10.463  0.00  0.00    +0.000 A 
ATOM      8  C   UNL     1      44.867   4.479  10.020  0.00  0.00    +0.000 A 
ATOM      9  C   UNL     1      45.550   5.577  10.576  0.00  0.00    +0.000 A 
BRANCH   8  10
ATOM     10  C   UNL     1      45.475   3.641   8.964  0.00  0.00    +0.000 A 
ATOM     11  C   UNL     1      45.538   2.249   9.040  0.00  0.00    +0.000 A 
ATOM     12  C   UNL     1      46.202   1.540   8.040  0.00  0.00    +0.000 A 
ATOM     13  C   UNL     1      46.779   2.231   6.983  0.00  0.00    +0.000 A 
ATOM     14  C   UNL     1      46.656   3.608   6.965  0.00  0.00    +0.000 A 
ATOM     15  N   UNL     1      46.021   4.320   7.922  0.00  0.00    +0.000 NA
ENDBRANCH   8  10
ENDBRANCH   1   4
BRANCH   1  16
ATOM     16  C   UNL     1      47.182   7.367  12.064  0.00  0.00    +0.000 C 
BRANCH  16  17
ATOM     17  O   UNL     1      47.851   8.104  13.099  0.00  0.00    +0.000 OA
BRANCH  17  22
ATOM     18  C   UNL     1      47.909   5.258  15.370  0.00  0.00    +0.000 A 
ATOM     19  C   UNL     1      48.606   5.767  16.471  0.00  0.00    +0.000 A 
ATOM     20  C   UNL     1      49.078   7.076  16.453  0.00  0.00    +0.000 A 
ATOM     21  C   UNL     1      48.846   7.886  15.341  0.00  0.00    +0.000 A 
ATOM     22  C   UNL     1      48.138   7.396  14.239  0.00  0.00    +0.000 A 
ATOM     23  C   UNL     1      47.665   6.079  14.258  0.00  0.00    +0.000 A 
BRANCH  18  25
ATOM     24  N   UNL     1      46.966   3.405  16.640  0.00  0.00    +0.000 N 
ATOM     25  C   UNL     1      47.437   3.850  15.437  0.00  0.00    +0.000 C 
ATOM     26  O   UNL     1      47.424   3.130  14.447  0.00  0.00    +0.000 OA
ATOM     27  H   UNL     1      46.541   2.487  16.639  0.00  0.00    +0.000 HD
ATOM     28  H   UNL     1      46.735   4.030  17.399  0.00  0.00    +0.000 HD
ENDBRANCH  18  25
ENDBRANCH  17  22
ENDBRANCH  16  17
ENDBRANCH   1  16
TORSDOF 6
ENDMDL
MODEL 7
REMARK VINA RESULT:    -7.436      2.901      7.382
REMARK INTER + INTRA:         -11.161
REMARK INTER:                 -10.199
REMARK INTRA:                  -0.962
REMARK UNBOUND:                -1.116
REMARK  Name = 
REMARK  6 active torsions:
REMARK  status: ('A' for Active; 'I' for Inactive)
REMARK    1  A    between atoms: C_2  and  C_4
REMARK    2  A    between atoms: C_8  and  O_9
REMARK    3  A    between atoms: O_9  and  C_10
REMARK    4  A    between atoms: C_10  and  C_11
REMARK    5  A    between atoms: C_11  and  C_14
REMARK    6  A    between atoms: C_18  and  C_19
REMARK                            x       y       z     vdW  Elec       q    Type
REMARK                         _______ _______ _______ _____ _____    ______ ____
ROOT
ATOM      1  C   UNL     1      44.319   6.294  11.708  0.00  0.00    +0.000 C 
ATOM      2  F   UNL     1      44.171   6.404  13.060  0.00  0.00    +0.000 F 
ATOM      3  F   UNL     1      43.306   7.026  11.163  0.00  0.00    +0.000 F 
ENDROOT
BRANCH   1   4
ATOM      4  C   UNL     1      44.288   4.843  11.255  0.00  0.00    +0.000 A 
ATOM      5  C   UNL     1      43.402   3.927  11.838  0.00  0.00    +0.000 A 
ATOM      6  C   UNL     1      43.321   2.625  11.350  0.00  0.00    +0.000 A 
ATOM      7  C   UNL     1      44.112   2.230  10.268  0.00  0.00    +0.000 A 
ATOM      8  C   UNL     1      45.010   3.119   9.652  0.00  0.00    +0.000 A 
ATOM      9  C   UNL     1      45.090   4.424  10.176  0.00  0.00    +0.000 A 
BRANCH   8  10
ATOM     10  C   UNL     1      45.786   2.712   8.461  0.00  0.00    +0.000 A 
ATOM     11  C   UNL     1      46.009   3.556   7.373  0.00  0.00    +0.000 A 
ATOM     12  C   UNL     1      46.681   3.067   6.254  0.00  0.00    +0.000 A 
ATOM     13  C   UNL     1      47.123   1.751   6.247  0.00  0.00    +0.000 A 
ATOM     14  C   UNL     1      46.885   0.981   7.371  0.00  0.00    +0.000 A 
ATOM     15  N   UNL     1      46.234   1.430   8.467  0.00  0.00    +0.000 NA
ENDBRANCH   8  10
ENDBRANCH   1   4
BRANCH   1  16
ATOM     16  C   UNL     1      45.669   6.909  11.298  0.00  0.00    +0.000 C 
BRANCH  16  17
ATOM     17  O   UNL     1      46.097   7.945  12.196  0.00  0.00    +0.000 OA
BRANCH  17  22
ATOM     18  C   UNL     1      48.977   7.213  14.302  0.00  0.00    +0.000 A 
ATOM     19  C   UNL     1      50.041   7.698  13.536  0.00  0.00    +0.000 A 
ATOM     20  C   UNL     1      49.799   8.269  12.290  0.00  0.00    +0.000 A 
ATOM     21  C   UNL     1      48.493   8.366  11.808  0.00  0.00    +0.000 A 
ATOM     22  C   UNL     1      47.418   7.897  12.569  0.00  0.00    +0.000 A 
ATOM     23  C   UNL     1      47.663   7.323  13.823  0.00  0.00    +0.000 A 
BRANCH  18  25
ATOM     24  N   UNL     1      48.239   6.251  16.416  0.00  0.00    +0.000 N 
ATOM     25  C   UNL     1      49.293   6.603  15.621  0.00  0.00    +0.000 C 
ATOM     26  O   UNL     1      50.446   6.381  15.966  0.00  0.00    +0.000 OA
ATOM     27  H   UNL     1      48.467   5.732  17.254  0.00  0.00    +0.000 HD
ATOM     28  H   UNL     1      47.291   6.192  16.069  0.00  0.00    +0.000 HD
ENDBRANCH  18  25
ENDBRANCH  17  22
ENDBRANCH  16  17
ENDBRANCH   1  16
TORSDOF 6
ENDMDL
MODEL 8
REMARK VINA RESULT:    -6.999      3.703      5.910
REMARK INTER + INTRA:         -10.569
REMARK INTER:                  -9.824
REMARK INTRA:                  -0.745
REMARK UNBOUND:                -1.116
REMARK  Name = 
REMARK  6 active torsions:
REMARK  status: ('A' for Active; 'I' for Inactive)
REMARK    1  A    between atoms: C_2  and  C_4
REMARK    2  A    between atoms: C_8  and  O_9
REMARK    3  A    between atoms: O_9  and  C_10
REMARK    4  A    between atoms: C_10  and  C_11
REMARK    5  A    between atoms: C_11  and  C_14
REMARK    6  A    between atoms: C_18  and  C_19
REMARK                            x       y       z     vdW  Elec       q    Type
REMARK                         _______ _______ _______ _____ _____    ______ ____
ROOT
ATOM      1  C   UNL     1      47.898   3.063  17.014  0.00  0.00    +0.000 C 
ATOM      2  F   UNL     1      46.929   2.359  17.669  0.00  0.00    +0.000 F 
ATOM      3  F   UNL     1      48.712   2.130  16.442  0.00  0.00    +0.000 F 
ENDROOT
BRANCH   1   4
ATOM      4  C   UNL     1      48.654   3.988  17.953  0.00  0.00    +0.000 A 
ATOM      5  C   UNL     1      50.032   3.836  18.156  0.00  0.00    +0.000 A 
ATOM      6  C   UNL     1      50.727   4.748  18.947  0.00  0.00    +0.000 A 
ATOM      7  C   UNL     1      50.057   5.825  19.531  0.00  0.00    +0.000 A 
ATOM      8  C   UNL     1      48.676   6.017  19.349  0.00  0.00    +0.000 A 
ATOM      9  C   UNL     1      47.991   5.071  18.562  0.00  0.00    +0.000 A 
BRANCH   8  10
ATOM     10  C   UNL     1      47.993   7.202  19.909  0.00  0.00    +0.000 A 
ATOM     11  C   UNL     1      47.622   8.303  19.136  0.00  0.00    +0.000 A 
ATOM     12  C   UNL     1      47.056   9.415  19.757  0.00  0.00    +0.000 A 
ATOM     13  C   UNL     1      46.864   9.403  21.131  0.00  0.00    +0.000 A 
ATOM     14  C   UNL     1      47.235   8.268  21.828  0.00  0.00    +0.000 A 
ATOM     15  N   UNL     1      47.788   7.178  21.251  0.00  0.00    +0.000 NA
ENDBRANCH   8  10
ENDBRANCH   1   4
BRANCH   1  16
ATOM     16  C   UNL     1      47.242   3.911  15.909  0.00  0.00    +0.000 C 
BRANCH  16  17
ATOM     17  O   UNL     1      47.408   3.337  14.603  0.00  0.00    +0.000 OA
BRANCH  17  22
ATOM     18  C   UNL     1      45.137   3.846  11.801  0.00  0.00    +0.000 A 
ATOM     19  C   UNL     1      45.397   5.172  11.441  0.00  0.00    +0.000 A 
ATOM     20  C   UNL     1      46.335   5.916  12.150  0.00  0.00    +0.000 A 
ATOM     21  C   UNL     1      47.025   5.336  13.216  0.00  0.00    +0.000 A 
ATOM     22  C   UNL     1      46.787   4.007  13.578  0.00  0.00    +0.000 A 
ATOM     23  C   UNL     1      45.842   3.260  12.864  0.00  0.00    +0.000 A 
BRANCH  18  25
ATOM     24  N   UNL     1      44.572   2.273  10.029  0.00  0.00    +0.000 N 
ATOM     25  C   UNL     1      44.118   3.100  11.017  0.00  0.00    +0.000 C 
ATOM     26  O   UNL     1      42.924   3.184  11.273  0.00  0.00    +0.000 OA
ATOM     27  H   UNL     1      43.877   1.686   9.586  0.00  0.00    +0.000 HD
ATOM     28  H   UNL     1      45.540   1.994   9.954  0.00  0.00    +0.000 HD
ENDBRANCH  18  25
ENDBRANCH  17  22
ENDBRANCH  16  17
ENDBRANCH   1  16
TORSDOF 6
ENDMDL
MODEL 9
REMARK VINA RESULT:    -6.874      3.816      8.027
REMARK INTER + INTRA:         -10.401
REMARK INTER:                  -9.324
REMARK INTRA:                  -1.077
REMARK UNBOUND:                -1.116
REMARK  Name = 
REMARK  6 active torsions:
REMARK  status: ('A' for Active; 'I' for Inactive)
REMARK    1  A    between atoms: C_2  and  C_4
REMARK    2  A    between atoms: C_8  and  O_9
REMARK    3  A    between atoms: O_9  and  C_10
REMARK    4  A    between atoms: C_10  and  C_11
REMARK    5  A    between atoms: C_11  and  C_14
REMARK    6  A    between atoms: C_18  and  C_19
REMARK                            x       y       z     vdW  Elec       q    Type
REMARK                         _______ _______ _______ _____ _____    ______ ____
ROOT
ATOM      1  C   UNL     1      48.767   7.948  13.047  0.00  0.00    +0.000 C 
ATOM      2  F   UNL     1      49.367   9.033  12.477  0.00  0.00    +0.000 F 
ATOM      3  F   UNL     1      49.551   6.879  12.727  0.00  0.00    +0.000 F 
ENDROOT
BRANCH   1   4
ATOM      4  C   UNL     1      47.336   7.777  12.563  0.00  0.00    +0.000 A 
ATOM      5  C   UNL     1      46.419   8.832  12.646  0.00  0.00    +0.000 A 
ATOM      6  C   UNL     1      45.139   8.690  12.115  0.00  0.00    +0.000 A 
ATOM      7  C   UNL     1      44.769   7.499  11.484  0.00  0.00    +0.000 A 
ATOM      8  C   UNL     1      45.661   6.418  11.375  0.00  0.00    +0.000 A 
ATOM      9  C   UNL     1      46.942   6.577  11.938  0.00  0.00    +0.000 A 
BRANCH   8  10
ATOM     10  C   UNL     1      45.283   5.193  10.640  0.00  0.00    +0.000 A 
ATOM     11  C   UNL     1      45.513   5.024   9.274  0.00  0.00    +0.000 A 
ATOM     12  C   UNL     1      45.051   3.871   8.640  0.00  0.00    +0.000 A 
ATOM     13  C   UNL     1      44.379   2.909   9.382  0.00  0.00    +0.000 A 
ATOM     14  C   UNL     1      44.209   3.136  10.735  0.00  0.00    +0.000 A 
ATOM     15  N   UNL     1      44.644   4.245  11.373  0.00  0.00    +0.000 NA
ENDBRANCH   8  10
ENDBRANCH   1   4
BRANCH   1  16
ATOM     16  C   UNL     1      48.752   8.127  14.576  0.00  0.00    +0.000 C 
BRANCH  16  17
ATOM     17  O   UNL     1      50.012   7.799  15.181  0.00  0.00    +0.000 OA
BRANCH  17  22
ATOM     18  C   UNL     1      48.575   5.203  17.293  0.00  0.00    +0.000 A 
ATOM     19  C   UNL     1      49.711   4.590  17.830  0.00  0.00    +0.000 A 
ATOM     20  C   UNL     1      50.980   5.039  17.476  0.00  0.00    +0.000 A 
ATOM     21  C   UNL     1      51.119   6.109  16.590  0.00  0.00    +0.000 A 
ATOM     22  C   UNL     1      49.992   6.740  16.055  0.00  0.00    +0.000 A 
ATOM     23  C   UNL     1      48.716   6.287  16.413  0.00  0.00    +0.000 A 
BRANCH  18  25
ATOM     24  N   UNL     1      46.563   5.370  18.656  0.00  0.00    +0.000 N 
ATOM     25  C   UNL     1      47.245   4.676  17.697  0.00  0.00    +0.000 C 
ATOM     26  O   UNL     1      46.755   3.690  17.163  0.00  0.00    +0.000 OA
ATOM     27  H   UNL     1      45.614   5.068  18.834  0.00  0.00    +0.000 HD
ATOM     28  H   UNL     1      46.819   6.307  18.936  0.00  0.00    +0.000 HD
ENDBRANCH  18  25
ENDBRANCH  17  22
ENDBRANCH  16  17
ENDBRANCH   1  16
TORSDOF 6
ENDMDL
