MODEL 1
REMARK VINA RESULT:    -8.163      0.000      0.000
REMARK INTER + INTRA:         -12.577
REMARK INTER:                 -11.503
REMARK INTRA:                  -1.074
REMARK UNBOUND:                -1.074
REMARK  Name = 
REMARK  8 active torsions:
REMARK  status: ('A' for Active; 'I' for Inactive)
REMARK    1  A    between atoms: C_1  and  N_2
REMARK    2  A    between atoms: N_2  and  C_3
REMARK    3  A    between atoms: N_2  and  C_14
REMARK    4  A    between atoms: C_3  and  C_4
REMARK    5  A    between atoms: C_4  and  C_5
REMARK    6  A    between atoms: C_8  and  C_9
REMARK    7  A    between atoms: C_18  and  O_19
REMARK    8  A    between atoms: O_19  and  C_20
REMARK                            x       y       z     vdW  Elec       q    Type
REMARK                         _______ _______ _______ _____ _____    ______ ____
ROOT
ATOM      1  C   UNL     1      43.306   4.505  13.429  0.00  0.00    +0.000 C 
ATOM      2  N   UNL     1      43.925   5.139  12.259  0.00  0.00    +0.000 N 
ENDROOT
BRANCH   2   3
ATOM      3  C   UNL     1      45.262   5.562  12.444  0.00  0.00    +0.000 A 
ATOM      4  C   UNL     1      45.903   6.468  11.581  0.00  0.00    +0.000 A 
ATOM      5  C   UNL     1      47.228   6.884  11.782  0.00  0.00    +0.000 A 
ATOM      6  C   UNL     1      47.959   6.413  12.868  0.00  0.00    +0.000 A 
ATOM      7  C   UNL     1      47.357   5.527  13.746  0.00  0.00    +0.000 A 
ATOM      8  C   UNL     1      46.030   5.127  13.541  0.00  0.00    +0.000 A 
BRANCH   7   9
ATOM      9  O   UNL     1      47.955   5.017  14.874  0.00  0.00    +0.000 OA
BRANCH   9  10
ATOM     10  C   UNL     1      47.164   4.213  15.778  0.00  0.00    +0.000 C 
ATOM     11  C   UNL     1      47.084   4.653  17.255  0.00  0.00    +0.000 C 
ATOM     12  N   UNL     1      47.491   3.309  17.693  0.00  0.00    +0.000 NA
ATOM     13  C   UNL     1      47.877   2.957  16.320  0.00  0.00    +0.000 C 
ATOM     14  H   UNL     1      46.730   2.744  18.067  0.00  0.00    +0.000 HD
ENDBRANCH   9  10
ENDBRANCH   7   9
ENDBRANCH   2   3
BRANCH   2  15
ATOM     15  C   UNL     1      43.528   4.685  10.903  0.00  0.00    +0.000 C 
BRANCH  15  16
ATOM     16  C   UNL     1      43.842   3.214  10.604  0.00  0.00    +0.000 C 
BRANCH  16  17
ATOM     17  C   UNL     1      44.850   3.025   9.494  0.00  0.00    +0.000 A 
ATOM     18  C   UNL     1      45.244   1.734   9.113  0.00  0.00    +0.000 A 
ATOM     19  C   UNL     1      46.129   1.550   8.049  0.00  0.00    +0.000 A 
ATOM     20  C   UNL     1      46.628   2.653   7.348  0.00  0.00    +0.000 A 
ATOM     21  C   UNL     1      46.266   3.945   7.747  0.00  0.00    +0.000 A 
ATOM     22  C   UNL     1      45.384   4.128   8.816  0.00  0.00    +0.000 A 
BRANCH  20  23
ATOM     23  C   UNL     1      47.546   2.404   6.205  0.00  0.00    +0.000 C 
ATOM     24  N   UNL     1      47.318   3.099   5.050  0.00  0.00    +0.000 N 
ATOM     25  O   UNL     1      48.449   1.580   6.274  0.00  0.00    +0.000 OA
ATOM     26  H   UNL     1      46.465   3.608   4.876  0.00  0.00    +0.000 HD
ATOM     27  H   UNL     1      47.883   2.838   4.253  0.00  0.00    +0.000 HD
ENDBRANCH  20  23
ENDBRANCH  16  17
ENDBRANCH  15  16
ENDBRANCH   2  15
TORSDOF 7
ENDMDL
MODEL 2
REMARK VINA RESULT:    -7.319      2.657      4.599
REMARK INTER + INTRA:         -11.388
REMARK INTER:                 -10.503
REMARK INTRA:                  -0.885
REMARK UNBOUND:                -1.074
REMARK  Name = 
REMARK  8 active torsions:
REMARK  status: ('A' for Active; 'I' for Inactive)
REMARK    1  A    between atoms: C_1  and  N_2
REMARK    2  A    between atoms: N_2  and  C_3
REMARK    3  A    between atoms: N_2  and  C_14
REMARK    4  A    between atoms: C_3  and  C_4
REMARK    5  A    between atoms: C_4  and  C_5
REMARK    6  A    between atoms: C_8  and  C_9
REMARK    7  A    between atoms: C_18  and  O_19
REMARK    8  A    between atoms: O_19  and  C_20
REMARK                            x       y       z     vdW  Elec       q    Type
REMARK                         _______ _______ _______ _____ _____    ______ ____
ROOT
ATOM      1  C   UNL     1      45.898   3.588  12.910  0.00  0.00    +0.000 C 
ATOM      2  N   UNL     1      45.014   4.704  12.552  0.00  0.00    +0.000 N 
ENDROOT
BRANCH   2   3
ATOM      3  C   UNL     1      45.656   5.957  12.413  0.00  0.00    +0.000 A 
ATOM      4  C   UNL     1      47.034   6.086  12.163  0.00  0.00    +0.000 A 
ATOM      5  C   UNL     1      47.655   7.335  12.021  0.00  0.00    +0.000 A 
ATOM      6  C   UNL     1      46.913   8.509  12.115  0.00  0.00    +0.000 A 
ATOM      7  C   UNL     1      45.550   8.421  12.351  0.00  0.00    +0.000 A 
ATOM      8  C   UNL     1      44.939   7.167  12.479  0.00  0.00    +0.000 A 
BRANCH   7   9
ATOM      9  O   UNL     1      44.701   9.498  12.428  0.00  0.00    +0.000 OA
BRANCH   9  10
ATOM     10  C   UNL     1      44.271  10.135  11.204  0.00  0.00    +0.000 C 
ATOM     11  C   UNL     1      43.555  11.498  11.311  0.00  0.00    +0.000 C 
ATOM     12  N   UNL     1      42.439  10.993  10.496  0.00  0.00    +0.000 NA
ATOM     13  C   UNL     1      42.933   9.616  10.638  0.00  0.00    +0.000 C 
ATOM     14  H   UNL     1      42.437  11.334   9.536  0.00  0.00    +0.000 HD
ENDBRANCH   9  10
ENDBRANCH   7   9
ENDBRANCH   2   3
BRANCH   2  15
ATOM     15  C   UNL     1      43.833   4.437  11.694  0.00  0.00    +0.000 C 
BRANCH  15  16
ATOM     16  C   UNL     1      43.953   4.967  10.259  0.00  0.00    +0.000 C 
BRANCH  16  17
ATOM     17  C   UNL     1      44.804   4.098   9.363  0.00  0.00    +0.000 A 
ATOM     18  C   UNL     1      45.686   4.686   8.444  0.00  0.00    +0.000 A 
ATOM     19  C   UNL     1      46.519   3.891   7.655  0.00  0.00    +0.000 A 
ATOM     20  C   UNL     1      46.486   2.497   7.777  0.00  0.00    +0.000 A 
ATOM     21  C   UNL     1      45.582   1.904   8.666  0.00  0.00    +0.000 A 
ATOM     22  C   UNL     1      44.745   2.702   9.452  0.00  0.00    +0.000 A 
BRANCH  20  23
ATOM     23  C   UNL     1      47.412   1.695   6.935  0.00  0.00    +0.000 C 
ATOM     24  N   UNL     1      48.488   2.340   6.391  0.00  0.00    +0.000 N 
ATOM     25  O   UNL     1      47.204   0.512   6.698  0.00  0.00    +0.000 OA
ATOM     26  H   UNL     1      48.571   3.346   6.370  0.00  0.00    +0.000 HD
ATOM     27  H   UNL     1      49.044   1.807   5.736  0.00  0.00    +0.000 HD
ENDBRANCH  20  23
ENDBRANCH  16  17
ENDBRANCH  15  16
ENDBRANCH   2  15
TORSDOF 7
ENDMDL
MODEL 3
REMARK VINA RESULT:    -7.291      2.286      3.285
REMARK INTER + INTRA:         -11.349
REMARK INTER:                 -10.279
REMARK INTRA:                  -1.070
REMARK UNBOUND:                -1.074
REMARK  Name = 
REMARK  8 active torsions:
REMARK  status: ('A' for Active; 'I' for Inactive)
REMARK    1  A    between atoms: C_1  and  N_2
REMARK    2  A    between atoms: N_2  and  C_3
REMARK    3  A    between atoms: N_2  and  C_14
REMARK    4  A    between atoms: C_3  and  C_4
REMARK    5  A    between atoms: C_4  and  C_5
REMARK    6  A    between atoms: C_8  and  C_9
REMARK    7  A    between atoms: C_18  and  O_19
REMARK    8  A    between atoms: O_19  and  C_20
REMARK                            x       y       z     vdW  Elec       q    Type
REMARK                         _______ _______ _______ _____ _____    ______ ____
ROOT
ATOM      1  C   UNL     1      46.097   3.587  12.886  0.00  0.00    +0.000 C 
ATOM      2  N   UNL     1      45.041   4.570  12.613  0.00  0.00    +0.000 N 
ENDROOT
BRANCH   2   3
ATOM      3  C   UNL     1      45.489   5.904  12.467  0.00  0.00    +0.000 A 
ATOM      4  C   UNL     1      44.704   7.016  12.820  0.00  0.00    +0.000 A 
ATOM      5  C   UNL     1      45.164   8.334  12.676  0.00  0.00    +0.000 A 
ATOM      6  C   UNL     1      46.440   8.586  12.180  0.00  0.00    +0.000 A 
ATOM      7  C   UNL     1      47.246   7.515  11.832  0.00  0.00    +0.000 A 
ATOM      8  C   UNL     1      46.780   6.203  11.990  0.00  0.00    +0.000 A 
BRANCH   7   9
ATOM      9  O   UNL     1      48.535   7.626  11.366  0.00  0.00    +0.000 OA
BRANCH   9  10
ATOM     10  C   UNL     1      49.618   7.157  12.200  0.00  0.00    +0.000 C 
ATOM     11  C   UNL     1      49.722   7.717  13.634  0.00  0.00    +0.000 C 
ATOM     12  N   UNL     1      51.127   8.090  13.403  0.00  0.00    +0.000 NA
ATOM     13  C   UNL     1      50.971   7.859  11.960  0.00  0.00    +0.000 C 
ATOM     14  H   UNL     1      51.801   7.470  13.850  0.00  0.00    +0.000 HD
ENDBRANCH   9  10
ENDBRANCH   7   9
ENDBRANCH   2   3
BRANCH   2  15
ATOM     15  C   UNL     1      43.858   4.150  11.822  0.00  0.00    +0.000 C 
BRANCH  15  16
ATOM     16  C   UNL     1      43.832   4.675  10.381  0.00  0.00    +0.000 C 
BRANCH  16  17
ATOM     17  C   UNL     1      44.712   3.890   9.436  0.00  0.00    +0.000 A 
ATOM     18  C   UNL     1      45.522   4.560   8.507  0.00  0.00    +0.000 A 
ATOM     19  C   UNL     1      46.381   3.843   7.673  0.00  0.00    +0.000 A 
ATOM     20  C   UNL     1      46.446   2.448   7.758  0.00  0.00    +0.000 A 
ATOM     21  C   UNL     1      45.615   1.772   8.658  0.00  0.00    +0.000 A 
ATOM     22  C   UNL     1      44.750   2.491   9.490  0.00  0.00    +0.000 A 
BRANCH  20  23
ATOM     23  C   UNL     1      47.397   1.733   6.866  0.00  0.00    +0.000 C 
ATOM     24  N   UNL     1      48.488   2.428   6.421  0.00  0.00    +0.000 N 
ATOM     25  O   UNL     1      47.198   0.580   6.507  0.00  0.00    +0.000 OA
ATOM     26  H   UNL     1      48.571   3.430   6.503  0.00  0.00    +0.000 HD
ATOM     27  H   UNL     1      49.063   1.962   5.732  0.00  0.00    +0.000 HD
ENDBRANCH  20  23
ENDBRANCH  16  17
ENDBRANCH  15  16
ENDBRANCH   2  15
TORSDOF 7
ENDMDL
MODEL 4
REMARK VINA RESULT:    -7.167      1.608      1.992
REMARK INTER + INTRA:         -11.173
REMARK INTER:                 -10.641
REMARK INTRA:                  -0.532
REMARK UNBOUND:                -1.074
REMARK  Name = 
REMARK  8 active torsions:
REMARK  status: ('A' for Active; 'I' for Inactive)
REMARK    1  A    between atoms: C_1  and  N_2
REMARK    2  A    between atoms: N_2  and  C_3
REMARK    3  A    between atoms: N_2  and  C_14
REMARK    4  A    between atoms: C_3  and  C_4
REMARK    5  A    between atoms: C_4  and  C_5
REMARK    6  A    between atoms: C_8  and  C_9
REMARK    7  A    between atoms: C_18  and  O_19
REMARK    8  A    between atoms: O_19  and  C_20
REMARK                            x       y       z     vdW  Elec       q    Type
REMARK                         _______ _______ _______ _____ _____    ______ ____
ROOT
ATOM      1  C   UNL     1      45.392   3.882  12.840  0.00  0.00    +0.000 C 
ATOM      2  N   UNL     1      44.954   5.244  12.511  0.00  0.00    +0.000 N 
ENDROOT
BRANCH   2   3
ATOM      3  C   UNL     1      45.866   6.267  12.860  0.00  0.00    +0.000 A 
ATOM      4  C   UNL     1      45.618   7.629  12.614  0.00  0.00    +0.000 A 
ATOM      5  C   UNL     1      46.530   8.633  12.973  0.00  0.00    +0.000 A 
ATOM      6  C   UNL     1      47.728   8.308  13.604  0.00  0.00    +0.000 A 
ATOM      7  C   UNL     1      48.002   6.976  13.871  0.00  0.00    +0.000 A 
ATOM      8  C   UNL     1      47.078   5.984  13.519  0.00  0.00    +0.000 A 
BRANCH   7   9
ATOM      9  O   UNL     1      49.127   6.526  14.520  0.00  0.00    +0.000 OA
BRANCH   9  10
ATOM     10  C   UNL     1      49.189   6.632  15.960  0.00  0.00    +0.000 C 
ATOM     11  C   UNL     1      50.496   6.204  16.660  0.00  0.00    +0.000 C 
ATOM     12  N   UNL     1      49.741   5.317  17.560  0.00  0.00    +0.000 NA
ATOM     13  C   UNL     1      48.541   5.458  16.724  0.00  0.00    +0.000 C 
ATOM     14  H   UNL     1      49.631   5.679  18.505  0.00  0.00    +0.000 HD
ENDBRANCH   9  10
ENDBRANCH   7   9
ENDBRANCH   2   3
BRANCH   2  15
ATOM     15  C   UNL     1      44.109   5.455  11.310  0.00  0.00    +0.000 C 
BRANCH  15  16
ATOM     16  C   UNL     1      43.627   4.166  10.632  0.00  0.00    +0.000 C 
BRANCH  16  17
ATOM     17  C   UNL     1      44.567   3.657   9.564  0.00  0.00    +0.000 A 
ATOM     18  C   UNL     1      45.302   4.562   8.784  0.00  0.00    +0.000 A 
ATOM     19  C   UNL     1      46.216   4.098   7.837  0.00  0.00    +0.000 A 
ATOM     20  C   UNL     1      46.412   2.724   7.659  0.00  0.00    +0.000 A 
ATOM     21  C   UNL     1      45.656   1.817   8.410  0.00  0.00    +0.000 A 
ATOM     22  C   UNL     1      44.736   2.283   9.355  0.00  0.00    +0.000 A 
BRANCH  20  23
ATOM     23  C   UNL     1      47.417   2.281   6.657  0.00  0.00    +0.000 C 
ATOM     24  N   UNL     1      47.524   3.012   5.506  0.00  0.00    +0.000 N 
ATOM     25  O   UNL     1      48.099   1.279   6.830  0.00  0.00    +0.000 OA
ATOM     26  H   UNL     1      46.837   3.695   5.225  0.00  0.00    +0.000 HD
ATOM     27  H   UNL     1      48.133   2.634   4.792  0.00  0.00    +0.000 HD
ENDBRANCH  20  23
ENDBRANCH  16  17
ENDBRANCH  15  16
ENDBRANCH   2  15
TORSDOF 7
ENDMDL
MODEL 5
REMARK VINA RESULT:    -6.945      1.588      7.941
REMARK INTER + INTRA:         -10.861
REMARK INTER:                 -10.347
REMARK INTRA:                  -0.514
REMARK UNBOUND:                -1.074
REMARK  Name = 
REMARK  8 active torsions:
REMARK  status: ('A' for Active; 'I' for Inactive)
REMARK    1  A    between atoms: C_1  and  N_2
REMARK    2  A    between atoms: N_2  and  C_3
REMARK    3  A    between atoms: N_2  and  C_14
REMARK    4  A    between atoms: C_3  and  C_4
REMARK    5  A    between atoms: C_4  and  C_5
REMARK    6  A    between atoms: C_8  and  C_9
REMARK    7  A    between atoms: C_18  and  O_19
REMARK    8  A    between atoms: O_19  and  C_20
REMARK                            x       y       z     vdW  Elec       q    Type
REMARK                         _______ _______ _______ _____ _____    ______ ____
ROOT
ATOM      1  C   UNL     1      44.515   7.336  11.471  0.00  0.00    +0.000 C 
ATOM      2  N   UNL     1      45.566   6.312  11.402  0.00  0.00    +0.000 N 
ENDROOT
BRANCH   2   3
ATOM      3  C   UNL     1      45.270   5.207  10.570  0.00  0.00    +0.000 A 
ATOM      4  C   UNL     1      44.384   4.182  10.947  0.00  0.00    +0.000 A 
ATOM      5  C   UNL     1      44.095   3.096  10.108  0.00  0.00    +0.000 A 
ATOM      6  C   UNL     1      44.681   3.000   8.849  0.00  0.00    +0.000 A 
ATOM      7  C   UNL     1      45.552   3.997   8.439  0.00  0.00    +0.000 A 
ATOM      8  C   UNL     1      45.823   5.083   9.281  0.00  0.00    +0.000 A 
BRANCH   7   9
ATOM      9  O   UNL     1      46.165   4.040   7.210  0.00  0.00    +0.000 OA
BRANCH   9  10
ATOM     10  C   UNL     1      46.618   2.804   6.614  0.00  0.00    +0.000 C 
ATOM     11  C   UNL     1      48.076   2.369   6.870  0.00  0.00    +0.000 C 
ATOM     12  N   UNL     1      48.300   2.214   5.424  0.00  0.00    +0.000 NA
ATOM     13  C   UNL     1      47.041   2.915   5.134  0.00  0.00    +0.000 C 
ATOM     14  H   UNL     1      48.316   1.246   5.106  0.00  0.00    +0.000 HD
ENDBRANCH   9  10
ENDBRANCH   7   9
ENDBRANCH   2   3
BRANCH   2  15
ATOM     15  C   UNL     1      46.984   6.732  11.512  0.00  0.00    +0.000 C 
BRANCH  15  16
ATOM     16  C   UNL     1      47.368   7.342  12.866  0.00  0.00    +0.000 C 
BRANCH  16  17
ATOM     17  C   UNL     1      47.556   6.317  13.959  0.00  0.00    +0.000 A 
ATOM     18  C   UNL     1      48.338   6.621  15.084  0.00  0.00    +0.000 A 
ATOM     19  C   UNL     1      48.467   5.700  16.125  0.00  0.00    +0.000 A 
ATOM     20  C   UNL     1      47.813   4.465  16.059  0.00  0.00    +0.000 A 
ATOM     21  C   UNL     1      47.061   4.142  14.924  0.00  0.00    +0.000 A 
ATOM     22  C   UNL     1      46.937   5.063  13.879  0.00  0.00    +0.000 A 
BRANCH  20  23
ATOM     23  C   UNL     1      47.959   3.530  17.206  0.00  0.00    +0.000 C 
ATOM     24  N   UNL     1      46.842   2.856  17.617  0.00  0.00    +0.000 N 
ATOM     25  O   UNL     1      49.026   3.393  17.791  0.00  0.00    +0.000 OA
ATOM     26  H   UNL     1      45.911   3.105  17.319  0.00  0.00    +0.000 HD
ATOM     27  H   UNL     1      46.937   2.309  18.463  0.00  0.00    +0.000 HD
ENDBRANCH  20  23
ENDBRANCH  16  17
ENDBRANCH  15  16
ENDBRANCH   2  15
TORSDOF 7
ENDMDL
MODEL 6
REMARK VINA RESULT:    -6.311      3.015      7.341
REMARK INTER + INTRA:          -9.967
REMARK INTER:                  -9.393
REMARK INTRA:                  -0.574
REMARK UNBOUND:                -1.074
REMARK  Name = 
REMARK  8 active torsions:
REMARK  status: ('A' for Active; 'I' for Inactive)
REMARK    1  A    between atoms: C_1  and  N_2
REMARK    2  A    between atoms: N_2  and  C_3
REMARK    3  A    between atoms: N_2  and  C_14
REMARK    4  A    between atoms: C_3  and  C_4
REMARK    5  A    between atoms: C_4  and  C_5
REMARK    6  A    between atoms: C_8  and  C_9
REMARK    7  A    between atoms: C_18  and  O_19
REMARK    8  A    between atoms: O_19  and  C_20
REMARK                            x       y       z     vdW  Elec       q    Type
REMARK                         _______ _______ _______ _____ _____    ______ ____
ROOT
ATOM      1  C   UNL     1      44.787   5.401  13.190  0.00  0.00    +0.000 C 
ATOM      2  N   UNL     1      45.175   5.733  11.814  0.00  0.00    +0.000 N 
ENDROOT
BRANCH   2   3
ATOM      3  C   UNL     1      45.007   4.687  10.876  0.00  0.00    +0.000 A 
ATOM      4  C   UNL     1      44.181   3.574  11.112  0.00  0.00    +0.000 A 
ATOM      5  C   UNL     1      44.019   2.548  10.169  0.00  0.00    +0.000 A 
ATOM      6  C   UNL     1      44.675   2.605   8.943  0.00  0.00    +0.000 A 
ATOM      7  C   UNL     1      45.490   3.692   8.671  0.00  0.00    +0.000 A 
ATOM      8  C   UNL     1      45.635   4.716   9.616  0.00  0.00    +0.000 A 
BRANCH   7   9
ATOM      9  O   UNL     1      46.162   3.886   7.488  0.00  0.00    +0.000 OA
BRANCH   9  10
ATOM     10  C   UNL     1      46.556   2.731   6.713  0.00  0.00    +0.000 C 
ATOM     11  C   UNL     1      47.970   2.157   6.938  0.00  0.00    +0.000 C 
ATOM     12  N   UNL     1      48.242   2.219   5.494  0.00  0.00    +0.000 NA
ATOM     13  C   UNL     1      47.045   3.046   5.284  0.00  0.00    +0.000 C 
ATOM     14  H   UNL     1      48.208   1.316   5.024  0.00  0.00    +0.000 HD
ENDBRANCH   9  10
ENDBRANCH   7   9
ENDBRANCH   2   3
BRANCH   2  15
ATOM     15  C   UNL     1      44.995   7.124  11.332  0.00  0.00    +0.000 C 
BRANCH  15  16
ATOM     16  C   UNL     1      45.603   8.199  12.243  0.00  0.00    +0.000 C 
BRANCH  16  17
ATOM     17  C   UNL     1      47.088   8.391  12.043  0.00  0.00    +0.000 A 
ATOM     18  C   UNL     1      47.932   7.277  11.919  0.00  0.00    +0.000 A 
ATOM     19  C   UNL     1      49.295   7.447  11.675  0.00  0.00    +0.000 A 
ATOM     20  C   UNL     1      49.834   8.732  11.547  0.00  0.00    +0.000 A 
ATOM     21  C   UNL     1      49.004   9.847  11.706  0.00  0.00    +0.000 A 
ATOM     22  C   UNL     1      47.639   9.676  11.955  0.00  0.00    +0.000 A 
BRANCH  20  23
ATOM     23  C   UNL     1      51.288   8.859  11.261  0.00  0.00    +0.000 C 
ATOM     24  N   UNL     1      52.144   8.075  11.984  0.00  0.00    +0.000 N 
ATOM     25  O   UNL     1      51.713   9.661  10.440  0.00  0.00    +0.000 OA
ATOM     26  H   UNL     1      51.862   7.577  12.815  0.00  0.00    +0.000 HD
ATOM     27  H   UNL     1      53.131   8.253  11.852  0.00  0.00    +0.000 HD
ENDBRANCH  20  23
ENDBRANCH  16  17
ENDBRANCH  15  16
ENDBRANCH   2  15
TORSDOF 7
ENDMDL
MODEL 7
REMARK VINA RESULT:    -6.224      3.089      4.679
REMARK INTER + INTRA:          -9.844
REMARK INTER:                  -8.714
REMARK INTRA:                  -1.130
REMARK UNBOUND:                -1.074
REMARK  Name = 
REMARK  8 active torsions:
REMARK  status: ('A' for Active; 'I' for Inactive)
REMARK    1  A    between atoms: C_1  and  N_2
REMARK    2  A    between atoms: N_2  and  C_3
REMARK    3  A    between atoms: N_2  and  C_14
REMARK    4  A    between atoms: C_3  and  C_4
REMARK    5  A    between atoms: C_4  and  C_5
REMARK    6  A    between atoms: C_8  and  C_9
REMARK    7  A    between atoms: C_18  and  O_19
REMARK    8  A    between atoms: O_19  and  C_20
REMARK                            x       y       z     vdW  Elec       q    Type
REMARK                         _______ _______ _______ _____ _____    ______ ____
ROOT
ATOM      1  C   UNL     1      49.337   8.052  11.840  0.00  0.00    +0.000 C 
ATOM      2  N   UNL     1      48.138   7.980  12.685  0.00  0.00    +0.000 N 
ENDROOT
BRANCH   2   3
ATOM      3  C   UNL     1      48.390   7.829  14.069  0.00  0.00    +0.000 A 
ATOM      4  C   UNL     1      48.364   8.907  14.972  0.00  0.00    +0.000 A 
ATOM      5  C   UNL     1      48.608   8.741  16.344  0.00  0.00    +0.000 A 
ATOM      6  C   UNL     1      48.879   7.479  16.865  0.00  0.00    +0.000 A 
ATOM      7  C   UNL     1      48.903   6.392  16.007  0.00  0.00    +0.000 A 
ATOM      8  C   UNL     1      48.646   6.568  14.641  0.00  0.00    +0.000 A 
BRANCH   7   9
ATOM      9  O   UNL     1      49.121   5.092  16.399  0.00  0.00    +0.000 OA
BRANCH   9  10
ATOM     10  C   UNL     1      48.300   4.535  17.450  0.00  0.00    +0.000 C 
ATOM     11  C   UNL     1      48.381   3.015  17.702  0.00  0.00    +0.000 C 
ATOM     12  N   UNL     1      46.917   2.905  17.598  0.00  0.00    +0.000 NA
ATOM     13  C   UNL     1      46.833   4.266  17.052  0.00  0.00    +0.000 C 
ATOM     14  H   UNL     1      46.444   2.788  18.493  0.00  0.00    +0.000 HD
ENDBRANCH   9  10
ENDBRANCH   7   9
ENDBRANCH   2   3
BRANCH   2  15
ATOM     15  C   UNL     1      46.931   8.742  12.283  0.00  0.00    +0.000 C 
BRANCH  15  16
ATOM     16  C   UNL     1      45.615   8.208  12.865  0.00  0.00    +0.000 C 
BRANCH  16  17
ATOM     17  C   UNL     1      45.251   6.828  12.370  0.00  0.00    +0.000 A 
ATOM     18  C   UNL     1      45.052   5.782  13.284  0.00  0.00    +0.000 A 
ATOM     19  C   UNL     1      44.658   4.520  12.838  0.00  0.00    +0.000 A 
ATOM     20  C   UNL     1      44.453   4.286  11.474  0.00  0.00    +0.000 A 
ATOM     21  C   UNL     1      44.685   5.315  10.555  0.00  0.00    +0.000 A 
ATOM     22  C   UNL     1      45.085   6.578  11.003  0.00  0.00    +0.000 A 
BRANCH  20  23
ATOM     23  C   UNL     1      44.007   2.932  11.052  0.00  0.00    +0.000 C 
ATOM     24  N   UNL     1      44.725   2.309  10.068  0.00  0.00    +0.000 N 
ATOM     25  O   UNL     1      43.013   2.403  11.534  0.00  0.00    +0.000 OA
ATOM     26  H   UNL     1      45.399   2.792   9.493  0.00  0.00    +0.000 HD
ATOM     27  H   UNL     1      44.344   1.439   9.720  0.00  0.00    +0.000 HD
ENDBRANCH  20  23
ENDBRANCH  16  17
ENDBRANCH  15  16
ENDBRANCH   2  15
TORSDOF 7
ENDMDL
MODEL 8
REMARK VINA RESULT:    -6.030      3.290      5.286
REMARK INTER + INTRA:          -9.571
REMARK INTER:                  -8.574
REMARK INTRA:                  -0.997
REMARK UNBOUND:                -1.074
REMARK  Name = 
REMARK  8 active torsions:
REMARK  status: ('A' for Active; 'I' for Inactive)
REMARK    1  A    between atoms: C_1  and  N_2
REMARK    2  A    between atoms: N_2  and  C_3
REMARK    3  A    between atoms: N_2  and  C_14
REMARK    4  A    between atoms: C_3  and  C_4
REMARK    5  A    between atoms: C_4  and  C_5
REMARK    6  A    between atoms: C_8  and  C_9
REMARK    7  A    between atoms: C_18  and  O_19
REMARK    8  A    between atoms: O_19  and  C_20
REMARK                            x       y       z     vdW  Elec       q    Type
REMARK                         _______ _______ _______ _____ _____    ______ ____
ROOT
ATOM      1  C   UNL     1      48.556   9.257  14.081  0.00  0.00    +0.000 C 
ATOM      2  N   UNL     1      49.480   8.203  13.646  0.00  0.00    +0.000 N 
ENDROOT
BRANCH   2   3
ATOM      3  C   UNL     1      50.184   7.556  14.689  0.00  0.00    +0.000 A 
ATOM      4  C   UNL     1      51.563   7.730  14.903  0.00  0.00    +0.000 A 
ATOM      5  C   UNL     1      52.246   7.087  15.946  0.00  0.00    +0.000 A 
ATOM      6  C   UNL     1      51.566   6.249  16.825  0.00  0.00    +0.000 A 
ATOM      7  C   UNL     1      50.204   6.062  16.651  0.00  0.00    +0.000 A 
ATOM      8  C   UNL     1      49.531   6.718  15.613  0.00  0.00    +0.000 A 
BRANCH   7   9
ATOM      9  O   UNL     1      49.412   5.292  17.469  0.00  0.00    +0.000 OA
BRANCH   9  10
ATOM     10  C   UNL     1      48.258   4.632  16.900  0.00  0.00    +0.000 C 
ATOM     11  C   UNL     1      46.986   4.526  17.767  0.00  0.00    +0.000 C 
ATOM     12  N   UNL     1      46.930   3.074  17.533  0.00  0.00    +0.000 NA
ATOM     13  C   UNL     1      48.289   3.092  16.977  0.00  0.00    +0.000 C 
ATOM     14  H   UNL     1      46.214   2.787  16.867  0.00  0.00    +0.000 HD
ENDBRANCH   9  10
ENDBRANCH   7   9
ENDBRANCH   2   3
BRANCH   2  15
ATOM     15  C   UNL     1      49.140   7.402  12.445  0.00  0.00    +0.000 C 
BRANCH  15  16
ATOM     16  C   UNL     1      47.763   7.707  11.841  0.00  0.00    +0.000 C 
BRANCH  16  17
ATOM     17  C   UNL     1      46.804   6.541  11.904  0.00  0.00    +0.000 A 
ATOM     18  C   UNL     1      46.028   6.207  10.784  0.00  0.00    +0.000 A 
ATOM     19  C   UNL     1      45.184   5.095  10.816  0.00  0.00    +0.000 A 
ATOM     20  C   UNL     1      45.108   4.300  11.965  0.00  0.00    +0.000 A 
ATOM     21  C   UNL     1      45.853   4.649  13.096  0.00  0.00    +0.000 A 
ATOM     22  C   UNL     1      46.694   5.766  13.065  0.00  0.00    +0.000 A 
BRANCH  20  23
ATOM     23  C   UNL     1      44.215   3.112  11.939  0.00  0.00    +0.000 C 
ATOM     24  N   UNL     1      44.015   2.499  10.732  0.00  0.00    +0.000 N 
ATOM     25  O   UNL     1      43.645   2.714  12.946  0.00  0.00    +0.000 OA
ATOM     26  H   UNL     1      44.275   2.921   9.854  0.00  0.00    +0.000 HD
ATOM     27  H   UNL     1      43.322   1.762  10.715  0.00  0.00    +0.000 HD
ENDBRANCH  20  23
ENDBRANCH  16  17
ENDBRANCH  15  16
ENDBRANCH   2  15
TORSDOF 7
ENDMDL
MODEL 9
REMARK VINA RESULT:    -5.991      3.621      7.465
REMARK INTER + INTRA:          -9.517
REMARK INTER:                  -8.578
REMARK INTRA:                  -0.939
REMARK UNBOUND:                -1.074
REMARK  Name = 
REMARK  8 active torsions:
REMARK  status: ('A' for Active; 'I' for Inactive)
REMARK    1  A    between atoms: C_1  and  N_2
REMARK    2  A    between atoms: N_2  and  C_3
REMARK    3  A    between atoms: N_2  and  C_14
REMARK    4  A    between atoms: C_3  and  C_4
REMARK    5  A    between atoms: C_4  and  C_5
REMARK    6  A    between atoms: C_8  and  C_9
REMARK    7  A    between atoms: C_18  and  O_19
REMARK    8  A    between atoms: O_19  and  C_20
REMARK                            x       y       z     vdW  Elec       q    Type
REMARK                         _______ _______ _______ _____ _____    ______ ____
ROOT
ATOM      1  C   UNL     1      46.928   4.845  14.430  0.00  0.00    +0.000 C 
ATOM      2  N   UNL     1      46.880   5.237  13.016  0.00  0.00    +0.000 N 
ENDROOT
BRANCH   2   3
ATOM      3  C   UNL     1      45.628   5.049  12.385  0.00  0.00    +0.000 A 
ATOM      4  C   UNL     1      44.412   5.026  13.091  0.00  0.00    +0.000 A 
ATOM      5  C   UNL     1      43.177   4.846  12.450  0.00  0.00    +0.000 A 
ATOM      6  C   UNL     1      43.115   4.691  11.068  0.00  0.00    +0.000 A 
ATOM      7  C   UNL     1      44.292   4.718  10.338  0.00  0.00    +0.000 A 
ATOM      8  C   UNL     1      45.518   4.910  10.988  0.00  0.00    +0.000 A 
BRANCH   7   9
ATOM      9  O   UNL     1      44.364   4.614   8.969  0.00  0.00    +0.000 OA
BRANCH   9  10
ATOM     10  C   UNL     1      44.521   3.304   8.378  0.00  0.00    +0.000 C 
ATOM     11  C   UNL     1      44.640   2.093   9.327  0.00  0.00    +0.000 C 
ATOM     12  N   UNL     1      45.874   1.665   8.649  0.00  0.00    +0.000 NA
ATOM     13  C   UNL     1      45.962   2.955   7.951  0.00  0.00    +0.000 C 
ATOM     14  H   UNL     1      45.753   0.866   8.029  0.00  0.00    +0.000 HD
ENDBRANCH   9  10
ENDBRANCH   7   9
ENDBRANCH   2   3
BRANCH   2  15
ATOM     15  C   UNL     1      47.719   6.371  12.557  0.00  0.00    +0.000 C 
BRANCH  15  16
ATOM     16  C   UNL     1      47.655   7.617  13.451  0.00  0.00    +0.000 C 
BRANCH  16  17
ATOM     17  C   UNL     1      46.839   8.743  12.860  0.00  0.00    +0.000 A 
ATOM     18  C   UNL     1      47.473   9.905  12.397  0.00  0.00    +0.000 A 
ATOM     19  C   UNL     1      46.732  10.923  11.795  0.00  0.00    +0.000 A 
ATOM     20  C   UNL     1      45.347  10.793  11.645  0.00  0.00    +0.000 A 
ATOM     21  C   UNL     1      44.704   9.652  12.138  0.00  0.00    +0.000 A 
ATOM     22  C   UNL     1      45.448   8.634  12.745  0.00  0.00    +0.000 A 
BRANCH  20  23
ATOM     23  C   UNL     1      44.606  11.893  10.974  0.00  0.00    +0.000 C 
ATOM     24  N   UNL     1      43.746  12.632  11.739  0.00  0.00    +0.000 N 
ATOM     25  O   UNL     1      44.725  12.111   9.776  0.00  0.00    +0.000 OA
ATOM     26  H   UNL     1      43.449  12.348  12.660  0.00  0.00    +0.000 HD
ATOM     27  H   UNL     1      43.173  13.303  11.245  0.00  0.00    +0.000 HD
ENDBRANCH  20  23
ENDBRANCH  16  17
ENDBRANCH  15  16
ENDBRANCH   2  15
TORSDOF 7
ENDMDL
