MODEL 1
REMARK VINA RESULT:    -7.844      0.000      0.000
REMARK INTER + INTRA:         -10.600
REMARK INTER:                 -10.136
REMARK INTRA:                  -0.464
REMARK UNBOUND:                -0.464
REMARK  Name = 
REMARK  5 active torsions:
REMARK  status: ('A' for Active; 'I' for Inactive)
REMARK    1  A    between atoms: C_2  and  C_3
REMARK    2  A    between atoms: C_6  and  C_7
REMARK    3  A    between atoms: C_7  and  C_8
REMARK    4  A    between atoms: C_8  and  N_9
REMARK    5  A    between atoms: C_13  and  C_14
REMARK                            x       y       z     vdW  Elec       q    Type
REMARK                         _______ _______ _______ _____ _____    ______ ____
ROOT
ATOM      1  N   UNL     1      44.012   4.964  10.021  0.00  0.00    +0.000 N 
ATOM      2  C   UNL     1      44.822   4.099   9.255  0.00  0.00    +0.000 A 
ATOM      3  C   UNL     1      45.647   4.620   8.260  0.00  0.00    +0.000 A 
ATOM      4  C   UNL     1      46.462   3.755   7.522  0.00  0.00    +0.000 A 
ATOM      5  C   UNL     1      46.446   2.387   7.793  0.00  0.00    +0.000 A 
ATOM      6  C   UNL     1      45.587   1.953   8.788  0.00  0.00    +0.000 A 
ATOM      7  N   UNL     1      44.783   2.774   9.503  0.00  0.00    +0.000 NA
ATOM      8  H   UNL     1      44.623   5.656  10.447  0.00  0.00    +0.000 HD
ENDROOT
BRANCH   5   9
ATOM      9  C   UNL     1      47.331   1.481   7.029  0.00  0.00    +0.000 C 
ATOM     10  N   UNL     1      48.502   1.965   6.515  0.00  0.00    +0.000 N 
ATOM     11  O   UNL     1      47.029   0.307   6.847  0.00  0.00    +0.000 OA
ATOM     12  H   UNL     1      48.855   2.905   6.617  0.00  0.00    +0.000 HD
ATOM     13  H   UNL     1      49.072   1.305   6.006  0.00  0.00    +0.000 HD
ENDBRANCH   5   9
BRANCH   1  14
ATOM     14  C   UNL     1      43.206   4.236  11.023  0.00  0.00    +0.000 C 
BRANCH  14  15
ATOM     15  C   UNL     1      43.262   4.918  12.396  0.00  0.00    +0.000 C 
BRANCH  15  19
ATOM     16  C   UNL     1      47.237   6.176  13.611  0.00  0.00    +0.000 A 
ATOM     17  C   UNL     1      46.327   7.116  13.118  0.00  0.00    +0.000 A 
ATOM     18  C   UNL     1      45.044   6.715  12.713  0.00  0.00    +0.000 A 
ATOM     19  C   UNL     1      44.656   5.369  12.795  0.00  0.00    +0.000 A 
ATOM     20  C   UNL     1      45.586   4.433  13.273  0.00  0.00    +0.000 A 
ATOM     21  C   UNL     1      46.864   4.831  13.680  0.00  0.00    +0.000 A 
BRANCH  16  23
ATOM     22  N   UNL     1      49.590   6.926  14.411  0.00  0.00    +0.000 NA
ATOM     23  C   UNL     1      48.540   6.594  14.050  0.00  0.00    +0.000 C 
ENDBRANCH  16  23
ENDBRANCH  15  19
ENDBRANCH  14  15
ENDBRANCH   1  14
TORSDOF 5
ENDMDL
MODEL 2
REMARK VINA RESULT:    -7.325      2.987      7.033
REMARK INTER + INTRA:          -9.930
REMARK INTER:                  -9.617
REMARK INTRA:                  -0.313
REMARK UNBOUND:                -0.464
REMARK  Name = 
REMARK  5 active torsions:
REMARK  status: ('A' for Active; 'I' for Inactive)
REMARK    1  A    between atoms: C_2  and  C_3
REMARK    2  A    between atoms: C_6  and  C_7
REMARK    3  A    between atoms: C_7  and  C_8
REMARK    4  A    between atoms: C_8  and  N_9
REMARK    5  A    between atoms: C_13  and  C_14
REMARK                            x       y       z     vdW  Elec       q    Type
REMARK                         _______ _______ _______ _____ _____    ______ ____
ROOT
ATOM      1  N   UNL     1      45.412   5.296  11.784  0.00  0.00    +0.000 N 
ATOM      2  C   UNL     1      46.209   5.287  12.948  0.00  0.00    +0.000 A 
ATOM      3  C   UNL     1      47.189   6.261  13.128  0.00  0.00    +0.000 A 
ATOM      4  C   UNL     1      47.956   6.253  14.298  0.00  0.00    +0.000 A 
ATOM      5  C   UNL     1      47.729   5.280  15.271  0.00  0.00    +0.000 A 
ATOM      6  C   UNL     1      46.746   4.343  15.005  0.00  0.00    +0.000 A 
ATOM      7  N   UNL     1      46.003   4.327  13.875  0.00  0.00    +0.000 NA
ATOM      8  H   UNL     1      44.966   6.209  11.727  0.00  0.00    +0.000 HD
ENDROOT
BRANCH   5   9
ATOM      9  C   UNL     1      48.525   5.295  16.517  0.00  0.00    +0.000 C 
ATOM     10  N   UNL     1      48.150   6.120  17.541  0.00  0.00    +0.000 N 
ATOM     11  O   UNL     1      49.516   4.584  16.644  0.00  0.00    +0.000 OA
ATOM     12  H   UNL     1      47.349   6.733  17.551  0.00  0.00    +0.000 HD
ATOM     13  H   UNL     1      48.725   6.090  18.372  0.00  0.00    +0.000 HD
ENDBRANCH   5   9
BRANCH   1  14
ATOM     14  C   UNL     1      44.432   4.192  11.766  0.00  0.00    +0.000 C 
BRANCH  14  15
ATOM     15  C   UNL     1      43.815   4.006  10.373  0.00  0.00    +0.000 C 
BRANCH  15  19
ATOM     16  C   UNL     1      46.669   2.500   7.468  0.00  0.00    +0.000 A 
ATOM     17  C   UNL     1      46.382   3.868   7.522  0.00  0.00    +0.000 A 
ATOM     18  C   UNL     1      45.452   4.360   8.450  0.00  0.00    +0.000 A 
ATOM     19  C   UNL     1      44.798   3.492   9.336  0.00  0.00    +0.000 A 
ATOM     20  C   UNL     1      45.079   2.119   9.258  0.00  0.00    +0.000 A 
ATOM     21  C   UNL     1      46.009   1.626   8.335  0.00  0.00    +0.000 A 
BRANCH  16  23
ATOM     22  N   UNL     1      48.432   1.602   5.786  0.00  0.00    +0.000 NA
ATOM     23  C   UNL     1      47.642   2.002   6.534  0.00  0.00    +0.000 C 
ENDBRANCH  16  23
ENDBRANCH  15  19
ENDBRANCH  14  15
ENDBRANCH   1  14
TORSDOF 5
ENDMDL
MODEL 3
REMARK VINA RESULT:    -7.293      2.759      6.690
REMARK INTER + INTRA:          -9.889
REMARK INTER:                 -10.182
REMARK INTRA:                   0.293
REMARK UNBOUND:                -0.464
REMARK  Name = 
REMARK  5 active torsions:
REMARK  status: ('A' for Active; 'I' for Inactive)
REMARK    1  A    between atoms: C_2  and  C_3
REMARK    2  A    between atoms: C_6  and  C_7
REMARK    3  A    between atoms: C_7  and  C_8
REMARK    4  A    between atoms: C_8  and  N_9
REMARK    5  A    between atoms: C_13  and  C_14
REMARK                            x       y       z     vdW  Elec       q    Type
REMARK                         _______ _______ _______ _____ _____    ______ ____
ROOT
ATOM      1  N   UNL     1      45.110   3.226  12.395  0.00  0.00    +0.000 N 
ATOM      2  C   UNL     1      45.484   4.559  12.662  0.00  0.00    +0.000 A 
ATOM      3  C   UNL     1      46.746   4.835  13.185  0.00  0.00    +0.000 A 
ATOM      4  C   UNL     1      47.114   6.163  13.424  0.00  0.00    +0.000 A 
ATOM      5  C   UNL     1      46.221   7.194  13.133  0.00  0.00    +0.000 A 
ATOM      6  C   UNL     1      44.984   6.830  12.630  0.00  0.00    +0.000 A 
ATOM      7  N   UNL     1      44.607   5.551  12.404  0.00  0.00    +0.000 NA
ATOM      8  H   UNL     1      45.806   2.834  11.765  0.00  0.00    +0.000 HD
ENDROOT
BRANCH   5   9
ATOM      9  C   UNL     1      46.627   8.598  13.362  0.00  0.00    +0.000 C 
ATOM     10  N   UNL     1      47.147   8.956  14.574  0.00  0.00    +0.000 N 
ATOM     11  O   UNL     1      46.500   9.444  12.483  0.00  0.00    +0.000 OA
ATOM     12  H   UNL     1      47.309   8.342  15.359  0.00  0.00    +0.000 HD
ATOM     13  H   UNL     1      47.412   9.925  14.678  0.00  0.00    +0.000 HD
ENDBRANCH   5   9
BRANCH   1  14
ATOM     14  C   UNL     1      43.741   3.127  11.848  0.00  0.00    +0.000 C 
BRANCH  14  15
ATOM     15  C   UNL     1      43.618   3.844  10.497  0.00  0.00    +0.000 C 
BRANCH  15  19
ATOM     16  C   UNL     1      46.524   2.437   7.593  0.00  0.00    +0.000 A 
ATOM     17  C   UNL     1      46.286   3.807   7.737  0.00  0.00    +0.000 A 
ATOM     18  C   UNL     1      45.340   4.269   8.665  0.00  0.00    +0.000 A 
ATOM     19  C   UNL     1      44.620   3.366   9.462  0.00  0.00    +0.000 A 
ATOM     20  C   UNL     1      44.854   1.992   9.294  0.00  0.00    +0.000 A 
ATOM     21  C   UNL     1      45.799   1.530   8.371  0.00  0.00    +0.000 A 
BRANCH  16  23
ATOM     22  N   UNL     1      48.305   1.594   5.904  0.00  0.00    +0.000 NA
ATOM     23  C   UNL     1      47.513   1.969   6.661  0.00  0.00    +0.000 C 
ENDBRANCH  16  23
ENDBRANCH  15  19
ENDBRANCH  14  15
ENDBRANCH   1  14
TORSDOF 5
ENDMDL
MODEL 4
REMARK VINA RESULT:    -7.167      2.689      6.679
REMARK INTER + INTRA:          -9.725
REMARK INTER:                  -9.221
REMARK INTRA:                  -0.505
REMARK UNBOUND:                -0.464
REMARK  Name = 
REMARK  5 active torsions:
REMARK  status: ('A' for Active; 'I' for Inactive)
REMARK    1  A    between atoms: C_2  and  C_3
REMARK    2  A    between atoms: C_6  and  C_7
REMARK    3  A    between atoms: C_7  and  C_8
REMARK    4  A    between atoms: C_8  and  N_9
REMARK    5  A    between atoms: C_13  and  C_14
REMARK                            x       y       z     vdW  Elec       q    Type
REMARK                         _______ _______ _______ _____ _____    ______ ____
ROOT
ATOM      1  N   UNL     1      44.722   4.802  12.312  0.00  0.00    +0.000 N 
ATOM      2  C   UNL     1      45.896   5.558  12.515  0.00  0.00    +0.000 A 
ATOM      3  C   UNL     1      46.655   5.366  13.668  0.00  0.00    +0.000 A 
ATOM      4  C   UNL     1      47.828   6.106  13.847  0.00  0.00    +0.000 A 
ATOM      5  C   UNL     1      48.230   7.018  12.871  0.00  0.00    +0.000 A 
ATOM      6  C   UNL     1      47.411   7.155  11.764  0.00  0.00    +0.000 A 
ATOM      7  N   UNL     1      46.266   6.458  11.581  0.00  0.00    +0.000 NA
ATOM      8  H   UNL     1      44.980   3.819  12.362  0.00  0.00    +0.000 HD
ENDROOT
BRANCH   5   9
ATOM      9  C   UNL     1      49.487   7.776  13.054  0.00  0.00    +0.000 C 
ATOM     10  N   UNL     1      50.387   7.364  13.997  0.00  0.00    +0.000 N 
ATOM     11  O   UNL     1      49.731   8.769  12.376  0.00  0.00    +0.000 OA
ATOM     12  H   UNL     1      50.296   6.557  14.596  0.00  0.00    +0.000 HD
ATOM     13  H   UNL     1      51.231   7.913  14.078  0.00  0.00    +0.000 HD
ENDBRANCH   5   9
BRANCH   1  14
ATOM     14  C   UNL     1      44.050   5.141  11.040  0.00  0.00    +0.000 C 
BRANCH  14  15
ATOM     15  C   UNL     1      43.649   3.882  10.260  0.00  0.00    +0.000 C 
BRANCH  15  19
ATOM     16  C   UNL     1      46.686   2.506   7.477  0.00  0.00    +0.000 A 
ATOM     17  C   UNL     1      46.001   1.585   8.276  0.00  0.00    +0.000 A 
ATOM     18  C   UNL     1      45.027   2.023   9.186  0.00  0.00    +0.000 A 
ATOM     19  C   UNL     1      44.724   3.388   9.309  0.00  0.00    +0.000 A 
ATOM     20  C   UNL     1      45.433   4.304   8.515  0.00  0.00    +0.000 A 
ATOM     21  C   UNL     1      46.403   3.868   7.605  0.00  0.00    +0.000 A 
BRANCH  16  23
ATOM     22  N   UNL     1      48.452   1.678   5.764  0.00  0.00    +0.000 NA
ATOM     23  C   UNL     1      47.664   2.051   6.527  0.00  0.00    +0.000 C 
ENDBRANCH  16  23
ENDBRANCH  15  19
ENDBRANCH  14  15
ENDBRANCH   1  14
TORSDOF 5
ENDMDL
MODEL 5
REMARK VINA RESULT:    -7.067      1.299      1.623
REMARK INTER + INTRA:          -9.597
REMARK INTER:                  -9.052
REMARK INTRA:                  -0.544
REMARK UNBOUND:                -0.464
REMARK  Name = 
REMARK  5 active torsions:
REMARK  status: ('A' for Active; 'I' for Inactive)
REMARK    1  A    between atoms: C_2  and  C_3
REMARK    2  A    between atoms: C_6  and  C_7
REMARK    3  A    between atoms: C_7  and  C_8
REMARK    4  A    between atoms: C_8  and  N_9
REMARK    5  A    between atoms: C_13  and  C_14
REMARK                            x       y       z     vdW  Elec       q    Type
REMARK                         _______ _______ _______ _____ _____    ______ ____
ROOT
ATOM      1  N   UNL     1      43.795   3.526  10.681  0.00  0.00    +0.000 N 
ATOM      2  C   UNL     1      44.678   3.325   9.599  0.00  0.00    +0.000 A 
ATOM      3  C   UNL     1      45.015   2.030   9.209  0.00  0.00    +0.000 A 
ATOM      4  C   UNL     1      45.874   1.844   8.120  0.00  0.00    +0.000 A 
ATOM      5  C   UNL     1      46.377   2.951   7.436  0.00  0.00    +0.000 A 
ATOM      6  C   UNL     1      46.002   4.200   7.899  0.00  0.00    +0.000 A 
ATOM      7  N   UNL     1      45.183   4.399   8.957  0.00  0.00    +0.000 NA
ATOM      8  H   UNL     1      42.935   3.025  10.469  0.00  0.00    +0.000 HD
ENDROOT
BRANCH   5   9
ATOM      9  C   UNL     1      47.262   2.746   6.268  0.00  0.00    +0.000 C 
ATOM     10  N   UNL     1      48.605   2.583   6.465  0.00  0.00    +0.000 N 
ATOM     11  O   UNL     1      46.810   2.724   5.128  0.00  0.00    +0.000 OA
ATOM     12  H   UNL     1      49.080   2.569   7.356  0.00  0.00    +0.000 HD
ATOM     13  H   UNL     1      49.164   2.443   5.636  0.00  0.00    +0.000 HD
ENDBRANCH   5   9
BRANCH   1  14
ATOM     14  C   UNL     1      43.557   4.958  10.951  0.00  0.00    +0.000 C 
BRANCH  14  15
ATOM     15  C   UNL     1      43.943   5.334  12.388  0.00  0.00    +0.000 C 
BRANCH  15  19
ATOM     16  C   UNL     1      48.012   6.781  12.849  0.00  0.00    +0.000 A 
ATOM     17  C   UNL     1      47.233   7.215  11.772  0.00  0.00    +0.000 A 
ATOM     18  C   UNL     1      45.922   6.743  11.609  0.00  0.00    +0.000 A 
ATOM     19  C   UNL     1      45.372   5.831  12.523  0.00  0.00    +0.000 A 
ATOM     20  C   UNL     1      46.171   5.387  13.588  0.00  0.00    +0.000 A 
ATOM     21  C   UNL     1      47.478   5.859  13.754  0.00  0.00    +0.000 A 
BRANCH  16  23
ATOM     22  N   UNL     1      50.423   7.691  13.164  0.00  0.00    +0.000 NA
ATOM     23  C   UNL     1      49.346   7.287  13.027  0.00  0.00    +0.000 C 
ENDBRANCH  16  23
ENDBRANCH  15  19
ENDBRANCH  14  15
ENDBRANCH   1  14
TORSDOF 5
ENDMDL
MODEL 6
REMARK VINA RESULT:    -6.467      4.262      5.942
REMARK INTER + INTRA:          -8.821
REMARK INTER:                  -8.541
REMARK INTRA:                  -0.280
REMARK UNBOUND:                -0.464
REMARK  Name = 
REMARK  5 active torsions:
REMARK  status: ('A' for Active; 'I' for Inactive)
REMARK    1  A    between atoms: C_2  and  C_3
REMARK    2  A    between atoms: C_6  and  C_7
REMARK    3  A    between atoms: C_7  and  C_8
REMARK    4  A    between atoms: C_8  and  N_9
REMARK    5  A    between atoms: C_13  and  C_14
REMARK                            x       y       z     vdW  Elec       q    Type
REMARK                         _______ _______ _______ _____ _____    ______ ____
ROOT
ATOM      1  N   UNL     1      47.067   5.360  14.656  0.00  0.00    +0.000 N 
ATOM      2  C   UNL     1      46.356   4.945  13.511  0.00  0.00    +0.000 A 
ATOM      3  C   UNL     1      46.164   5.832  12.453  0.00  0.00    +0.000 A 
ATOM      4  C   UNL     1      45.477   5.401  11.313  0.00  0.00    +0.000 A 
ATOM      5  C   UNL     1      44.999   4.093  11.244  0.00  0.00    +0.000 A 
ATOM      6  C   UNL     1      45.222   3.283  12.344  0.00  0.00    +0.000 A 
ATOM      7  N   UNL     1      45.873   3.687  13.459  0.00  0.00    +0.000 NA
ATOM      8  H   UNL     1      47.979   5.687  14.347  0.00  0.00    +0.000 HD
ENDROOT
BRANCH   5   9
ATOM      9  C   UNL     1      44.299   3.635  10.024  0.00  0.00    +0.000 C 
ATOM     10  N   UNL     1      44.022   4.535   9.033  0.00  0.00    +0.000 N 
ATOM     11  O   UNL     1      43.960   2.464   9.891  0.00  0.00    +0.000 OA
ATOM     12  H   UNL     1      44.267   5.514   9.030  0.00  0.00    +0.000 HD
ATOM     13  H   UNL     1      43.546   4.171   8.220  0.00  0.00    +0.000 HD
ENDBRANCH   5   9
BRANCH   1  14
ATOM     14  C   UNL     1      47.169   4.291  15.671  0.00  0.00    +0.000 C 
BRANCH  14  15
ATOM     15  C   UNL     1      47.987   4.743  16.888  0.00  0.00    +0.000 C 
BRANCH  15  19
ATOM     16  C   UNL     1      51.551   2.358  17.566  0.00  0.00    +0.000 A 
ATOM     17  C   UNL     1      50.369   1.743  17.141  0.00  0.00    +0.000 A 
ATOM     18  C   UNL     1      49.210   2.506  16.931  0.00  0.00    +0.000 A 
ATOM     19  C   UNL     1      49.218   3.893  17.143  0.00  0.00    +0.000 A 
ATOM     20  C   UNL     1      50.405   4.494  17.590  0.00  0.00    +0.000 A 
ATOM     21  C   UNL     1      51.563   3.736  17.797  0.00  0.00    +0.000 A 
BRANCH  16  23
ATOM     22  N   UNL     1      53.709   0.954  17.902  0.00  0.00    +0.000 NA
ATOM     23  C   UNL     1      52.744   1.577  17.755  0.00  0.00    +0.000 C 
ENDBRANCH  16  23
ENDBRANCH  15  19
ENDBRANCH  14  15
ENDBRANCH   1  14
TORSDOF 5
ENDMDL
MODEL 7
REMARK VINA RESULT:    -5.948      3.239      7.558
REMARK INTER + INTRA:          -8.151
REMARK INTER:                  -7.869
REMARK INTRA:                  -0.282
REMARK UNBOUND:                -0.464
REMARK  Name = 
REMARK  5 active torsions:
REMARK  status: ('A' for Active; 'I' for Inactive)
REMARK    1  A    between atoms: C_2  and  C_3
REMARK    2  A    between atoms: C_6  and  C_7
REMARK    3  A    between atoms: C_7  and  C_8
REMARK    4  A    between atoms: C_8  and  N_9
REMARK    5  A    between atoms: C_13  and  C_14
REMARK                            x       y       z     vdW  Elec       q    Type
REMARK                         _______ _______ _______ _____ _____    ______ ____
ROOT
ATOM      1  N   UNL     1      45.546   4.115  13.635  0.00  0.00    +0.000 N 
ATOM      2  C   UNL     1      46.588   4.744  14.348  0.00  0.00    +0.000 A 
ATOM      3  C   UNL     1      47.017   4.214  15.563  0.00  0.00    +0.000 A 
ATOM      4  C   UNL     1      48.067   4.834  16.249  0.00  0.00    +0.000 A 
ATOM      5  C   UNL     1      48.675   5.967  15.710  0.00  0.00    +0.000 A 
ATOM      6  C   UNL     1      48.178   6.435  14.506  0.00  0.00    +0.000 A 
ATOM      7  N   UNL     1      47.156   5.855  13.835  0.00  0.00    +0.000 NA
ATOM      8  H   UNL     1      45.823   3.149  13.478  0.00  0.00    +0.000 HD
ENDROOT
BRANCH   5   9
ATOM      9  C   UNL     1      49.803   6.601  16.426  0.00  0.00    +0.000 C 
ATOM     10  N   UNL     1      49.563   7.277  17.590  0.00  0.00    +0.000 N 
ATOM     11  O   UNL     1      50.948   6.532  15.991  0.00  0.00    +0.000 OA
ATOM     12  H   UNL     1      48.668   7.383  18.045  0.00  0.00    +0.000 HD
ATOM     13  H   UNL     1      50.368   7.687  18.042  0.00  0.00    +0.000 HD
ENDBRANCH   5   9
BRANCH   1  14
ATOM     14  C   UNL     1      45.226   4.817  12.374  0.00  0.00    +0.000 C 
BRANCH  14  15
ATOM     15  C   UNL     1      44.353   3.954  11.453  0.00  0.00    +0.000 C 
BRANCH  15  19
ATOM     16  C   UNL     1      46.102   3.226   7.545  0.00  0.00    +0.000 A 
ATOM     17  C   UNL     1      45.649   2.153   8.320  0.00  0.00    +0.000 A 
ATOM     18  C   UNL     1      45.094   2.379   9.589  0.00  0.00    +0.000 A 
ATOM     19  C   UNL     1      44.983   3.682  10.099  0.00  0.00    +0.000 A 
ATOM     20  C   UNL     1      45.459   4.748   9.320  0.00  0.00    +0.000 A 
ATOM     21  C   UNL     1      46.011   4.524   8.053  0.00  0.00    +0.000 A 
BRANCH  16  23
ATOM     22  N   UNL     1      47.088   2.798   5.182  0.00  0.00    +0.000 NA
ATOM     23  C   UNL     1      46.645   2.992   6.235  0.00  0.00    +0.000 C 
ENDBRANCH  16  23
ENDBRANCH  15  19
ENDBRANCH  14  15
ENDBRANCH   1  14
TORSDOF 5
ENDMDL
MODEL 8
REMARK VINA RESULT:    -5.880      4.429      8.112
REMARK INTER + INTRA:          -8.063
REMARK INTER:                  -7.775
REMARK INTRA:                  -0.288
REMARK UNBOUND:                -0.464
REMARK  Name = 
REMARK  5 active torsions:
REMARK  status: ('A' for Active; 'I' for Inactive)
REMARK    1  A    between atoms: C_2  and  C_3
REMARK    2  A    between atoms: C_6  and  C_7
REMARK    3  A    between atoms: C_7  and  C_8
REMARK    4  A    between atoms: C_8  and  N_9
REMARK    5  A    between atoms: C_13  and  C_14
REMARK                            x       y       z     vdW  Elec       q    Type
REMARK                         _______ _______ _______ _____ _____    ______ ____
ROOT
ATOM      1  N   UNL     1      46.574   3.910  14.862  0.00  0.00    +0.000 N 
ATOM      2  C   UNL     1      47.536   4.086  15.878  0.00  0.00    +0.000 A 
ATOM      3  C   UNL     1      47.793   3.054  16.778  0.00  0.00    +0.000 A 
ATOM      4  C   UNL     1      48.766   3.234  17.767  0.00  0.00    +0.000 A 
ATOM      5  C   UNL     1      49.470   4.436  17.839  0.00  0.00    +0.000 A 
ATOM      6  C   UNL     1      49.142   5.412  16.915  0.00  0.00    +0.000 A 
ATOM      7  N   UNL     1      48.196   5.260  15.960  0.00  0.00    +0.000 NA
ATOM      8  H   UNL     1      46.840   3.085  14.330  0.00  0.00    +0.000 HD
ENDROOT
BRANCH   5   9
ATOM      9  C   UNL     1      50.517   4.608  18.869  0.00  0.00    +0.000 C 
ATOM     10  N   UNL     1      51.517   3.681  18.970  0.00  0.00    +0.000 N 
ATOM     11  O   UNL     1      50.500   5.566  19.635  0.00  0.00    +0.000 OA
ATOM     12  H   UNL     1      51.637   2.867  18.386  0.00  0.00    +0.000 HD
ATOM     13  H   UNL     1      52.209   3.847  19.687  0.00  0.00    +0.000 HD
ENDBRANCH   5   9
BRANCH   1  14
ATOM     14  C   UNL     1      46.434   5.107  14.007  0.00  0.00    +0.000 C 
BRANCH  14  15
ATOM     15  C   UNL     1      45.090   5.120  13.269  0.00  0.00    +0.000 C 
BRANCH  15  19
ATOM     16  C   UNL     1      45.444   3.944   9.103  0.00  0.00    +0.000 A 
ATOM     17  C   UNL     1      45.749   5.254   9.488  0.00  0.00    +0.000 A 
ATOM     18  C   UNL     1      45.625   5.644  10.831  0.00  0.00    +0.000 A 
ATOM     19  C   UNL     1      45.196   4.731  11.805  0.00  0.00    +0.000 A 
ATOM     20  C   UNL     1      44.873   3.425  11.402  0.00  0.00    +0.000 A 
ATOM     21  C   UNL     1      44.999   3.033  10.065  0.00  0.00    +0.000 A 
BRANCH  16  23
ATOM     22  N   UNL     1      45.715   3.208   6.629  0.00  0.00    +0.000 NA
ATOM     23  C   UNL     1      45.597   3.540   7.732  0.00  0.00    +0.000 C 
ENDBRANCH  16  23
ENDBRANCH  15  19
ENDBRANCH  14  15
ENDBRANCH   1  14
TORSDOF 5
ENDMDL
MODEL 9
REMARK VINA RESULT:    -5.665      4.391      8.266
REMARK INTER + INTRA:          -7.784
REMARK INTER:                  -7.331
REMARK INTRA:                  -0.453
REMARK UNBOUND:                -0.464
REMARK  Name = 
REMARK  5 active torsions:
REMARK  status: ('A' for Active; 'I' for Inactive)
REMARK    1  A    between atoms: C_2  and  C_3
REMARK    2  A    between atoms: C_6  and  C_7
REMARK    3  A    between atoms: C_7  and  C_8
REMARK    4  A    between atoms: C_8  and  N_9
REMARK    5  A    between atoms: C_13  and  C_14
REMARK                            x       y       z     vdW  Elec       q    Type
REMARK                         _______ _______ _______ _____ _____    ______ ____
ROOT
ATOM      1  N   UNL     1      48.934   7.756  14.552  0.00  0.00    +0.000 N 
ATOM      2  C   UNL     1      48.839   7.008  15.744  0.00  0.00    +0.000 A 
ATOM      3  C   UNL     1      48.902   7.655  16.977  0.00  0.00    +0.000 A 
ATOM      4  C   UNL     1      48.784   6.904  18.151  0.00  0.00    +0.000 A 
ATOM      5  C   UNL     1      48.597   5.524  18.077  0.00  0.00    +0.000 A 
ATOM      6  C   UNL     1      48.559   4.961  16.813  0.00  0.00    +0.000 A 
ATOM      7  N   UNL     1      48.685   5.670  15.668  0.00  0.00    +0.000 NA
ATOM      8  H   UNL     1      48.204   8.463  14.576  0.00  0.00    +0.000 HD
ENDROOT
BRANCH   5   9
ATOM      9  C   UNL     1      48.443   4.741  19.322  0.00  0.00    +0.000 C 
ATOM     10  N   UNL     1      48.475   3.375  19.264  0.00  0.00    +0.000 N 
ATOM     11  O   UNL     1      48.284   5.297  20.404  0.00  0.00    +0.000 OA
ATOM     12  H   UNL     1      48.615   2.817  18.435  0.00  0.00    +0.000 HD
ATOM     13  H   UNL     1      48.370   2.888  20.142  0.00  0.00    +0.000 HD
ENDBRANCH   5   9
BRANCH   1  14
ATOM     14  C   UNL     1      48.849   6.905  13.347  0.00  0.00    +0.000 C 
BRANCH  14  15
ATOM     15  C   UNL     1      47.703   7.343  12.425  0.00  0.00    +0.000 C 
BRANCH  15  19
ATOM     16  C   UNL     1      44.729   4.229  11.865  0.00  0.00    +0.000 A 
ATOM     17  C   UNL     1      45.099   5.043  10.790  0.00  0.00    +0.000 A 
ATOM     18  C   UNL     1      46.051   6.060  10.966  0.00  0.00    +0.000 A 
ATOM     19  C   UNL     1      46.645   6.274  12.220  0.00  0.00    +0.000 A 
ATOM     20  C   UNL     1      46.250   5.463  13.295  0.00  0.00    +0.000 A 
ATOM     21  C   UNL     1      45.303   4.447  13.120  0.00  0.00    +0.000 A 
BRANCH  16  23
ATOM     22  N   UNL     1      43.004   2.321  11.514  0.00  0.00    +0.000 NA
ATOM     23  C   UNL     1      43.774   3.172  11.675  0.00  0.00    +0.000 C 
ENDBRANCH  16  23
ENDBRANCH  15  19
ENDBRANCH  14  15
ENDBRANCH   1  14
TORSDOF 5
ENDMDL
