MODEL 1
REMARK VINA RESULT:    -8.749      0.000      0.000
REMARK INTER + INTRA:         -13.404
REMARK INTER:                 -12.074
REMARK INTRA:                  -1.330
REMARK UNBOUND:                -1.330
REMARK  Name = 
REMARK  7 active torsions:
REMARK  status: ('A' for Active; 'I' for Inactive)
REMARK    1  A    between atoms: C_2  and  C_20
REMARK    2  A    between atoms: N_3  and  C_4
REMARK    3  A    between atoms: C_4  and  C_5
REMARK    4  A    between atoms: C_8  and  C_9
REMARK    5  A    between atoms: C_9  and  C_10
REMARK    6  A    between atoms: C_10  and  O_11
REMARK    7  A    between atoms: C_10  and  C_12
REMARK                            x       y       z     vdW  Elec       q    Type
REMARK                         _______ _______ _______ _____ _____    ______ ____
ROOT
ATOM      1  C   UNL     1      46.787   7.870  13.210  0.00  0.00    +0.000 C 
ENDROOT
BRANCH   1   2
ATOM      2  C   UNL     1      46.121   6.857  12.320  0.00  0.00    +0.000 A 
ATOM      3  C   UNL     1      45.158   5.990  12.846  0.00  0.00    +0.000 A 
ATOM      4  C   UNL     1      44.551   5.027  12.038  0.00  0.00    +0.000 A 
ATOM      5  C   UNL     1      44.898   4.898  10.689  0.00  0.00    +0.000 A 
ATOM      6  C   UNL     1      45.888   5.749  10.174  0.00  0.00    +0.000 A 
ATOM      7  C   UNL     1      46.499   6.713  10.982  0.00  0.00    +0.000 A 
BRANCH   5   8
ATOM      8  C   UNL     1      44.235   3.910   9.745  0.00  0.00    +0.000 C 
BRANCH   8   9
ATOM      9  C   UNL     1      44.926   2.541   9.554  0.00  0.00    +0.000 C 
BRANCH   9  10
ATOM     10  C   UNL     1      45.743   2.393   8.284  0.00  0.00    +0.000 A 
ATOM     11  C   UNL     1      45.800   3.476   7.390  0.00  0.00    +0.000 A 
ATOM     12  C   UNL     1      46.592   3.417   6.242  0.00  0.00    +0.000 A 
ATOM     13  C   UNL     1      47.347   2.279   5.975  0.00  0.00    +0.000 A 
ATOM     14  C   UNL     1      47.308   1.200   6.854  0.00  0.00    +0.000 A 
ATOM     15  C   UNL     1      46.514   1.255   8.003  0.00  0.00    +0.000 A 
ENDBRANCH   9  10
BRANCH   9  16
ATOM     16  O   UNL     1      43.962   1.485   9.534  0.00  0.00    +0.000 OA
ATOM     17  H   UNL     1      43.401   1.624   8.754  0.00  0.00    +0.000 HD
ENDBRANCH   9  16
ENDBRANCH   8   9
ENDBRANCH   5   8
ENDBRANCH   1   2
BRANCH   1  20
ATOM     18  O   UNL     1      49.237   6.561  13.484  0.00  0.00    +0.000 OA
ATOM     19  C   UNL     1      48.518   6.678  14.470  0.00  0.00    +0.000 C 
ATOM     20  N   UNL     1      47.267   7.233  14.407  0.00  0.00    +0.000 N 
ATOM     21  H   UNL     1      46.806   7.505  15.268  0.00  0.00    +0.000 HD
BRANCH  19  22
ATOM     22  C   UNL     1      48.927   6.180  15.787  0.00  0.00    +0.000 A 
ATOM     23  C   UNL     1      49.909   6.843  16.507  0.00  0.00    +0.000 A 
ATOM     24  S   UNL     1      50.278   6.098  17.997  0.00  0.00    +0.000 S 
ATOM     25  C   UNL     1      49.107   4.890  17.749  0.00  0.00    +0.000 A 
ATOM     26  N   UNL     1      48.888   3.921  18.678  0.00  0.00    +0.000 NA
ATOM     27  C   UNL     1      47.948   3.090  18.373  0.00  0.00    +0.000 A 
ATOM     28  N   UNL     1      47.208   3.135  17.219  0.00  0.00    +0.000 N 
ATOM     29  C   UNL     1      47.414   4.077  16.243  0.00  0.00    +0.000 A 
ATOM     30  O   UNL     1      46.764   4.060  15.200  0.00  0.00    +0.000 OA
ATOM     31  C   UNL     1      48.451   5.042  16.540  0.00  0.00    +0.000 A 
ATOM     32  H   UNL     1      46.495   2.448  17.034  0.00  0.00    +0.000 HD
ENDBRANCH  19  22
ENDBRANCH   1  20
TORSDOF 7
ENDMDL
MODEL 2
REMARK VINA RESULT:    -8.223      1.644      2.167
REMARK INTER + INTRA:         -12.678
REMARK INTER:                 -12.005
REMARK INTRA:                  -0.673
REMARK UNBOUND:                -1.330
REMARK  Name = 
REMARK  7 active torsions:
REMARK  status: ('A' for Active; 'I' for Inactive)
REMARK    1  A    between atoms: C_2  and  C_20
REMARK    2  A    between atoms: N_3  and  C_4
REMARK    3  A    between atoms: C_4  and  C_5
REMARK    4  A    between atoms: C_8  and  C_9
REMARK    5  A    between atoms: C_9  and  C_10
REMARK    6  A    between atoms: C_10  and  O_11
REMARK    7  A    between atoms: C_10  and  C_12
REMARK                            x       y       z     vdW  Elec       q    Type
REMARK                         _______ _______ _______ _____ _____    ______ ____
ROOT
ATOM      1  C   UNL     1      48.085   6.940  13.402  0.00  0.00    +0.000 C 
ENDROOT
BRANCH   1   2
ATOM      2  C   UNL     1      47.098   6.002  12.763  0.00  0.00    +0.000 A 
ATOM      3  C   UNL     1      46.444   6.372  11.583  0.00  0.00    +0.000 A 
ATOM      4  C   UNL     1      45.506   5.524  10.992  0.00  0.00    +0.000 A 
ATOM      5  C   UNL     1      45.189   4.290  11.571  0.00  0.00    +0.000 A 
ATOM      6  C   UNL     1      45.824   3.937  12.772  0.00  0.00    +0.000 A 
ATOM      7  C   UNL     1      46.762   4.786  13.366  0.00  0.00    +0.000 A 
BRANCH   5   8
ATOM      8  C   UNL     1      44.221   3.299  10.950  0.00  0.00    +0.000 C 
BRANCH   8   9
ATOM      9  C   UNL     1      44.037   3.355   9.416  0.00  0.00    +0.000 C 
BRANCH   9  10
ATOM     10  C   UNL     1      45.252   2.961   8.597  0.00  0.00    +0.000 A 
ATOM     11  C   UNL     1      45.650   1.613   8.590  0.00  0.00    +0.000 A 
ATOM     12  C   UNL     1      46.718   1.184   7.799  0.00  0.00    +0.000 A 
ATOM     13  C   UNL     1      47.397   2.094   6.996  0.00  0.00    +0.000 A 
ATOM     14  C   UNL     1      47.012   3.433   6.986  0.00  0.00    +0.000 A 
ATOM     15  C   UNL     1      45.944   3.864   7.777  0.00  0.00    +0.000 A 
ENDBRANCH   9  10
BRANCH   9  16
ATOM     16  O   UNL     1      43.685   4.676   8.996  0.00  0.00    +0.000 OA
ATOM     17  H   UNL     1      42.992   4.587   8.321  0.00  0.00    +0.000 HD
ENDBRANCH   9  16
ENDBRANCH   8   9
ENDBRANCH   5   8
ENDBRANCH   1   2
BRANCH   1  20
ATOM     18  O   UNL     1      50.232   6.785  15.178  0.00  0.00    +0.000 OA
ATOM     19  C   UNL     1      49.095   6.861  15.632  0.00  0.00    +0.000 C 
ATOM     20  N   UNL     1      47.982   6.860  14.834  0.00  0.00    +0.000 N 
ATOM     21  H   UNL     1      47.093   7.143  15.230  0.00  0.00    +0.000 HD
BRANCH  19  22
ATOM     22  C   UNL     1      48.843   6.909  17.075  0.00  0.00    +0.000 A 
ATOM     23  C   UNL     1      48.513   8.110  17.686  0.00  0.00    +0.000 A 
ATOM     24  S   UNL     1      48.293   7.977  19.372  0.00  0.00    +0.000 S 
ATOM     25  C   UNL     1      48.586   6.302  19.336  0.00  0.00    +0.000 A 
ATOM     26  N   UNL     1      48.532   5.554  20.471  0.00  0.00    +0.000 NA
ATOM     27  C   UNL     1      48.744   4.293  20.291  0.00  0.00    +0.000 A 
ATOM     28  N   UNL     1      49.012   3.709  19.079  0.00  0.00    +0.000 N 
ATOM     29  C   UNL     1      49.104   4.429  17.915  0.00  0.00    +0.000 A 
ATOM     30  O   UNL     1      49.393   3.881  16.853  0.00  0.00    +0.000 OA
ATOM     31  C   UNL     1      48.864   5.850  18.059  0.00  0.00    +0.000 A 
ATOM     32  H   UNL     1      49.181   2.719  19.007  0.00  0.00    +0.000 HD
ENDBRANCH  19  22
ENDBRANCH   1  20
TORSDOF 7
ENDMDL
MODEL 3
REMARK VINA RESULT:    -7.938      2.413      4.127
REMARK INTER + INTRA:         -12.284
REMARK INTER:                 -11.060
REMARK INTRA:                  -1.225
REMARK UNBOUND:                -1.330
REMARK  Name = 
REMARK  7 active torsions:
REMARK  status: ('A' for Active; 'I' for Inactive)
REMARK    1  A    between atoms: C_2  and  C_20
REMARK    2  A    between atoms: N_3  and  C_4
REMARK    3  A    between atoms: C_4  and  C_5
REMARK    4  A    between atoms: C_8  and  C_9
REMARK    5  A    between atoms: C_9  and  C_10
REMARK    6  A    between atoms: C_10  and  O_11
REMARK    7  A    between atoms: C_10  and  C_12
REMARK                            x       y       z     vdW  Elec       q    Type
REMARK                         _______ _______ _______ _____ _____    ______ ____
ROOT
ATOM      1  C   UNL     1      47.100   4.999  14.828  0.00  0.00    +0.000 C 
ENDROOT
BRANCH   1   2
ATOM      2  C   UNL     1      46.319   4.719  13.574  0.00  0.00    +0.000 A 
ATOM      3  C   UNL     1      45.646   5.757  12.922  0.00  0.00    +0.000 A 
ATOM      4  C   UNL     1      44.894   5.507  11.773  0.00  0.00    +0.000 A 
ATOM      5  C   UNL     1      44.786   4.213  11.252  0.00  0.00    +0.000 A 
ATOM      6  C   UNL     1      45.437   3.169  11.928  0.00  0.00    +0.000 A 
ATOM      7  C   UNL     1      46.189   3.417  13.081  0.00  0.00    +0.000 A 
BRANCH   5   8
ATOM      8  C   UNL     1      44.032   3.885   9.976  0.00  0.00    +0.000 C 
BRANCH   8   9
ATOM      9  C   UNL     1      44.717   4.240   8.637  0.00  0.00    +0.000 C 
BRANCH   9  10
ATOM     10  C   UNL     1      45.608   3.161   8.052  0.00  0.00    +0.000 A 
ATOM     11  C   UNL     1      46.540   3.520   7.064  0.00  0.00    +0.000 A 
ATOM     12  C   UNL     1      47.431   2.580   6.542  0.00  0.00    +0.000 A 
ATOM     13  C   UNL     1      47.411   1.269   7.008  0.00  0.00    +0.000 A 
ATOM     14  C   UNL     1      46.498   0.897   7.992  0.00  0.00    +0.000 A 
ATOM     15  C   UNL     1      45.605   1.836   8.514  0.00  0.00    +0.000 A 
ENDBRANCH   9  10
BRANCH   9  16
ATOM     16  O   UNL     1      45.539   5.401   8.781  0.00  0.00    +0.000 OA
ATOM     17  H   UNL     1      46.378   5.112   9.175  0.00  0.00    +0.000 HD
ENDBRANCH   9  16
ENDBRANCH   8   9
ENDBRANCH   5   8
ENDBRANCH   1   2
BRANCH   1  20
ATOM     18  O   UNL     1      49.502   5.788  16.011  0.00  0.00    +0.000 OA
ATOM     19  C   UNL     1      48.892   6.597  15.319  0.00  0.00    +0.000 C 
ATOM     20  N   UNL     1      47.669   6.319  14.769  0.00  0.00    +0.000 N 
ATOM     21  H   UNL     1      47.310   6.922  14.037  0.00  0.00    +0.000 HD
BRANCH  19  22
ATOM     22  C   UNL     1      49.409   7.946  15.072  0.00  0.00    +0.000 A 
ATOM     23  C   UNL     1      49.848   8.728  16.129  0.00  0.00    +0.000 A 
ATOM     24  S   UNL     1      50.379  10.278  15.653  0.00  0.00    +0.000 S 
ATOM     25  C   UNL     1      50.081   9.940  14.013  0.00  0.00    +0.000 A 
ATOM     26  N   UNL     1      50.345  10.859  13.046  0.00  0.00    +0.000 NA
ATOM     27  C   UNL     1      50.101  10.455  11.844  0.00  0.00    +0.000 A 
ATOM     28  N   UNL     1      49.611   9.216  11.519  0.00  0.00    +0.000 N 
ATOM     29  C   UNL     1      49.305   8.270  12.463  0.00  0.00    +0.000 A 
ATOM     30  O   UNL     1      48.822   7.186  12.140  0.00  0.00    +0.000 OA
ATOM     31  C   UNL     1      49.569   8.667  13.830  0.00  0.00    +0.000 A 
ATOM     32  H   UNL     1      49.430   8.966  10.559  0.00  0.00    +0.000 HD
ENDBRANCH  19  22
ENDBRANCH   1  20
TORSDOF 7
ENDMDL
MODEL 4
REMARK VINA RESULT:    -7.798      2.244      2.875
REMARK INTER + INTRA:         -12.092
REMARK INTER:                 -11.532
REMARK INTRA:                  -0.560
REMARK UNBOUND:                -1.330
REMARK  Name = 
REMARK  7 active torsions:
REMARK  status: ('A' for Active; 'I' for Inactive)
REMARK    1  A    between atoms: C_2  and  C_20
REMARK    2  A    between atoms: N_3  and  C_4
REMARK    3  A    between atoms: C_4  and  C_5
REMARK    4  A    between atoms: C_8  and  C_9
REMARK    5  A    between atoms: C_9  and  C_10
REMARK    6  A    between atoms: C_10  and  O_11
REMARK    7  A    between atoms: C_10  and  C_12
REMARK                            x       y       z     vdW  Elec       q    Type
REMARK                         _______ _______ _______ _____ _____    ______ ____
ROOT
ATOM      1  C   UNL     1      47.696   6.737  13.839  0.00  0.00    +0.000 C 
ENDROOT
BRANCH   1   2
ATOM      2  C   UNL     1      46.828   5.788  13.058  0.00  0.00    +0.000 A 
ATOM      3  C   UNL     1      46.311   6.173  11.817  0.00  0.00    +0.000 A 
ATOM      4  C   UNL     1      45.482   5.314  11.093  0.00  0.00    +0.000 A 
ATOM      5  C   UNL     1      45.140   4.054  11.596  0.00  0.00    +0.000 A 
ATOM      6  C   UNL     1      45.635   3.684  12.856  0.00  0.00    +0.000 A 
ATOM      7  C   UNL     1      46.464   4.544  13.584  0.00  0.00    +0.000 A 
BRANCH   5   8
ATOM      8  C   UNL     1      44.291   3.052  10.834  0.00  0.00    +0.000 C 
BRANCH   8   9
ATOM      9  C   UNL     1      44.158   3.253   9.307  0.00  0.00    +0.000 C 
BRANCH   9  10
ATOM     10  C   UNL     1      45.388   2.900   8.492  0.00  0.00    +0.000 A 
ATOM     11  C   UNL     1      45.816   1.562   8.464  0.00  0.00    +0.000 A 
ATOM     12  C   UNL     1      46.899   1.171   7.675  0.00  0.00    +0.000 A 
ATOM     13  C   UNL     1      47.565   2.111   6.894  0.00  0.00    +0.000 A 
ATOM     14  C   UNL     1      47.151   3.440   6.905  0.00  0.00    +0.000 A 
ATOM     15  C   UNL     1      46.067   3.833   7.695  0.00  0.00    +0.000 A 
ENDBRANCH   9  10
BRANCH   9  16
ATOM     16  O   UNL     1      43.853   4.616   9.000  0.00  0.00    +0.000 OA
ATOM     17  H   UNL     1      44.646   5.003   8.593  0.00  0.00    +0.000 HD
ENDBRANCH   9  16
ENDBRANCH   8   9
ENDBRANCH   5   8
ENDBRANCH   1   2
BRANCH   1  20
ATOM     18  O   UNL     1      50.022   6.514  15.364  0.00  0.00    +0.000 OA
ATOM     19  C   UNL     1      48.940   6.317  15.907  0.00  0.00    +0.000 C 
ATOM     20  N   UNL     1      47.758   6.326  15.216  0.00  0.00    +0.000 N 
ATOM     21  H   UNL     1      46.887   6.378  15.732  0.00  0.00    +0.000 HD
BRANCH  19  22
ATOM     22  C   UNL     1      48.839   6.005  17.336  0.00  0.00    +0.000 A 
ATOM     23  C   UNL     1      49.214   4.754  17.803  0.00  0.00    +0.000 A 
ATOM     24  S   UNL     1      48.992   4.563  19.484  0.00  0.00    +0.000 S 
ATOM     25  C   UNL     1      48.430   6.160  19.650  0.00  0.00    +0.000 A 
ATOM     26  N   UNL     1      48.077   6.658  20.865  0.00  0.00    +0.000 NA
ATOM     27  C   UNL     1      47.699   7.893  20.847  0.00  0.00    +0.000 A 
ATOM     28  N   UNL     1      47.637   8.676  19.723  0.00  0.00    +0.000 N 
ATOM     29  C   UNL     1      47.956   8.206  18.474  0.00  0.00    +0.000 A 
ATOM     30  O   UNL     1      47.842   8.921  17.480  0.00  0.00    +0.000 OA
ATOM     31  C   UNL     1      48.396   6.827  18.439  0.00  0.00    +0.000 A 
ATOM     32  H   UNL     1      47.321   9.632  19.774  0.00  0.00    +0.000 HD
ENDBRANCH  19  22
ENDBRANCH   1  20
TORSDOF 7
ENDMDL
MODEL 5
REMARK VINA RESULT:    -7.684      1.750      2.573
REMARK INTER + INTRA:         -11.934
REMARK INTER:                 -10.954
REMARK INTRA:                  -0.980
REMARK UNBOUND:                -1.330
REMARK  Name = 
REMARK  7 active torsions:
REMARK  status: ('A' for Active; 'I' for Inactive)
REMARK    1  A    between atoms: C_2  and  C_20
REMARK    2  A    between atoms: N_3  and  C_4
REMARK    3  A    between atoms: C_4  and  C_5
REMARK    4  A    between atoms: C_8  and  C_9
REMARK    5  A    between atoms: C_9  and  C_10
REMARK    6  A    between atoms: C_10  and  O_11
REMARK    7  A    between atoms: C_10  and  C_12
REMARK                            x       y       z     vdW  Elec       q    Type
REMARK                         _______ _______ _______ _____ _____    ______ ____
ROOT
ATOM      1  C   UNL     1      47.300   7.038  13.744  0.00  0.00    +0.000 C 
ENDROOT
BRANCH   1   2
ATOM      2  C   UNL     1      46.529   6.168  12.791  0.00  0.00    +0.000 A 
ATOM      3  C   UNL     1      46.082   4.907  13.199  0.00  0.00    +0.000 A 
ATOM      4  C   UNL     1      45.389   4.076  12.317  0.00  0.00    +0.000 A 
ATOM      5  C   UNL     1      45.132   4.480  11.002  0.00  0.00    +0.000 A 
ATOM      6  C   UNL     1      45.610   5.733  10.587  0.00  0.00    +0.000 A 
ATOM      7  C   UNL     1      46.308   6.565  11.468  0.00  0.00    +0.000 A 
BRANCH   5   8
ATOM      8  C   UNL     1      44.336   3.649  10.012  0.00  0.00    +0.000 C 
BRANCH   8   9
ATOM      9  C   UNL     1      44.958   2.312   9.548  0.00  0.00    +0.000 C 
BRANCH   9  10
ATOM     10  C   UNL     1      45.828   2.392   8.309  0.00  0.00    +0.000 A 
ATOM     11  C   UNL     1      46.567   1.257   7.931  0.00  0.00    +0.000 A 
ATOM     12  C   UNL     1      47.329   1.254   6.761  0.00  0.00    +0.000 A 
ATOM     13  C   UNL     1      47.357   2.381   5.946  0.00  0.00    +0.000 A 
ATOM     14  C   UNL     1      46.625   3.512   6.302  0.00  0.00    +0.000 A 
ATOM     15  C   UNL     1      45.863   3.518   7.473  0.00  0.00    +0.000 A 
ENDBRANCH   9  10
BRANCH   9  16
ATOM     16  O   UNL     1      43.938   1.353   9.259  0.00  0.00    +0.000 OA
ATOM     17  H   UNL     1      44.377   0.574   8.878  0.00  0.00    +0.000 HD
ENDBRANCH   9  16
ENDBRANCH   8   9
ENDBRANCH   5   8
ENDBRANCH   1   2
BRANCH   1  20
ATOM     18  O   UNL     1      48.889   7.986  15.834  0.00  0.00    +0.000 OA
ATOM     19  C   UNL     1      48.652   6.784  15.772  0.00  0.00    +0.000 C 
ATOM     20  N   UNL     1      47.950   6.225  14.737  0.00  0.00    +0.000 N 
ATOM     21  H   UNL     1      47.594   5.281  14.837  0.00  0.00    +0.000 HD
BRANCH  19  22
ATOM     22  C   UNL     1      49.150   5.846  16.782  0.00  0.00    +0.000 A 
ATOM     23  C   UNL     1      48.261   5.072  17.512  0.00  0.00    +0.000 A 
ATOM     24  S   UNL     1      49.021   4.069  18.664  0.00  0.00    +0.000 S 
ATOM     25  C   UNL     1      50.566   4.603  18.194  0.00  0.00    +0.000 A 
ATOM     26  N   UNL     1      51.690   4.112  18.785  0.00  0.00    +0.000 NA
ATOM     27  C   UNL     1      52.793   4.583  18.307  0.00  0.00    +0.000 A 
ATOM     28  N   UNL     1      52.878   5.504  17.295  0.00  0.00    +0.000 N 
ATOM     29  C   UNL     1      51.772   6.046  16.691  0.00  0.00    +0.000 A 
ATOM     30  O   UNL     1      51.883   6.906  15.820  0.00  0.00    +0.000 OA
ATOM     31  C   UNL     1      50.506   5.544  17.183  0.00  0.00    +0.000 A 
ATOM     32  H   UNL     1      53.772   5.841  16.975  0.00  0.00    +0.000 HD
ENDBRANCH  19  22
ENDBRANCH   1  20
TORSDOF 7
ENDMDL
MODEL 6
REMARK VINA RESULT:    -7.654      2.585      3.238
REMARK INTER + INTRA:         -11.893
REMARK INTER:                 -10.641
REMARK INTRA:                  -1.252
REMARK UNBOUND:                -1.330
REMARK  Name = 
REMARK  7 active torsions:
REMARK  status: ('A' for Active; 'I' for Inactive)
REMARK    1  A    between atoms: C_2  and  C_20
REMARK    2  A    between atoms: N_3  and  C_4
REMARK    3  A    between atoms: C_4  and  C_5
REMARK    4  A    between atoms: C_8  and  C_9
REMARK    5  A    between atoms: C_9  and  C_10
REMARK    6  A    between atoms: C_10  and  O_11
REMARK    7  A    between atoms: C_10  and  C_12
REMARK                            x       y       z     vdW  Elec       q    Type
REMARK                         _______ _______ _______ _____ _____    ______ ____
ROOT
ATOM      1  C   UNL     1      47.288   4.213  15.552  0.00  0.00    +0.000 C 
ENDROOT
BRANCH   1   2
ATOM      2  C   UNL     1      46.755   4.463  14.169  0.00  0.00    +0.000 A 
ATOM      3  C   UNL     1      46.168   3.421  13.445  0.00  0.00    +0.000 A 
ATOM      4  C   UNL     1      45.693   3.631  12.149  0.00  0.00    +0.000 A 
ATOM      5  C   UNL     1      45.804   4.885  11.539  0.00  0.00    +0.000 A 
ATOM      6  C   UNL     1      46.423   5.921  12.256  0.00  0.00    +0.000 A 
ATOM      7  C   UNL     1      46.901   5.711  13.553  0.00  0.00    +0.000 A 
BRANCH   5   8
ATOM      8  C   UNL     1      45.258   5.193  10.156  0.00  0.00    +0.000 C 
BRANCH   8   9
ATOM      9  C   UNL     1      44.560   4.041   9.398  0.00  0.00    +0.000 C 
BRANCH   9  10
ATOM     10  C   UNL     1      45.465   3.185   8.532  0.00  0.00    +0.000 A 
ATOM     11  C   UNL     1      46.269   3.817   7.568  0.00  0.00    +0.000 A 
ATOM     12  C   UNL     1      47.170   3.084   6.793  0.00  0.00    +0.000 A 
ATOM     13  C   UNL     1      47.288   1.710   6.977  0.00  0.00    +0.000 A 
ATOM     14  C   UNL     1      46.504   1.068   7.933  0.00  0.00    +0.000 A 
ATOM     15  C   UNL     1      45.601   1.800   8.709  0.00  0.00    +0.000 A 
ENDBRANCH   9  10
BRANCH   9  16
ATOM     16  O   UNL     1      43.542   4.549   8.531  0.00  0.00    +0.000 OA
ATOM     17  H   UNL     1      43.936   5.277   8.022  0.00  0.00    +0.000 HD
ENDBRANCH   9  16
ENDBRANCH   8   9
ENDBRANCH   5   8
ENDBRANCH   1   2
BRANCH   1  20
ATOM     18  O   UNL     1      49.752   4.672  16.779  0.00  0.00    +0.000 OA
ATOM     19  C   UNL     1      48.967   5.607  16.665  0.00  0.00    +0.000 C 
ATOM     20  N   UNL     1      47.708   5.452  16.150  0.00  0.00    +0.000 N 
ATOM     21  H   UNL     1      47.185   6.275  15.874  0.00  0.00    +0.000 HD
BRANCH  19  22
ATOM     22  C   UNL     1      49.305   6.958  17.122  0.00  0.00    +0.000 A 
ATOM     23  C   UNL     1      50.296   7.684  16.479  0.00  0.00    +0.000 A 
ATOM     24  S   UNL     1      50.575   9.217  17.174  0.00  0.00    +0.000 S 
ATOM     25  C   UNL     1      49.350   8.980  18.329  0.00  0.00    +0.000 A 
ATOM     26  N   UNL     1      49.049   9.942  19.243  0.00  0.00    +0.000 NA
ATOM     27  C   UNL     1      48.077   9.639  20.037  0.00  0.00    +0.000 A 
ATOM     28  N   UNL     1      47.379   8.459  20.006  0.00  0.00    +0.000 N 
ATOM     29  C   UNL     1      47.668   7.451  19.121  0.00  0.00    +0.000 A 
ATOM     30  O   UNL     1      47.054   6.387  19.153  0.00  0.00    +0.000 OA
ATOM     31  C   UNL     1      48.745   7.743  18.199  0.00  0.00    +0.000 A 
ATOM     32  H   UNL     1      46.637   8.279  20.664  0.00  0.00    +0.000 HD
ENDBRANCH  19  22
ENDBRANCH   1  20
TORSDOF 7
ENDMDL
MODEL 7
REMARK VINA RESULT:    -7.222      3.696      7.912
REMARK INTER + INTRA:         -11.296
REMARK INTER:                  -9.714
REMARK INTRA:                  -1.582
REMARK UNBOUND:                -1.330
REMARK  Name = 
REMARK  7 active torsions:
REMARK  status: ('A' for Active; 'I' for Inactive)
REMARK    1  A    between atoms: C_2  and  C_20
REMARK    2  A    between atoms: N_3  and  C_4
REMARK    3  A    between atoms: C_4  and  C_5
REMARK    4  A    between atoms: C_8  and  C_9
REMARK    5  A    between atoms: C_9  and  C_10
REMARK    6  A    between atoms: C_10  and  O_11
REMARK    7  A    between atoms: C_10  and  C_12
REMARK                            x       y       z     vdW  Elec       q    Type
REMARK                         _______ _______ _______ _____ _____    ______ ____
ROOT
ATOM      1  C   UNL     1      48.182   8.167  12.119  0.00  0.00    +0.000 C 
ENDROOT
BRANCH   1   2
ATOM      2  C   UNL     1      48.466   8.015  13.588  0.00  0.00    +0.000 A 
ATOM      3  C   UNL     1      47.902   8.906  14.506  0.00  0.00    +0.000 A 
ATOM      4  C   UNL     1      48.179   8.795  15.870  0.00  0.00    +0.000 A 
ATOM      5  C   UNL     1      49.034   7.796  16.350  0.00  0.00    +0.000 A 
ATOM      6  C   UNL     1      49.624   6.924  15.421  0.00  0.00    +0.000 A 
ATOM      7  C   UNL     1      49.350   7.036  14.055  0.00  0.00    +0.000 A 
BRANCH   5   8
ATOM      8  C   UNL     1      49.330   7.587  17.824  0.00  0.00    +0.000 C 
BRANCH   8   9
ATOM      9  C   UNL     1      48.493   6.523  18.570  0.00  0.00    +0.000 C 
BRANCH   9  10
ATOM     10  C   UNL     1      48.613   5.107  18.041  0.00  0.00    +0.000 A 
ATOM     11  C   UNL     1      47.499   4.527  17.410  0.00  0.00    +0.000 A 
ATOM     12  C   UNL     1      47.577   3.253  16.844  0.00  0.00    +0.000 A 
ATOM     13  C   UNL     1      48.773   2.544  16.890  0.00  0.00    +0.000 A 
ATOM     14  C   UNL     1      49.890   3.106  17.505  0.00  0.00    +0.000 A 
ATOM     15  C   UNL     1      49.813   4.380  18.073  0.00  0.00    +0.000 A 
ENDBRANCH   9  10
BRANCH   9  16
ATOM     16  O   UNL     1      47.102   6.850  18.524  0.00  0.00    +0.000 OA
ATOM     17  H   UNL     1      46.830   6.817  17.592  0.00  0.00    +0.000 HD
ENDBRANCH   9  16
ENDBRANCH   8   9
ENDBRANCH   5   8
ENDBRANCH   1   2
BRANCH   1  20
ATOM     18  O   UNL     1      45.422   7.920  11.789  0.00  0.00    +0.000 OA
ATOM     19  C   UNL     1      46.144   6.997  11.429  0.00  0.00    +0.000 C 
ATOM     20  N   UNL     1      47.499   7.001  11.627  0.00  0.00    +0.000 N 
ATOM     21  H   UNL     1      48.071   6.332  11.125  0.00  0.00    +0.000 HD
BRANCH  19  22
ATOM     22  C   UNL     1      45.597   5.790  10.800  0.00  0.00    +0.000 A 
ATOM     23  C   UNL     1      45.833   5.537   9.457  0.00  0.00    +0.000 A 
ATOM     24  S   UNL     1      45.088   4.109   8.895  0.00  0.00    +0.000 S 
ATOM     25  C   UNL     1      44.463   3.759  10.438  0.00  0.00    +0.000 A 
ATOM     26  N   UNL     1      43.725   2.637  10.660  0.00  0.00    +0.000 NA
ATOM     27  C   UNL     1      43.343   2.483  11.884  0.00  0.00    +0.000 A 
ATOM     28  N   UNL     1      43.626   3.351  12.908  0.00  0.00    +0.000 N 
ATOM     29  C   UNL     1      44.340   4.507  12.722  0.00  0.00    +0.000 A 
ATOM     30  O   UNL     1      44.534   5.287  13.653  0.00  0.00    +0.000 OA
ATOM     31  C   UNL     1      44.803   4.724  11.368  0.00  0.00    +0.000 A 
ATOM     32  H   UNL     1      43.286   3.179  13.841  0.00  0.00    +0.000 HD
ENDBRANCH  19  22
ENDBRANCH   1  20
TORSDOF 7
ENDMDL
MODEL 8
REMARK VINA RESULT:    -7.167      3.275      3.949
REMARK INTER + INTRA:         -11.220
REMARK INTER:                 -10.011
REMARK INTRA:                  -1.209
REMARK UNBOUND:                -1.330
REMARK  Name = 
REMARK  7 active torsions:
REMARK  status: ('A' for Active; 'I' for Inactive)
REMARK    1  A    between atoms: C_2  and  C_20
REMARK    2  A    between atoms: N_3  and  C_4
REMARK    3  A    between atoms: C_4  and  C_5
REMARK    4  A    between atoms: C_8  and  C_9
REMARK    5  A    between atoms: C_9  and  C_10
REMARK    6  A    between atoms: C_10  and  O_11
REMARK    7  A    between atoms: C_10  and  C_12
REMARK                            x       y       z     vdW  Elec       q    Type
REMARK                         _______ _______ _______ _____ _____    ______ ____
ROOT
ATOM      1  C   UNL     1      48.523   5.492  16.054  0.00  0.00    +0.000 C 
ENDROOT
BRANCH   1   2
ATOM      2  C   UNL     1      47.724   5.628  14.788  0.00  0.00    +0.000 A 
ATOM      3  C   UNL     1      46.792   4.645  14.439  0.00  0.00    +0.000 A 
ATOM      4  C   UNL     1      46.062   4.743  13.254  0.00  0.00    +0.000 A 
ATOM      5  C   UNL     1      46.251   5.821  12.381  0.00  0.00    +0.000 A 
ATOM      6  C   UNL     1      47.210   6.789  12.720  0.00  0.00    +0.000 A 
ATOM      7  C   UNL     1      47.944   6.691  13.906  0.00  0.00    +0.000 A 
BRANCH   5   8
ATOM      8  C   UNL     1      45.450   6.015  11.107  0.00  0.00    +0.000 C 
BRANCH   8   9
ATOM      9  C   UNL     1      44.528   4.856  10.667  0.00  0.00    +0.000 C 
BRANCH   9  10
ATOM     10  C   UNL     1      45.085   3.952   9.584  0.00  0.00    +0.000 A 
ATOM     11  C   UNL     1      45.783   4.536   8.513  0.00  0.00    +0.000 A 
ATOM     12  C   UNL     1      46.376   3.745   7.526  0.00  0.00    +0.000 A 
ATOM     13  C   UNL     1      46.288   2.358   7.601  0.00  0.00    +0.000 A 
ATOM     14  C   UNL     1      45.606   1.763   8.659  0.00  0.00    +0.000 A 
ATOM     15  C   UNL     1      45.011   2.552   9.646  0.00  0.00    +0.000 A 
ENDBRANCH   9  10
BRANCH   9  16
ATOM     16  O   UNL     1      43.286   5.359  10.167  0.00  0.00    +0.000 OA
ATOM     17  H   UNL     1      42.582   4.793  10.525  0.00  0.00    +0.000 HD
ENDBRANCH   9  16
ENDBRANCH   8   9
ENDBRANCH   5   8
ENDBRANCH   1   2
BRANCH   1  20
ATOM     18  O   UNL     1      49.990   7.749  16.794  0.00  0.00    +0.000 OA
ATOM     19  C   UNL     1      48.863   7.601  17.254  0.00  0.00    +0.000 C 
ATOM     20  N   UNL     1      48.107   6.485  17.008  0.00  0.00    +0.000 N 
ATOM     21  H   UNL     1      47.117   6.504  17.223  0.00  0.00    +0.000 HD
BRANCH  19  22
ATOM     22  C   UNL     1      48.259   8.592  18.150  0.00  0.00    +0.000 A 
ATOM     23  C   UNL     1      48.000   9.876  17.694  0.00  0.00    +0.000 A 
ATOM     24  S   UNL     1      47.332  10.898  18.885  0.00  0.00    +0.000 S 
ATOM     25  C   UNL     1      47.325   9.647  20.037  0.00  0.00    +0.000 A 
ATOM     26  N   UNL     1      46.848   9.851  21.295  0.00  0.00    +0.000 NA
ATOM     27  C   UNL     1      46.874   8.806  22.052  0.00  0.00    +0.000 A 
ATOM     28  N   UNL     1      47.337   7.573  21.670  0.00  0.00    +0.000 N 
ATOM     29  C   UNL     1      47.853   7.330  20.422  0.00  0.00    +0.000 A 
ATOM     30  O   UNL     1      48.304   6.225  20.128  0.00  0.00    +0.000 OA
ATOM     31  C   UNL     1      47.838   8.468  19.527  0.00  0.00    +0.000 A 
ATOM     32  H   UNL     1      47.342   6.798  22.314  0.00  0.00    +0.000 HD
ENDBRANCH  19  22
ENDBRANCH   1  20
TORSDOF 7
ENDMDL
MODEL 9
REMARK VINA RESULT:    -7.056      4.061      5.041
REMARK INTER + INTRA:         -11.067
REMARK INTER:                 -10.023
REMARK INTRA:                  -1.044
REMARK UNBOUND:                -1.330
REMARK  Name = 
REMARK  7 active torsions:
REMARK  status: ('A' for Active; 'I' for Inactive)
REMARK    1  A    between atoms: C_2  and  C_20
REMARK    2  A    between atoms: N_3  and  C_4
REMARK    3  A    between atoms: C_4  and  C_5
REMARK    4  A    between atoms: C_8  and  C_9
REMARK    5  A    between atoms: C_9  and  C_10
REMARK    6  A    between atoms: C_10  and  O_11
REMARK    7  A    between atoms: C_10  and  C_12
REMARK                            x       y       z     vdW  Elec       q    Type
REMARK                         _______ _______ _______ _____ _____    ______ ____
ROOT
ATOM      1  C   UNL     1      45.824   8.651  12.816  0.00  0.00    +0.000 C 
ENDROOT
BRANCH   1   2
ATOM      2  C   UNL     1      45.467   7.292  12.280  0.00  0.00    +0.000 A 
ATOM      3  C   UNL     1      46.474   6.359  12.011  0.00  0.00    +0.000 A 
ATOM      4  C   UNL     1      46.161   5.104  11.487  0.00  0.00    +0.000 A 
ATOM      5  C   UNL     1      44.835   4.752  11.208  0.00  0.00    +0.000 A 
ATOM      6  C   UNL     1      43.831   5.703  11.448  0.00  0.00    +0.000 A 
ATOM      7  C   UNL     1      44.144   6.962  11.971  0.00  0.00    +0.000 A 
BRANCH   5   8
ATOM      8  C   UNL     1      44.424   3.386  10.691  0.00  0.00    +0.000 C 
BRANCH   8   9
ATOM      9  C   UNL     1      44.240   3.232   9.164  0.00  0.00    +0.000 C 
BRANCH   9  10
ATOM     10  C   UNL     1      45.468   2.776   8.400  0.00  0.00    +0.000 A 
ATOM     11  C   UNL     1      45.827   1.418   8.451  0.00  0.00    +0.000 A 
ATOM     12  C   UNL     1      46.907   0.933   7.711  0.00  0.00    +0.000 A 
ATOM     13  C   UNL     1      47.638   1.795   6.900  0.00  0.00    +0.000 A 
ATOM     14  C   UNL     1      47.291   3.143   6.832  0.00  0.00    +0.000 A 
ATOM     15  C   UNL     1      46.212   3.631   7.573  0.00  0.00    +0.000 A 
ENDBRANCH   9  10
BRANCH   9  16
ATOM     16  O   UNL     1      43.841   4.473   8.575  0.00  0.00    +0.000 OA
ATOM     17  H   UNL     1      43.324   4.260   7.780  0.00  0.00    +0.000 HD
ENDBRANCH   9  16
ENDBRANCH   8   9
ENDBRANCH   5   8
ENDBRANCH   1   2
BRANCH   1  20
ATOM     18  O   UNL     1      48.045   9.775  14.078  0.00  0.00    +0.000 OA
ATOM     19  C   UNL     1      48.075   9.617  12.862  0.00  0.00    +0.000 C 
ATOM     20  N   UNL     1      47.000   9.148  12.154  0.00  0.00    +0.000 N 
ATOM     21  H   UNL     1      47.139   8.830  11.202  0.00  0.00    +0.000 HD
BRANCH  19  22
ATOM     22  C   UNL     1      49.255   9.969  12.067  0.00  0.00    +0.000 A 
ATOM     23  C   UNL     1      49.537  11.299  11.791  0.00  0.00    +0.000 A 
ATOM     24  S   UNL     1      50.926  11.511  10.824  0.00  0.00    +0.000 S 
ATOM     25  C   UNL     1      51.222   9.837  10.779  0.00  0.00    +0.000 A 
ATOM     26  N   UNL     1      52.297   9.330  10.117  0.00  0.00    +0.000 NA
ATOM     27  C   UNL     1      52.415   8.047  10.194  0.00  0.00    +0.000 A 
ATOM     28  N   UNL     1      51.553   7.220  10.868  0.00  0.00    +0.000 N 
ATOM     29  C   UNL     1      50.442   7.685  11.525  0.00  0.00    +0.000 A 
ATOM     30  O   UNL     1      49.664   6.911  12.079  0.00  0.00    +0.000 OA
ATOM     31  C   UNL     1      50.267   9.122  11.479  0.00  0.00    +0.000 A 
ATOM     32  H   UNL     1      51.695   6.222  10.880  0.00  0.00    +0.000 HD
ENDBRANCH  19  22
ENDBRANCH   1  20
TORSDOF 7
ENDMDL
