MODEL 1
REMARK VINA RESULT:    -8.385      0.000      0.000
REMARK INTER + INTRA:          -9.506
REMARK INTER:                  -9.855
REMARK INTRA:                   0.349
REMARK UNBOUND:                 0.349
REMARK  Name = 
REMARK  3 active torsions:
REMARK  status: ('A' for Active; 'I' for Inactive)
REMARK    1  A    between atoms: C_4  and  C_5
REMARK    2  A    between atoms: C_9  and  C_10
REMARK    3  A    between atoms: C_10  and  N_11
REMARK                            x       y       z     vdW  Elec       q    Type
REMARK                         _______ _______ _______ _____ _____    ______ ____
ROOT
ATOM      1  C   UNL     1      46.927   5.046  13.794  0.00  0.00    +0.000 A 
ATOM      2  C   UNL     1      47.679   6.090  13.232  0.00  0.00    +0.000 A 
ATOM      3  C   UNL     1      47.277   6.708  12.048  0.00  0.00    +0.000 A 
ATOM      4  C   UNL     1      46.107   6.298  11.411  0.00  0.00    +0.000 A 
ATOM      5  C   UNL     1      45.315   5.262  11.928  0.00  0.00    +0.000 A 
ATOM      6  C   UNL     1      45.756   4.653  13.114  0.00  0.00    +0.000 A 
ENDROOT
BRANCH   1  10
ATOM      7  C   UNL     1      48.107   2.965  17.287  0.00  0.00    +0.000 A 
ATOM      8  C   UNL     1      47.691   4.283  17.422  0.00  0.00    +0.000 A 
ATOM      9  C   UNL     1      47.287   4.995  16.294  0.00  0.00    +0.000 A 
ATOM     10  C   UNL     1      47.309   4.368  15.049  0.00  0.00    +0.000 A 
ATOM     11  N   UNL     1      47.715   3.079  14.912  0.00  0.00    +0.000 NA
ATOM     12  C   UNL     1      48.095   2.411  16.022  0.00  0.00    +0.000 A 
ENDBRANCH   1  10
BRANCH   5  13
ATOM     13  C   UNL     1      44.038   4.801  11.236  0.00  0.00    +0.000 C 
ATOM     14  C   UNL     1      42.725   5.002  11.970  0.00  0.00    +0.000 C 
ATOM     15  C   UNL     1      43.280   3.623  11.842  0.00  0.00    +0.000 C 
BRANCH  13  16
ATOM     16  N   UNL     1      44.107   4.832   9.771  0.00  0.00    +0.000 N 
ATOM     17  C   UNL     1      44.846   3.895   9.053  0.00  0.00    +0.000 A 
ATOM     18  N   UNL     1      45.079   2.670   9.550  0.00  0.00    +0.000 NA
ATOM     19  C   UNL     1      45.787   1.820   8.789  0.00  0.00    +0.000 A 
ATOM     20  C   UNL     1      46.299   2.151   7.560  0.00  0.00    +0.000 A 
ATOM     21  C   UNL     1      46.023   3.428   7.141  0.00  0.00    +0.000 A 
ATOM     22  N   UNL     1      45.302   4.309   7.858  0.00  0.00    +0.000 NA
ATOM     23  H   UNL     1      44.183   5.718   9.289  0.00  0.00    +0.000 HD
ENDBRANCH  13  16
ENDBRANCH   5  13
TORSDOF 3
ENDMDL
MODEL 2
REMARK VINA RESULT:    -8.227      2.088      3.962
REMARK INTER + INTRA:          -9.321
REMARK INTER:                  -9.558
REMARK INTRA:                   0.236
REMARK UNBOUND:                 0.349
REMARK  Name = 
REMARK  3 active torsions:
REMARK  status: ('A' for Active; 'I' for Inactive)
REMARK    1  A    between atoms: C_4  and  C_5
REMARK    2  A    between atoms: C_9  and  C_10
REMARK    3  A    between atoms: C_10  and  N_11
REMARK                            x       y       z     vdW  Elec       q    Type
REMARK                         _______ _______ _______ _____ _____    ______ ____
ROOT
ATOM      1  C   UNL     1      47.273   6.538  12.338  0.00  0.00    +0.000 A 
ATOM      2  C   UNL     1      47.565   5.670  13.402  0.00  0.00    +0.000 A 
ATOM      3  C   UNL     1      46.770   4.553  13.656  0.00  0.00    +0.000 A 
ATOM      4  C   UNL     1      45.673   4.279  12.841  0.00  0.00    +0.000 A 
ATOM      5  C   UNL     1      45.336   5.111  11.762  0.00  0.00    +0.000 A 
ATOM      6  C   UNL     1      46.150   6.234  11.543  0.00  0.00    +0.000 A 
ENDROOT
BRANCH   1  10
ATOM      7  C   UNL     1      49.481  10.057  11.523  0.00  0.00    +0.000 A 
ATOM      8  C   UNL     1      50.146   8.841  11.457  0.00  0.00    +0.000 A 
ATOM      9  C   UNL     1      49.447   7.662  11.711  0.00  0.00    +0.000 A 
ATOM     10  C   UNL     1      48.091   7.728  12.027  0.00  0.00    +0.000 A 
ATOM     11  N   UNL     1      47.437   8.916  12.092  0.00  0.00    +0.000 NA
ATOM     12  C   UNL     1      48.136  10.042  11.835  0.00  0.00    +0.000 A 
ENDBRANCH   1  10
BRANCH   5  13
ATOM     13  C   UNL     1      44.134   4.825  10.869  0.00  0.00    +0.000 C 
ATOM     14  C   UNL     1      42.755   5.143  11.417  0.00  0.00    +0.000 C 
ATOM     15  C   UNL     1      43.174   3.716  11.293  0.00  0.00    +0.000 C 
BRANCH  13  16
ATOM     16  N   UNL     1      44.423   4.906   9.432  0.00  0.00    +0.000 N 
ATOM     17  C   UNL     1      45.173   3.931   8.780  0.00  0.00    +0.000 A 
ATOM     18  N   UNL     1      45.219   2.671   9.241  0.00  0.00    +0.000 NA
ATOM     19  C   UNL     1      45.954   1.787   8.546  0.00  0.00    +0.000 A 
ATOM     20  C   UNL     1      46.670   2.115   7.423  0.00  0.00    +0.000 A 
ATOM     21  C   UNL     1      46.576   3.428   7.037  0.00  0.00    +0.000 A 
ATOM     22  N   UNL     1      45.837   4.346   7.688  0.00  0.00    +0.000 NA
ATOM     23  H   UNL     1      44.649   5.799   9.015  0.00  0.00    +0.000 HD
ENDBRANCH  13  16
ENDBRANCH   5  13
TORSDOF 3
ENDMDL
MODEL 3
REMARK VINA RESULT:    -7.963      3.194      6.897
REMARK INTER + INTRA:          -9.011
REMARK INTER:                  -8.468
REMARK INTRA:                  -0.544
REMARK UNBOUND:                 0.349
REMARK  Name = 
REMARK  3 active torsions:
REMARK  status: ('A' for Active; 'I' for Inactive)
REMARK    1  A    between atoms: C_4  and  C_5
REMARK    2  A    between atoms: C_9  and  C_10
REMARK    3  A    between atoms: C_10  and  N_11
REMARK                            x       y       z     vdW  Elec       q    Type
REMARK                         _______ _______ _______ _____ _____    ______ ____
ROOT
ATOM      1  C   UNL     1      44.763   4.608  10.144  0.00  0.00    +0.000 A 
ATOM      2  C   UNL     1      43.481   4.311  10.635  0.00  0.00    +0.000 A 
ATOM      3  C   UNL     1      42.897   5.089  11.634  0.00  0.00    +0.000 A 
ATOM      4  C   UNL     1      43.582   6.188  12.152  0.00  0.00    +0.000 A 
ATOM      5  C   UNL     1      44.864   6.533  11.696  0.00  0.00    +0.000 A 
ATOM      6  C   UNL     1      45.427   5.720  10.699  0.00  0.00    +0.000 A 
ENDROOT
BRANCH   1  10
ATOM      7  C   UNL     1      46.729   2.500   7.044  0.00  0.00    +0.000 A 
ATOM      8  C   UNL     1      46.119   1.762   8.050  0.00  0.00    +0.000 A 
ATOM      9  C   UNL     1      45.456   2.424   9.081  0.00  0.00    +0.000 A 
ATOM     10  C   UNL     1      45.417   3.817   9.083  0.00  0.00    +0.000 A 
ATOM     11  N   UNL     1      46.012   4.543   8.101  0.00  0.00    +0.000 NA
ATOM     12  C   UNL     1      46.643   3.876   7.111  0.00  0.00    +0.000 A 
ENDBRANCH   1  10
BRANCH   5  13
ATOM     13  C   UNL     1      45.625   7.727  12.260  0.00  0.00    +0.000 C 
ATOM     14  C   UNL     1      47.060   7.927  11.807  0.00  0.00    +0.000 C 
ATOM     15  C   UNL     1      46.797   7.452  13.197  0.00  0.00    +0.000 C 
BRANCH  13  16
ATOM     16  N   UNL     1      44.772   8.865  12.619  0.00  0.00    +0.000 N 
ATOM     17  C   UNL     1      44.330   9.779  11.666  0.00  0.00    +0.000 A 
ATOM     18  N   UNL     1      44.194   9.424  10.379  0.00  0.00    +0.000 NA
ATOM     19  C   UNL     1      43.748  10.360   9.525  0.00  0.00    +0.000 A 
ATOM     20  C   UNL     1      43.460  11.648   9.897  0.00  0.00    +0.000 A 
ATOM     21  C   UNL     1      43.644  11.923  11.228  0.00  0.00    +0.000 A 
ATOM     22  N   UNL     1      44.068  11.015  12.125  0.00  0.00    +0.000 NA
ATOM     23  H   UNL     1      44.946   9.374  13.476  0.00  0.00    +0.000 HD
ENDBRANCH  13  16
ENDBRANCH   5  13
TORSDOF 3
ENDMDL
MODEL 4
REMARK VINA RESULT:    -7.711      2.263      6.843
REMARK INTER + INTRA:          -8.714
REMARK INTER:                  -8.410
REMARK INTRA:                  -0.304
REMARK UNBOUND:                 0.349
REMARK  Name = 
REMARK  3 active torsions:
REMARK  status: ('A' for Active; 'I' for Inactive)
REMARK    1  A    between atoms: C_4  and  C_5
REMARK    2  A    between atoms: C_9  and  C_10
REMARK    3  A    between atoms: C_10  and  N_11
REMARK                            x       y       z     vdW  Elec       q    Type
REMARK                         _______ _______ _______ _____ _____    ______ ____
ROOT
ATOM      1  C   UNL     1      45.217   3.463   9.389  0.00  0.00    +0.000 A 
ATOM      2  C   UNL     1      44.152   2.812  10.032  0.00  0.00    +0.000 A 
ATOM      3  C   UNL     1      43.542   3.373  11.154  0.00  0.00    +0.000 A 
ATOM      4  C   UNL     1      43.981   4.601  11.646  0.00  0.00    +0.000 A 
ATOM      5  C   UNL     1      45.039   5.297  11.040  0.00  0.00    +0.000 A 
ATOM      6  C   UNL     1      45.639   4.697   9.921  0.00  0.00    +0.000 A 
ENDROOT
BRANCH   1  10
ATOM      7  C   UNL     1      47.166   2.062   5.901  0.00  0.00    +0.000 A 
ATOM      8  C   UNL     1      46.988   1.171   6.951  0.00  0.00    +0.000 A 
ATOM      9  C   UNL     1      46.343   1.597   8.111  0.00  0.00    +0.000 A 
ATOM     10  C   UNL     1      45.887   2.912   8.193  0.00  0.00    +0.000 A 
ATOM     11  N   UNL     1      46.059   3.786   7.169  0.00  0.00    +0.000 NA
ATOM     12  C   UNL     1      46.682   3.346   6.055  0.00  0.00    +0.000 A 
ENDBRANCH   1  10
BRANCH   5  13
ATOM     13  C   UNL     1      45.532   6.637  11.573  0.00  0.00    +0.000 C 
ATOM     14  C   UNL     1      44.759   7.269  12.717  0.00  0.00    +0.000 C 
ATOM     15  C   UNL     1      44.651   7.864  11.352  0.00  0.00    +0.000 C 
BRANCH  13  16
ATOM     16  N   UNL     1      46.975   6.849  11.417  0.00  0.00    +0.000 N 
ATOM     17  C   UNL     1      47.827   6.921  12.516  0.00  0.00    +0.000 A 
ATOM     18  N   UNL     1      47.523   6.305  13.669  0.00  0.00    +0.000 NA
ATOM     19  C   UNL     1      48.405   6.411  14.676  0.00  0.00    +0.000 A 
ATOM     20  C   UNL     1      49.569   7.131  14.590  0.00  0.00    +0.000 A 
ATOM     21  C   UNL     1      49.788   7.739  13.380  0.00  0.00    +0.000 A 
ATOM     22  N   UNL     1      48.945   7.646  12.335  0.00  0.00    +0.000 NA
ATOM     23  H   UNL     1      47.316   7.498  10.720  0.00  0.00    +0.000 HD
ENDBRANCH  13  16
ENDBRANCH   5  13
TORSDOF 3
ENDMDL
MODEL 5
REMARK VINA RESULT:    -7.136      2.381      6.684
REMARK INTER + INTRA:          -8.039
REMARK INTER:                  -7.474
REMARK INTRA:                  -0.565
REMARK UNBOUND:                 0.349
REMARK  Name = 
REMARK  3 active torsions:
REMARK  status: ('A' for Active; 'I' for Inactive)
REMARK    1  A    between atoms: C_4  and  C_5
REMARK    2  A    between atoms: C_9  and  C_10
REMARK    3  A    between atoms: C_10  and  N_11
REMARK                            x       y       z     vdW  Elec       q    Type
REMARK                         _______ _______ _______ _____ _____    ______ ____
ROOT
ATOM      1  C   UNL     1      45.064   4.014   9.804  0.00  0.00    +0.000 A 
ATOM      2  C   UNL     1      43.712   4.391   9.793  0.00  0.00    +0.000 A 
ATOM      3  C   UNL     1      43.155   5.097  10.859  0.00  0.00    +0.000 A 
ATOM      4  C   UNL     1      43.947   5.448  11.952  0.00  0.00    +0.000 A 
ATOM      5  C   UNL     1      45.305   5.100  12.015  0.00  0.00    +0.000 A 
ATOM      6  C   UNL     1      45.829   4.377  10.930  0.00  0.00    +0.000 A 
ENDROOT
BRANCH   1  10
ATOM      7  C   UNL     1      46.816   1.727   6.702  0.00  0.00    +0.000 A 
ATOM      8  C   UNL     1      46.694   3.096   6.513  0.00  0.00    +0.000 A 
ATOM      9  C   UNL     1      46.130   3.881   7.517  0.00  0.00    +0.000 A 
ATOM     10  C   UNL     1      45.699   3.273   8.695  0.00  0.00    +0.000 A 
ATOM     11  N   UNL     1      45.817   1.933   8.885  0.00  0.00    +0.000 NA
ATOM     12  C   UNL     1      46.373   1.198   7.898  0.00  0.00    +0.000 A 
ENDBRANCH   1  10
BRANCH   5  13
ATOM     13  C   UNL     1      46.178   5.472  13.207  0.00  0.00    +0.000 C 
ATOM     14  C   UNL     1      47.352   4.566  13.533  0.00  0.00    +0.000 C 
ATOM     15  C   UNL     1      46.156   4.553  14.426  0.00  0.00    +0.000 C 
BRANCH  13  16
ATOM     16  N   UNL     1      46.220   6.911  13.492  0.00  0.00    +0.000 N 
ATOM     17  C   UNL     1      47.259   7.717  13.034  0.00  0.00    +0.000 A 
ATOM     18  N   UNL     1      47.950   7.393  11.930  0.00  0.00    +0.000 NA
ATOM     19  C   UNL     1      48.927   8.232  11.546  0.00  0.00    +0.000 A 
ATOM     20  C   UNL     1      49.263   9.368  12.236  0.00  0.00    +0.000 A 
ATOM     21  C   UNL     1      48.513   9.609  13.359  0.00  0.00    +0.000 A 
ATOM     22  N   UNL     1      47.512   8.811  13.773  0.00  0.00    +0.000 NA
ATOM     23  H   UNL     1      45.945   7.251  14.404  0.00  0.00    +0.000 HD
ENDBRANCH  13  16
ENDBRANCH   5  13
TORSDOF 3
ENDMDL
MODEL 6
REMARK VINA RESULT:    -6.990      2.734      7.391
REMARK INTER + INTRA:          -7.867
REMARK INTER:                  -7.349
REMARK INTRA:                  -0.518
REMARK UNBOUND:                 0.349
REMARK  Name = 
REMARK  3 active torsions:
REMARK  status: ('A' for Active; 'I' for Inactive)
REMARK    1  A    between atoms: C_4  and  C_5
REMARK    2  A    between atoms: C_9  and  C_10
REMARK    3  A    between atoms: C_10  and  N_11
REMARK                            x       y       z     vdW  Elec       q    Type
REMARK                         _______ _______ _______ _____ _____    ______ ____
ROOT
ATOM      1  C   UNL     1      45.629   6.328  11.078  0.00  0.00    +0.000 A 
ATOM      2  C   UNL     1      44.703   7.335  11.399  0.00  0.00    +0.000 A 
ATOM      3  C   UNL     1      45.105   8.491  12.068  0.00  0.00    +0.000 A 
ATOM      4  C   UNL     1      46.443   8.665  12.418  0.00  0.00    +0.000 A 
ATOM      5  C   UNL     1      47.411   7.694  12.119  0.00  0.00    +0.000 A 
ATOM      6  C   UNL     1      46.970   6.536  11.458  0.00  0.00    +0.000 A 
ENDROOT
BRANCH   1  10
ATOM      7  C   UNL     1      44.657   2.839   8.885  0.00  0.00    +0.000 A 
ATOM      8  C   UNL     1      44.372   2.856  10.244  0.00  0.00    +0.000 A 
ATOM      9  C   UNL     1      44.671   3.992  10.994  0.00  0.00    +0.000 A 
ATOM     10  C   UNL     1      45.251   5.091  10.365  0.00  0.00    +0.000 A 
ATOM     11  N   UNL     1      45.532   5.079   9.036  0.00  0.00    +0.000 NA
ATOM     12  C   UNL     1      45.227   3.969   8.332  0.00  0.00    +0.000 A 
ENDBRANCH   1  10
BRANCH   5  13
ATOM     13  C   UNL     1      48.875   7.870  12.504  0.00  0.00    +0.000 C 
ATOM     14  C   UNL     1      49.470   9.262  12.393  0.00  0.00    +0.000 C 
ATOM     15  C   UNL     1      49.868   8.223  11.399  0.00  0.00    +0.000 C 
BRANCH  13  16
ATOM     16  N   UNL     1      49.350   6.913  13.509  0.00  0.00    +0.000 N 
ATOM     17  C   UNL     1      49.389   7.234  14.864  0.00  0.00    +0.000 A 
ATOM     18  N   UNL     1      48.555   8.150  15.382  0.00  0.00    +0.000 NA
ATOM     19  C   UNL     1      48.647   8.391  16.700  0.00  0.00    +0.000 A 
ATOM     20  C   UNL     1      49.557   7.776  17.520  0.00  0.00    +0.000 A 
ATOM     21  C   UNL     1      50.378   6.868  16.900  0.00  0.00    +0.000 A 
ATOM     22  N   UNL     1      50.311   6.577  15.588  0.00  0.00    +0.000 NA
ATOM     23  H   UNL     1      50.149   6.328  13.308  0.00  0.00    +0.000 HD
ENDBRANCH  13  16
ENDBRANCH   5  13
TORSDOF 3
ENDMDL
MODEL 7
REMARK VINA RESULT:    -6.872      2.782      8.165
REMARK INTER + INTRA:          -7.728
REMARK INTER:                  -7.469
REMARK INTRA:                  -0.259
REMARK UNBOUND:                 0.349
REMARK  Name = 
REMARK  3 active torsions:
REMARK  status: ('A' for Active; 'I' for Inactive)
REMARK    1  A    between atoms: C_4  and  C_5
REMARK    2  A    between atoms: C_9  and  C_10
REMARK    3  A    between atoms: C_10  and  N_11
REMARK                            x       y       z     vdW  Elec       q    Type
REMARK                         _______ _______ _______ _____ _____    ______ ____
ROOT
ATOM      1  C   UNL     1      46.596   5.210  13.506  0.00  0.00    +0.000 A 
ATOM      2  C   UNL     1      47.461   6.270  13.190  0.00  0.00    +0.000 A 
ATOM      3  C   UNL     1      48.409   6.720  14.109  0.00  0.00    +0.000 A 
ATOM      4  C   UNL     1      48.515   6.109  15.358  0.00  0.00    +0.000 A 
ATOM      5  C   UNL     1      47.678   5.043  15.725  0.00  0.00    +0.000 A 
ATOM      6  C   UNL     1      46.727   4.625  14.781  0.00  0.00    +0.000 A 
ENDROOT
BRANCH   1  10
ATOM      7  C   UNL     1      43.616   3.632  10.946  0.00  0.00    +0.000 A 
ATOM      8  C   UNL     1      44.337   4.734  10.506  0.00  0.00    +0.000 A 
ATOM      9  C   UNL     1      45.331   5.274  11.320  0.00  0.00    +0.000 A 
ATOM     10  C   UNL     1      45.583   4.695  12.563  0.00  0.00    +0.000 A 
ATOM     11  N   UNL     1      44.881   3.616  12.997  0.00  0.00    +0.000 NA
ATOM     12  C   UNL     1      43.928   3.110  12.186  0.00  0.00    +0.000 A 
ENDBRANCH   1  10
BRANCH   5  13
ATOM     13  C   UNL     1      47.780   4.372  17.090  0.00  0.00    +0.000 C 
ATOM     14  C   UNL     1      49.057   3.617  17.411  0.00  0.00    +0.000 C 
ATOM     15  C   UNL     1      47.809   2.847  17.138  0.00  0.00    +0.000 C 
BRANCH  13  16
ATOM     16  N   UNL     1      46.997   5.031  18.141  0.00  0.00    +0.000 N 
ATOM     17  C   UNL     1      47.579   5.925  19.036  0.00  0.00    +0.000 A 
ATOM     18  N   UNL     1      48.676   6.622  18.702  0.00  0.00    +0.000 NA
ATOM     19  C   UNL     1      49.167   7.475  19.617  0.00  0.00    +0.000 A 
ATOM     20  C   UNL     1      48.624   7.639  20.866  0.00  0.00    +0.000 A 
ATOM     21  C   UNL     1      47.515   6.874  21.123  0.00  0.00    +0.000 A 
ATOM     22  N   UNL     1      46.975   6.021  20.233  0.00  0.00    +0.000 NA
ATOM     23  H   UNL     1      46.289   4.510  18.642  0.00  0.00    +0.000 HD
ENDBRANCH  13  16
ENDBRANCH   5  13
TORSDOF 3
ENDMDL
MODEL 8
REMARK VINA RESULT:    -6.246      2.800      4.467
REMARK INTER + INTRA:          -6.992
REMARK INTER:                  -6.607
REMARK INTRA:                  -0.385
REMARK UNBOUND:                 0.349
REMARK  Name = 
REMARK  3 active torsions:
REMARK  status: ('A' for Active; 'I' for Inactive)
REMARK    1  A    between atoms: C_4  and  C_5
REMARK    2  A    between atoms: C_9  and  C_10
REMARK    3  A    between atoms: C_10  and  N_11
REMARK                            x       y       z     vdW  Elec       q    Type
REMARK                         _______ _______ _______ _____ _____    ______ ____
ROOT
ATOM      1  C   UNL     1      48.776   6.561  16.127  0.00  0.00    +0.000 A 
ATOM      2  C   UNL     1      48.858   7.715  16.923  0.00  0.00    +0.000 A 
ATOM      3  C   UNL     1      48.558   8.972  16.397  0.00  0.00    +0.000 A 
ATOM      4  C   UNL     1      48.159   9.093  15.067  0.00  0.00    +0.000 A 
ATOM      5  C   UNL     1      48.056   7.973  14.227  0.00  0.00    +0.000 A 
ATOM      6  C   UNL     1      48.379   6.726  14.786  0.00  0.00    +0.000 A 
ENDROOT
BRANCH   1  10
ATOM      7  C   UNL     1      49.804   2.756  17.673  0.00  0.00    +0.000 A 
ATOM      8  C   UNL     1      48.483   2.975  17.307  0.00  0.00    +0.000 A 
ATOM      9  C   UNL     1      48.112   4.214  16.787  0.00  0.00    +0.000 A 
ATOM     10  C   UNL     1      49.077   5.210  16.643  0.00  0.00    +0.000 A 
ATOM     11  N   UNL     1      50.370   4.999  17.000  0.00  0.00    +0.000 NA
ATOM     12  C   UNL     1      50.704   3.789  17.495  0.00  0.00    +0.000 A 
ENDBRANCH   1  10
BRANCH   5  13
ATOM     13  C   UNL     1      47.628   8.095  12.770  0.00  0.00    +0.000 C 
ATOM     14  C   UNL     1      48.580   7.575  11.708  0.00  0.00    +0.000 C 
ATOM     15  C   UNL     1      48.411   9.048  11.870  0.00  0.00    +0.000 C 
BRANCH  13  16
ATOM     16  N   UNL     1      46.175   8.075  12.569  0.00  0.00    +0.000 N 
ATOM     17  C   UNL     1      45.492   6.895  12.284  0.00  0.00    +0.000 A 
ATOM     18  N   UNL     1      45.971   5.706  12.682  0.00  0.00    +0.000 NA
ATOM     19  C   UNL     1      45.244   4.617  12.381  0.00  0.00    +0.000 A 
ATOM     20  C   UNL     1      44.071   4.662  11.672  0.00  0.00    +0.000 A 
ATOM     21  C   UNL     1      43.669   5.918  11.294  0.00  0.00    +0.000 A 
ATOM     22  N   UNL     1      44.351   7.040  11.589  0.00  0.00    +0.000 NA
ATOM     23  H   UNL     1      45.728   8.822  12.054  0.00  0.00    +0.000 HD
ENDBRANCH  13  16
ENDBRANCH   5  13
TORSDOF 3
ENDMDL
MODEL 9
REMARK VINA RESULT:    -6.177      2.659      7.199
REMARK INTER + INTRA:          -6.912
REMARK INTER:                  -6.642
REMARK INTRA:                  -0.269
REMARK UNBOUND:                 0.349
REMARK  Name = 
REMARK  3 active torsions:
REMARK  status: ('A' for Active; 'I' for Inactive)
REMARK    1  A    between atoms: C_4  and  C_5
REMARK    2  A    between atoms: C_9  and  C_10
REMARK    3  A    between atoms: C_10  and  N_11
REMARK                            x       y       z     vdW  Elec       q    Type
REMARK                         _______ _______ _______ _____ _____    ______ ____
ROOT
ATOM      1  C   UNL     1      47.245   6.716  12.415  0.00  0.00    +0.000 A 
ATOM      2  C   UNL     1      48.136   7.196  11.442  0.00  0.00    +0.000 A 
ATOM      3  C   UNL     1      49.358   7.763  11.806  0.00  0.00    +0.000 A 
ATOM      4  C   UNL     1      49.714   7.848  13.151  0.00  0.00    +0.000 A 
ATOM      5  C   UNL     1      48.863   7.381  14.165  0.00  0.00    +0.000 A 
ATOM      6  C   UNL     1      47.635   6.829  13.764  0.00  0.00    +0.000 A 
ENDROOT
BRANCH   1  10
ATOM      7  C   UNL     1      43.447   5.027  11.609  0.00  0.00    +0.000 A 
ATOM      8  C   UNL     1      44.361   5.103  10.567  0.00  0.00    +0.000 A 
ATOM      9  C   UNL     1      45.624   5.646  10.799  0.00  0.00    +0.000 A 
ATOM     10  C   UNL     1      45.945   6.102  12.077  0.00  0.00    +0.000 A 
ATOM     11  N   UNL     1      45.053   6.029  13.099  0.00  0.00    +0.000 NA
ATOM     12  C   UNL     1      43.840   5.494  12.848  0.00  0.00    +0.000 A 
ENDBRANCH   1  10
BRANCH   5  13
ATOM     13  C   UNL     1      49.239   7.476  15.639  0.00  0.00    +0.000 C 
ATOM     14  C   UNL     1      48.392   8.370  16.527  0.00  0.00    +0.000 C 
ATOM     15  C   UNL     1      49.770   8.810  16.159  0.00  0.00    +0.000 C 
BRANCH  13  16
ATOM     16  N   UNL     1      49.896   6.276  16.168  0.00  0.00    +0.000 N 
ATOM     17  C   UNL     1      49.168   5.234  16.738  0.00  0.00    +0.000 A 
ATOM     18  N   UNL     1      47.894   5.006  16.384  0.00  0.00    +0.000 NA
ATOM     19  C   UNL     1      47.267   3.972  16.970  0.00  0.00    +0.000 A 
ATOM     20  C   UNL     1      47.851   3.172  17.918  0.00  0.00    +0.000 A 
ATOM     21  C   UNL     1      49.149   3.490  18.227  0.00  0.00    +0.000 A 
ATOM     22  N   UNL     1      49.826   4.502  17.654  0.00  0.00    +0.000 NA
ATOM     23  H   UNL     1      50.764   6.362  16.680  0.00  0.00    +0.000 HD
ENDBRANCH  13  16
ENDBRANCH   5  13
TORSDOF 3
ENDMDL
