MODEL 1
REMARK VINA RESULT:    -7.345      0.000      0.000
REMARK INTER + INTRA:          -9.624
REMARK INTER:                  -9.062
REMARK INTRA:                  -0.562
REMARK UNBOUND:                -0.562
REMARK  Name = 
REMARK  5 active torsions:
REMARK  status: ('A' for Active; 'I' for Inactive)
REMARK    1  A    between atoms: C_1  and  O_2
REMARK    2  A    between atoms: O_2  and  C_3
REMARK    3  A    between atoms: C_7  and  C_8
REMARK    4  A    between atoms: C_8  and  N_9
REMARK    5  A    between atoms: C_10  and  C_12
REMARK                            x       y       z     vdW  Elec       q    Type
REMARK                         _______ _______ _______ _____ _____    ______ ____
ROOT
ATOM      1  N   UNL     1      46.971   4.550  15.965  0.00  0.00    +0.000 N 
ATOM      2  C   UNL     1      47.037   4.212  14.638  0.00  0.00    +0.000 C 
ATOM      3  O   UNL     1      47.328   3.078  14.266  0.00  0.00    +0.000 OA
ATOM      4  H   UNL     1      46.949   5.530  16.227  0.00  0.00    +0.000 HD
ENDROOT
BRANCH   2   5
ATOM      5  C   UNL     1      46.673   5.259  13.674  0.00  0.00    +0.000 A 
ATOM      6  C   UNL     1      47.585   6.263  13.378  0.00  0.00    +0.000 A 
ATOM      7  S   UNL     1      47.022   7.383  12.224  0.00  0.00    +0.000 S 
ATOM      8  C   UNL     1      45.520   6.590  12.110  0.00  0.00    +0.000 A 
ATOM      9  N   UNL     1      44.539   7.069  11.297  0.00  0.00    +0.000 NA
ATOM     10  C   UNL     1      43.441   6.392  11.334  0.00  0.00    +0.000 A 
ATOM     11  N   UNL     1      43.237   5.276  12.103  0.00  0.00    +0.000 N 
ATOM     12  C   UNL     1      44.212   4.733  12.909  0.00  0.00    +0.000 A 
ATOM     13  O   UNL     1      44.021   3.697  13.537  0.00  0.00    +0.000 OA
ATOM     14  C   UNL     1      45.460   5.473  12.923  0.00  0.00    +0.000 A 
ATOM     15  H   UNL     1      42.356   4.783  12.076  0.00  0.00    +0.000 HD
ENDBRANCH   2   5
BRANCH   1  16
ATOM     16  C   UNL     1      47.285   3.608  17.013  0.00  0.00    +0.000 C 
BRANCH  16  21
ATOM     17  C   UNL     1      50.850   2.273  17.336  0.00  0.00    +0.000 A 
ATOM     18  C   UNL     1      51.564   3.451  17.551  0.00  0.00    +0.000 A 
ATOM     19  C   UNL     1      50.892   4.675  17.616  0.00  0.00    +0.000 A 
ATOM     20  C   UNL     1      49.507   4.727  17.459  0.00  0.00    +0.000 A 
ATOM     21  C   UNL     1      48.773   3.553  17.245  0.00  0.00    +0.000 A 
ATOM     22  C   UNL     1      49.459   2.331  17.188  0.00  0.00    +0.000 A 
BRANCH  17  24
ATOM     23  C   UNL     1      52.767   0.881  17.531  0.00  0.00    +0.000 C 
ATOM     24  O   UNL     1      51.381   1.016  17.239  0.00  0.00    +0.000 OA
ENDBRANCH  17  24
ENDBRANCH  16  21
ENDBRANCH   1  16
TORSDOF 4
ENDMDL
MODEL 2
REMARK VINA RESULT:    -7.135      3.453      7.375
REMARK INTER + INTRA:          -9.366
REMARK INTER:                  -8.654
REMARK INTRA:                  -0.712
REMARK UNBOUND:                -0.562
REMARK  Name = 
REMARK  5 active torsions:
REMARK  status: ('A' for Active; 'I' for Inactive)
REMARK    1  A    between atoms: C_1  and  O_2
REMARK    2  A    between atoms: O_2  and  C_3
REMARK    3  A    between atoms: C_7  and  C_8
REMARK    4  A    between atoms: C_8  and  N_9
REMARK    5  A    between atoms: C_10  and  C_12
REMARK                            x       y       z     vdW  Elec       q    Type
REMARK                         _______ _______ _______ _____ _____    ______ ____
ROOT
ATOM      1  N   UNL     1      45.161   5.686  11.973  0.00  0.00    +0.000 N 
ATOM      2  C   UNL     1      46.390   6.292  11.952  0.00  0.00    +0.000 C 
ATOM      3  O   UNL     1      46.822   6.859  10.951  0.00  0.00    +0.000 OA
ATOM      4  H   UNL     1      44.936   5.047  12.729  0.00  0.00    +0.000 HD
ENDROOT
BRANCH   2   5
ATOM      5  C   UNL     1      47.146   6.293  13.212  0.00  0.00    +0.000 A 
ATOM      6  C   UNL     1      47.838   7.435  13.594  0.00  0.00    +0.000 A 
ATOM      7  S   UNL     1      48.640   7.282  15.089  0.00  0.00    +0.000 S 
ATOM      8  C   UNL     1      48.128   5.667  15.259  0.00  0.00    +0.000 A 
ATOM      9  N   UNL     1      48.507   4.926  16.336  0.00  0.00    +0.000 NA
ATOM     10  C   UNL     1      48.078   3.710  16.320  0.00  0.00    +0.000 A 
ATOM     11  N   UNL     1      47.299   3.169  15.331  0.00  0.00    +0.000 N 
ATOM     12  C   UNL     1      46.860   3.891  14.245  0.00  0.00    +0.000 A 
ATOM     13  O   UNL     1      46.111   3.398  13.408  0.00  0.00    +0.000 OA
ATOM     14  C   UNL     1      47.336   5.260  14.201  0.00  0.00    +0.000 A 
ATOM     15  H   UNL     1      46.985   2.210  15.386  0.00  0.00    +0.000 HD
ENDBRANCH   2   5
BRANCH   1  16
ATOM     16  C   UNL     1      44.311   5.633  10.807  0.00  0.00    +0.000 C 
BRANCH  16  21
ATOM     17  C   UNL     1      45.805   3.605   7.935  0.00  0.00    +0.000 A 
ATOM     18  C   UNL     1      45.520   2.303   8.343  0.00  0.00    +0.000 A 
ATOM     19  C   UNL     1      44.826   2.079   9.535  0.00  0.00    +0.000 A 
ATOM     20  C   UNL     1      44.419   3.154  10.326  0.00  0.00    +0.000 A 
ATOM     21  C   UNL     1      44.693   4.469   9.929  0.00  0.00    +0.000 A 
ATOM     22  C   UNL     1      45.386   4.679   8.728  0.00  0.00    +0.000 A 
BRANCH  17  24
ATOM     23  C   UNL     1      46.879   2.910   5.931  0.00  0.00    +0.000 C 
ATOM     24  O   UNL     1      46.485   3.963   6.803  0.00  0.00    +0.000 OA
ENDBRANCH  17  24
ENDBRANCH  16  21
ENDBRANCH   1  16
TORSDOF 4
ENDMDL
MODEL 3
REMARK VINA RESULT:    -6.991      1.241      2.089
REMARK INTER + INTRA:          -9.187
REMARK INTER:                  -8.598
REMARK INTRA:                  -0.590
REMARK UNBOUND:                -0.562
REMARK  Name = 
REMARK  5 active torsions:
REMARK  status: ('A' for Active; 'I' for Inactive)
REMARK    1  A    between atoms: C_1  and  O_2
REMARK    2  A    between atoms: O_2  and  C_3
REMARK    3  A    between atoms: C_7  and  C_8
REMARK    4  A    between atoms: C_8  and  N_9
REMARK    5  A    between atoms: C_10  and  C_12
REMARK                            x       y       z     vdW  Elec       q    Type
REMARK                         _______ _______ _______ _____ _____    ______ ____
ROOT
ATOM      1  N   UNL     1      46.867   4.418  15.895  0.00  0.00    +0.000 N 
ATOM      2  C   UNL     1      46.915   4.162  14.549  0.00  0.00    +0.000 C 
ATOM      3  O   UNL     1      47.266   3.073  14.103  0.00  0.00    +0.000 OA
ATOM      4  H   UNL     1      46.792   5.378  16.215  0.00  0.00    +0.000 HD
ENDROOT
BRANCH   2   5
ATOM      5  C   UNL     1      46.457   5.237  13.658  0.00  0.00    +0.000 A 
ATOM      6  C   UNL     1      47.270   6.343  13.447  0.00  0.00    +0.000 A 
ATOM      7  S   UNL     1      46.608   7.484  12.369  0.00  0.00    +0.000 S 
ATOM      8  C   UNL     1      45.189   6.562  12.181  0.00  0.00    +0.000 A 
ATOM      9  N   UNL     1      44.170   7.003  11.393  0.00  0.00    +0.000 NA
ATOM     10  C   UNL     1      43.143   6.224  11.369  0.00  0.00    +0.000 A 
ATOM     11  N   UNL     1      43.043   5.040  12.053  0.00  0.00    +0.000 N 
ATOM     12  C   UNL     1      44.061   4.536  12.828  0.00  0.00    +0.000 A 
ATOM     13  O   UNL     1      43.968   3.444  13.378  0.00  0.00    +0.000 OA
ATOM     14  C   UNL     1      45.232   5.388  12.911  0.00  0.00    +0.000 A 
ATOM     15  H   UNL     1      42.213   4.470  11.980  0.00  0.00    +0.000 HD
ENDBRANCH   2   5
BRANCH   1  16
ATOM     16  C   UNL     1      47.272   3.439  16.877  0.00  0.00    +0.000 C 
BRANCH  16  21
ATOM     17  C   UNL     1      50.745   4.806  17.687  0.00  0.00    +0.000 A 
ATOM     18  C   UNL     1      51.509   3.640  17.671  0.00  0.00    +0.000 A 
ATOM     19  C   UNL     1      50.907   2.414  17.376  0.00  0.00    +0.000 A 
ATOM     20  C   UNL     1      49.540   2.348  17.103  0.00  0.00    +0.000 A 
ATOM     21  C   UNL     1      48.759   3.510  17.111  0.00  0.00    +0.000 A 
ATOM     22  C   UNL     1      49.377   4.735  17.403  0.00  0.00    +0.000 A 
BRANCH  17  24
ATOM     23  C   UNL     1      50.243   7.113  17.966  0.00  0.00    +0.000 C 
ATOM     24  O   UNL     1      51.204   6.064  17.971  0.00  0.00    +0.000 OA
ENDBRANCH  17  24
ENDBRANCH  16  21
ENDBRANCH   1  16
TORSDOF 4
ENDMDL
MODEL 4
REMARK VINA RESULT:    -6.975      2.928      7.145
REMARK INTER + INTRA:          -9.168
REMARK INTER:                  -8.394
REMARK INTRA:                  -0.774
REMARK UNBOUND:                -0.562
REMARK  Name = 
REMARK  5 active torsions:
REMARK  status: ('A' for Active; 'I' for Inactive)
REMARK    1  A    between atoms: C_1  and  O_2
REMARK    2  A    between atoms: O_2  and  C_3
REMARK    3  A    between atoms: C_7  and  C_8
REMARK    4  A    between atoms: C_8  and  N_9
REMARK    5  A    between atoms: C_10  and  C_12
REMARK                            x       y       z     vdW  Elec       q    Type
REMARK                         _______ _______ _______ _____ _____    ______ ____
ROOT
ATOM      1  N   UNL     1      46.720   6.693  13.643  0.00  0.00    +0.000 N 
ATOM      2  C   UNL     1      48.055   6.451  13.845  0.00  0.00    +0.000 C 
ATOM      3  O   UNL     1      48.875   6.510  12.932  0.00  0.00    +0.000 OA
ATOM      4  H   UNL     1      46.053   6.421  14.358  0.00  0.00    +0.000 HD
ENDROOT
BRANCH   2   5
ATOM      5  C   UNL     1      48.474   6.185  15.227  0.00  0.00    +0.000 A 
ATOM      6  C   UNL     1      49.367   7.046  15.849  0.00  0.00    +0.000 A 
ATOM      7  S   UNL     1      49.732   6.613  17.456  0.00  0.00    +0.000 S 
ATOM      8  C   UNL     1      48.742   5.231  17.364  0.00  0.00    +0.000 A 
ATOM      9  N   UNL     1      48.634   4.380  18.421  0.00  0.00    +0.000 NA
ATOM     10  C   UNL     1      47.881   3.356  18.202  0.00  0.00    +0.000 A 
ATOM     11  N   UNL     1      47.219   3.109  17.027  0.00  0.00    +0.000 N 
ATOM     12  C   UNL     1      47.268   3.960  15.947  0.00  0.00    +0.000 A 
ATOM     13  O   UNL     1      46.615   3.746  14.932  0.00  0.00    +0.000 OA
ATOM     14  C   UNL     1      48.124   5.116  16.132  0.00  0.00    +0.000 A 
ATOM     15  H   UNL     1      46.633   2.292  16.925  0.00  0.00    +0.000 HD
ENDBRANCH   2   5
BRANCH   1  16
ATOM     16  C   UNL     1      46.183   6.986  12.335  0.00  0.00    +0.000 C 
BRANCH  16  21
ATOM     17  C   UNL     1      44.121   4.392  10.435  0.00  0.00    +0.000 A 
ATOM     18  C   UNL     1      43.124   4.100  11.365  0.00  0.00    +0.000 A 
ATOM     19  C   UNL     1      43.104   4.757  12.598  0.00  0.00    +0.000 A 
ATOM     20  C   UNL     1      44.082   5.703  12.909  0.00  0.00    +0.000 A 
ATOM     21  C   UNL     1      45.088   6.011  11.984  0.00  0.00    +0.000 A 
ATOM     22  C   UNL     1      45.093   5.349  10.748  0.00  0.00    +0.000 A 
BRANCH  17  24
ATOM     23  C   UNL     1      44.592   2.434   9.173  0.00  0.00    +0.000 C 
ATOM     24  O   UNL     1      44.264   3.817   9.202  0.00  0.00    +0.000 OA
ENDBRANCH  17  24
ENDBRANCH  16  21
ENDBRANCH   1  16
TORSDOF 4
ENDMDL
MODEL 5
REMARK VINA RESULT:    -6.766      2.384      3.152
REMARK INTER + INTRA:          -8.910
REMARK INTER:                  -8.253
REMARK INTRA:                  -0.657
REMARK UNBOUND:                -0.562
REMARK  Name = 
REMARK  5 active torsions:
REMARK  status: ('A' for Active; 'I' for Inactive)
REMARK    1  A    between atoms: C_1  and  O_2
REMARK    2  A    between atoms: O_2  and  C_3
REMARK    3  A    between atoms: C_7  and  C_8
REMARK    4  A    between atoms: C_8  and  N_9
REMARK    5  A    between atoms: C_10  and  C_12
REMARK                            x       y       z     vdW  Elec       q    Type
REMARK                         _______ _______ _______ _____ _____    ______ ____
ROOT
ATOM      1  N   UNL     1      47.566   6.257  14.924  0.00  0.00    +0.000 N 
ATOM      2  C   UNL     1      47.672   6.120  13.564  0.00  0.00    +0.000 C 
ATOM      3  O   UNL     1      48.759   6.019  13.000  0.00  0.00    +0.000 OA
ATOM      4  H   UNL     1      46.683   6.557  15.325  0.00  0.00    +0.000 HD
ENDROOT
BRANCH   2   5
ATOM      5  C   UNL     1      46.414   6.028  12.811  0.00  0.00    +0.000 A 
ATOM      6  C   UNL     1      45.843   7.182  12.291  0.00  0.00    +0.000 A 
ATOM      7  S   UNL     1      44.403   6.904  11.424  0.00  0.00    +0.000 S 
ATOM      8  C   UNL     1      44.466   5.234  11.752  0.00  0.00    +0.000 A 
ATOM      9  N   UNL     1      43.485   4.400  11.311  0.00  0.00    +0.000 NA
ATOM     10  C   UNL     1      43.640   3.168  11.660  0.00  0.00    +0.000 A 
ATOM     11  N   UNL     1      44.689   2.692  12.403  0.00  0.00    +0.000 N 
ATOM     12  C   UNL     1      45.723   3.490  12.835  0.00  0.00    +0.000 A 
ATOM     13  O   UNL     1      46.681   3.025  13.444  0.00  0.00    +0.000 OA
ATOM     14  C   UNL     1      45.584   4.892  12.491  0.00  0.00    +0.000 A 
ATOM     15  H   UNL     1      44.757   1.710  12.631  0.00  0.00    +0.000 HD
ENDBRANCH   2   5
BRANCH   1  16
ATOM     16  C   UNL     1      48.726   6.340  15.780  0.00  0.00    +0.000 C 
BRANCH  16  21
ATOM     17  C   UNL     1      49.134   4.561  19.135  0.00  0.00    +0.000 A 
ATOM     18  C   UNL     1      48.466   3.361  18.891  0.00  0.00    +0.000 A 
ATOM     19  C   UNL     1      47.904   3.116  17.636  0.00  0.00    +0.000 A 
ATOM     20  C   UNL     1      48.000   4.070  16.623  0.00  0.00    +0.000 A 
ATOM     21  C   UNL     1      48.670   5.279  16.849  0.00  0.00    +0.000 A 
ATOM     22  C   UNL     1      49.235   5.510  18.112  0.00  0.00    +0.000 A 
BRANCH  17  24
ATOM     23  C   UNL     1      49.572   6.292  20.704  0.00  0.00    +0.000 C 
ATOM     24  O   UNL     1      49.717   4.931  20.316  0.00  0.00    +0.000 OA
ENDBRANCH  17  24
ENDBRANCH  16  21
ENDBRANCH   1  16
TORSDOF 4
ENDMDL
MODEL 6
REMARK VINA RESULT:    -6.562      5.564      8.463
REMARK INTER + INTRA:          -8.658
REMARK INTER:                  -8.031
REMARK INTRA:                  -0.627
REMARK UNBOUND:                -0.562
REMARK  Name = 
REMARK  5 active torsions:
REMARK  status: ('A' for Active; 'I' for Inactive)
REMARK    1  A    between atoms: C_1  and  O_2
REMARK    2  A    between atoms: O_2  and  C_3
REMARK    3  A    between atoms: C_7  and  C_8
REMARK    4  A    between atoms: C_8  and  N_9
REMARK    5  A    between atoms: C_10  and  C_12
REMARK                            x       y       z     vdW  Elec       q    Type
REMARK                         _______ _______ _______ _____ _____    ______ ____
ROOT
ATOM      1  N   UNL     1      44.950   7.628  12.545  0.00  0.00    +0.000 N 
ATOM      2  C   UNL     1      45.742   6.608  12.085  0.00  0.00    +0.000 C 
ATOM      3  O   UNL     1      46.956   6.735  11.945  0.00  0.00    +0.000 OA
ATOM      4  H   UNL     1      43.944   7.563  12.437  0.00  0.00    +0.000 HD
ENDROOT
BRANCH   2   5
ATOM      5  C   UNL     1      45.077   5.323  11.830  0.00  0.00    +0.000 A 
ATOM      6  C   UNL     1      44.406   4.683  12.864  0.00  0.00    +0.000 A 
ATOM      7  S   UNL     1      43.668   3.219  12.400  0.00  0.00    +0.000 S 
ATOM      8  C   UNL     1      44.258   3.365  10.810  0.00  0.00    +0.000 A 
ATOM      9  N   UNL     1      44.008   2.400   9.882  0.00  0.00    +0.000 NA
ATOM     10  C   UNL     1      44.543   2.620   8.730  0.00  0.00    +0.000 A 
ATOM     11  N   UNL     1      45.300   3.720   8.416  0.00  0.00    +0.000 N 
ATOM     12  C   UNL     1      45.546   4.738   9.309  0.00  0.00    +0.000 A 
ATOM     13  O   UNL     1      46.173   5.740   8.981  0.00  0.00    +0.000 OA
ATOM     14  C   UNL     1      44.987   4.527  10.630  0.00  0.00    +0.000 A 
ATOM     15  H   UNL     1      45.680   3.838   7.488  0.00  0.00    +0.000 HD
ENDBRANCH   2   5
BRANCH   1  16
ATOM     16  C   UNL     1      45.484   8.935  12.851  0.00  0.00    +0.000 C 
BRANCH  16  21
ATOM     17  C   UNL     1      43.677  10.759  10.023  0.00  0.00    +0.000 A 
ATOM     18  C   UNL     1      44.594  11.764   9.716  0.00  0.00    +0.000 A 
ATOM     19  C   UNL     1      45.807  11.839  10.407  0.00  0.00    +0.000 A 
ATOM     20  C   UNL     1      46.105  10.916  11.409  0.00  0.00    +0.000 A 
ATOM     21  C   UNL     1      45.197   9.898  11.728  0.00  0.00    +0.000 A 
ATOM     22  C   UNL     1      43.986   9.831  11.023  0.00  0.00    +0.000 A 
BRANCH  17  24
ATOM     23  C   UNL     1      41.318  10.646  10.287  0.00  0.00    +0.000 C 
ATOM     24  O   UNL     1      42.455  10.579   9.435  0.00  0.00    +0.000 OA
ENDBRANCH  17  24
ENDBRANCH  16  21
ENDBRANCH   1  16
TORSDOF 4
ENDMDL
MODEL 7
REMARK VINA RESULT:    -6.285      2.697      7.747
REMARK INTER + INTRA:          -8.317
REMARK INTER:                  -7.791
REMARK INTRA:                  -0.526
REMARK UNBOUND:                -0.562
REMARK  Name = 
REMARK  5 active torsions:
REMARK  status: ('A' for Active; 'I' for Inactive)
REMARK    1  A    between atoms: C_1  and  O_2
REMARK    2  A    between atoms: O_2  and  C_3
REMARK    3  A    between atoms: C_7  and  C_8
REMARK    4  A    between atoms: C_8  and  N_9
REMARK    5  A    between atoms: C_10  and  C_12
REMARK                            x       y       z     vdW  Elec       q    Type
REMARK                         _______ _______ _______ _____ _____    ______ ____
ROOT
ATOM      1  N   UNL     1      47.532   4.304  15.267  0.00  0.00    +0.000 N 
ATOM      2  C   UNL     1      47.487   3.956  16.592  0.00  0.00    +0.000 C 
ATOM      3  O   UNL     1      46.619   3.214  17.044  0.00  0.00    +0.000 OA
ATOM      4  H   UNL     1      48.116   5.082  14.978  0.00  0.00    +0.000 HD
ENDROOT
BRANCH   2   5
ATOM      5  C   UNL     1      48.574   4.460  17.442  0.00  0.00    +0.000 A 
ATOM      6  C   UNL     1      48.433   5.686  18.077  0.00  0.00    +0.000 A 
ATOM      7  S   UNL     1      49.769   6.115  19.045  0.00  0.00    +0.000 S 
ATOM      8  C   UNL     1      50.604   4.695  18.613  0.00  0.00    +0.000 A 
ATOM      9  N   UNL     1      51.858   4.454  19.085  0.00  0.00    +0.000 NA
ATOM     10  C   UNL     1      52.387   3.361  18.650  0.00  0.00    +0.000 A 
ATOM     11  N   UNL     1      51.774   2.482  17.794  0.00  0.00    +0.000 N 
ATOM     12  C   UNL     1      50.494   2.665  17.324  0.00  0.00    +0.000 A 
ATOM     13  O   UNL     1      49.948   1.831  16.610  0.00  0.00    +0.000 OA
ATOM     14  C   UNL     1      49.863   3.895  17.763  0.00  0.00    +0.000 A 
ATOM     15  H   UNL     1      52.240   1.635  17.503  0.00  0.00    +0.000 HD
ENDBRANCH   2   5
BRANCH   1  16
ATOM     16  C   UNL     1      46.533   3.859  14.323  0.00  0.00    +0.000 C 
BRANCH  16  21
ATOM     17  C   UNL     1      44.769   5.983  11.683  0.00  0.00    +0.000 A 
ATOM     18  C   UNL     1      45.718   6.978  11.455  0.00  0.00    +0.000 A 
ATOM     19  C   UNL     1      46.937   6.952  12.136  0.00  0.00    +0.000 A 
ATOM     20  C   UNL     1      47.211   5.936  13.051  0.00  0.00    +0.000 A 
ATOM     21  C   UNL     1      46.271   4.926  13.291  0.00  0.00    +0.000 A 
ATOM     22  C   UNL     1      45.053   4.961  12.596  0.00  0.00    +0.000 A 
BRANCH  17  24
ATOM     23  C   UNL     1      42.454   5.499  11.931  0.00  0.00    +0.000 C 
ATOM     24  O   UNL     1      43.536   5.896  11.096  0.00  0.00    +0.000 OA
ENDBRANCH  17  24
ENDBRANCH  16  21
ENDBRANCH   1  16
TORSDOF 4
ENDMDL
MODEL 8
REMARK VINA RESULT:    -6.148      6.249      9.425
REMARK INTER + INTRA:          -8.148
REMARK INTER:                  -7.615
REMARK INTRA:                  -0.533
REMARK UNBOUND:                -0.562
REMARK  Name = 
REMARK  5 active torsions:
REMARK  status: ('A' for Active; 'I' for Inactive)
REMARK    1  A    between atoms: C_1  and  O_2
REMARK    2  A    between atoms: O_2  and  C_3
REMARK    3  A    between atoms: C_7  and  C_8
REMARK    4  A    between atoms: C_8  and  N_9
REMARK    5  A    between atoms: C_10  and  C_12
REMARK                            x       y       z     vdW  Elec       q    Type
REMARK                         _______ _______ _______ _____ _____    ______ ____
ROOT
ATOM      1  N   UNL     1      44.131   8.156  11.090  0.00  0.00    +0.000 N 
ATOM      2  C   UNL     1      45.026   7.174  11.424  0.00  0.00    +0.000 C 
ATOM      3  O   UNL     1      46.183   7.428  11.751  0.00  0.00    +0.000 OA
ATOM      4  H   UNL     1      43.269   7.902  10.617  0.00  0.00    +0.000 HD
ENDROOT
BRANCH   2   5
ATOM      5  C   UNL     1      44.516   5.796  11.441  0.00  0.00    +0.000 A 
ATOM      6  C   UNL     1      43.757   5.361  12.519  0.00  0.00    +0.000 A 
ATOM      7  S   UNL     1      43.220   3.751  12.375  0.00  0.00    +0.000 S 
ATOM      8  C   UNL     1      44.023   3.561  10.886  0.00  0.00    +0.000 A 
ATOM      9  N   UNL     1      43.993   2.372  10.224  0.00  0.00    +0.000 NA
ATOM     10  C   UNL     1      44.672   2.357   9.128  0.00  0.00    +0.000 A 
ATOM     11  N   UNL     1      45.371   3.425   8.627  0.00  0.00    +0.000 N 
ATOM     12  C   UNL     1      45.397   4.656   9.240  0.00  0.00    +0.000 A 
ATOM     13  O   UNL     1      45.979   5.611   8.737  0.00  0.00    +0.000 OA
ATOM     14  C   UNL     1      44.670   4.719  10.494  0.00  0.00    +0.000 A 
ATOM     15  H   UNL     1      45.873   3.351   7.753  0.00  0.00    +0.000 HD
ENDBRANCH   2   5
BRANCH   1  16
ATOM     16  C   UNL     1      44.500   9.552  11.053  0.00  0.00    +0.000 C 
BRANCH  16  21
ATOM     17  C   UNL     1      40.841  10.646  10.995  0.00  0.00    +0.000 A 
ATOM     18  C   UNL     1      40.965  12.023  11.181  0.00  0.00    +0.000 A 
ATOM     19  C   UNL     1      42.231  12.601  11.304  0.00  0.00    +0.000 A 
ATOM     20  C   UNL     1      43.377  11.807  11.246  0.00  0.00    +0.000 A 
ATOM     21  C   UNL     1      43.271  10.424  11.055  0.00  0.00    +0.000 A 
ATOM     22  C   UNL     1      41.995   9.857  10.928  0.00  0.00    +0.000 A 
BRANCH  17  24
ATOM     23  C   UNL     1      38.541  10.472  11.569  0.00  0.00    +0.000 C 
ATOM     24  O   UNL     1      39.668   9.953  10.873  0.00  0.00    +0.000 OA
ENDBRANCH  17  24
ENDBRANCH  16  21
ENDBRANCH   1  16
TORSDOF 4
ENDMDL
MODEL 9
REMARK VINA RESULT:    -6.111      2.910      7.438
REMARK INTER + INTRA:          -8.102
REMARK INTER:                  -7.516
REMARK INTRA:                  -0.586
REMARK UNBOUND:                -0.562
REMARK  Name = 
REMARK  5 active torsions:
REMARK  status: ('A' for Active; 'I' for Inactive)
REMARK    1  A    between atoms: C_1  and  O_2
REMARK    2  A    between atoms: O_2  and  C_3
REMARK    3  A    between atoms: C_7  and  C_8
REMARK    4  A    between atoms: C_8  and  N_9
REMARK    5  A    between atoms: C_10  and  C_12
REMARK                            x       y       z     vdW  Elec       q    Type
REMARK                         _______ _______ _______ _____ _____    ______ ____
ROOT
ATOM      1  N   UNL     1      47.488   4.379  15.285  0.00  0.00    +0.000 N 
ATOM      2  C   UNL     1      47.485   3.937  16.582  0.00  0.00    +0.000 C 
ATOM      3  O   UNL     1      46.563   3.270  17.044  0.00  0.00    +0.000 OA
ATOM      4  H   UNL     1      48.144   5.103  15.009  0.00  0.00    +0.000 HD
ENDROOT
BRANCH   2   5
ATOM      5  C   UNL     1      48.678   4.242  17.384  0.00  0.00    +0.000 A 
ATOM      6  C   UNL     1      48.715   5.407  18.139  0.00  0.00    +0.000 A 
ATOM      7  S   UNL     1      50.154   5.600  19.031  0.00  0.00    +0.000 S 
ATOM      8  C   UNL     1      50.799   4.155  18.404  0.00  0.00    +0.000 A 
ATOM      9  N   UNL     1      52.050   3.743  18.748  0.00  0.00    +0.000 NA
ATOM     10  C   UNL     1      52.427   2.652  18.173  0.00  0.00    +0.000 A 
ATOM     11  N   UNL     1      51.664   1.929  17.293  0.00  0.00    +0.000 N 
ATOM     12  C   UNL     1      50.381   2.285  16.947  0.00  0.00    +0.000 A 
ATOM     13  O   UNL     1      49.699   1.585  16.205  0.00  0.00    +0.000 OA
ATOM     14  C   UNL     1      49.918   3.522  17.546  0.00  0.00    +0.000 A 
ATOM     15  H   UNL     1      52.014   1.073  16.887  0.00  0.00    +0.000 HD
ENDBRANCH   2   5
BRANCH   1  16
ATOM     16  C   UNL     1      46.385   4.130  14.387  0.00  0.00    +0.000 C 
BRANCH  16  21
ATOM     17  C   UNL     1      46.979   7.306  12.350  0.00  0.00    +0.000 A 
ATOM     18  C   UNL     1      45.724   7.500  11.774  0.00  0.00    +0.000 A 
ATOM     19  C   UNL     1      44.679   6.617  12.060  0.00  0.00    +0.000 A 
ATOM     20  C   UNL     1      44.885   5.536  12.917  0.00  0.00    +0.000 A 
ATOM     21  C   UNL     1      46.138   5.329  13.508  0.00  0.00    +0.000 A 
ATOM     22  C   UNL     1      47.177   6.225  13.217  0.00  0.00    +0.000 A 
BRANCH  17  24
ATOM     23  C   UNL     1      49.328   7.405  11.996  0.00  0.00    +0.000 C 
ATOM     24  O   UNL     1      48.086   8.083  12.147  0.00  0.00    +0.000 OA
ENDBRANCH  17  24
ENDBRANCH  16  21
ENDBRANCH   1  16
TORSDOF 4
ENDMDL
