MODEL 1
REMARK VINA RESULT:    -8.014      0.000      0.000
REMARK INTER + INTRA:         -11.690
REMARK INTER:                 -11.294
REMARK INTRA:                  -0.396
REMARK UNBOUND:                -0.396
REMARK  Name = 
REMARK  8 active torsions:
REMARK  status: ('A' for Active; 'I' for Inactive)
REMARK    1  A    between atoms: N_1  and  C_2
REMARK    2  A    between atoms: C_2  and  C_3
REMARK    3  A    between atoms: C_7  and  C_8
REMARK    4  A    between atoms: C_8  and  C_9
REMARK    5  A    between atoms: C_9  and  N_10
REMARK    6  A    between atoms: N_10  and  C_11
REMARK    7  A    between atoms: C_14  and  C_15
REMARK    8  A    between atoms: C_19  and  N_20
REMARK                            x       y       z     vdW  Elec       q    Type
REMARK                         _______ _______ _______ _____ _____    ______ ____
ROOT
ATOM      1  N   UNL     1      43.733   4.859   9.871  0.00  0.00    +0.000 N 
ATOM      2  H   UNL     1      43.500   5.658   9.291  0.00  0.00    +0.000 HD
ENDROOT
BRANCH   1   3
ATOM      3  C   UNL     1      44.660   4.062   9.145  0.00  0.00    +0.000 A 
ATOM      4  N   UNL     1      45.468   4.664   8.241  0.00  0.00    +0.000 NA
ATOM      5  C   UNL     1      46.355   3.901   7.560  0.00  0.00    +0.000 A 
ATOM      6  C   UNL     1      46.505   2.542   7.739  0.00  0.00    +0.000 A 
ATOM      7  C   UNL     1      45.684   1.926   8.689  0.00  0.00    +0.000 A 
ATOM      8  C   UNL     1      44.710   2.667   9.374  0.00  0.00    +0.000 A 
BRANCH   6   9
ATOM      9  C   UNL     1      47.479   1.721   6.980  0.00  0.00    +0.000 C 
ATOM     10  N   UNL     1      48.521   2.342   6.345  0.00  0.00    +0.000 N 
ATOM     11  O   UNL     1      47.357   0.506   6.900  0.00  0.00    +0.000 OA
ATOM     12  H   UNL     1      48.701   3.334   6.320  0.00  0.00    +0.000 HD
ATOM     13  H   UNL     1      49.144   1.744   5.819  0.00  0.00    +0.000 HD
ENDBRANCH   6   9
BRANCH   8  14
ATOM     14  N   UNL     1      43.988   2.037  10.404  0.00  0.00    +0.000 N 
ATOM     15  H   UNL     1      43.798   2.620  11.212  0.00  0.00    +0.000 HD
ATOM     16  H   UNL     1      44.321   1.106  10.628  0.00  0.00    +0.000 HD
ENDBRANCH   8  14
ENDBRANCH   1   3
BRANCH   1  17
ATOM     17  C   UNL     1      44.271   5.266  11.178  0.00  0.00    +0.000 C 
BRANCH  17  18
ATOM     18  C   UNL     1      45.078   6.566  11.087  0.00  0.00    +0.000 C 
BRANCH  18  23
ATOM     19  C   UNL     1      47.285   5.540  14.043  0.00  0.00    +0.000 A 
ATOM     20  C   UNL     1      48.428   6.313  13.798  0.00  0.00    +0.000 A 
ATOM     21  C   UNL     1      48.470   7.194  12.719  0.00  0.00    +0.000 A 
ATOM     22  C   UNL     1      47.377   7.305  11.859  0.00  0.00    +0.000 A 
ATOM     23  C   UNL     1      46.225   6.537  12.077  0.00  0.00    +0.000 A 
ATOM     24  C   UNL     1      46.187   5.665  13.177  0.00  0.00    +0.000 A 
BRANCH  19  25
ATOM     25  C   UNL     1      47.255   4.547  15.177  0.00  0.00    +0.000 C 
BRANCH  25  26
ATOM     26  N   UNL     1      47.477   3.182  14.715  0.00  0.00    +0.000 NA
ATOM     27  H   UNL     1      47.473   3.174  13.697  0.00  0.00    +0.000 HD
ATOM     28  H   UNL     1      46.689   2.607  15.011  0.00  0.00    +0.000 HD
ENDBRANCH  25  26
ENDBRANCH  19  25
ENDBRANCH  18  23
ENDBRANCH  17  18
ENDBRANCH   1  17
TORSDOF 8
ENDMDL
MODEL 2
REMARK VINA RESULT:    -7.470      2.775      6.241
REMARK INTER + INTRA:         -10.922
REMARK INTER:                 -10.463
REMARK INTRA:                  -0.459
REMARK UNBOUND:                -0.396
REMARK  Name = 
REMARK  8 active torsions:
REMARK  status: ('A' for Active; 'I' for Inactive)
REMARK    1  A    between atoms: N_1  and  C_2
REMARK    2  A    between atoms: C_2  and  C_3
REMARK    3  A    between atoms: C_7  and  C_8
REMARK    4  A    between atoms: C_8  and  C_9
REMARK    5  A    between atoms: C_9  and  N_10
REMARK    6  A    between atoms: N_10  and  C_11
REMARK    7  A    between atoms: C_14  and  C_15
REMARK    8  A    between atoms: C_19  and  N_20
REMARK                            x       y       z     vdW  Elec       q    Type
REMARK                         _______ _______ _______ _____ _____    ______ ____
ROOT
ATOM      1  N   UNL     1      43.438   4.416  12.724  0.00  0.00    +0.000 N 
ATOM      2  H   UNL     1      43.398   3.574  13.290  0.00  0.00    +0.000 HD
ENDROOT
BRANCH   1   3
ATOM      3  C   UNL     1      44.729   4.986  12.902  0.00  0.00    +0.000 A 
ATOM      4  N   UNL     1      45.696   4.240  13.485  0.00  0.00    +0.000 NA
ATOM      5  C   UNL     1      46.924   4.786  13.643  0.00  0.00    +0.000 A 
ATOM      6  C   UNL     1      47.267   6.056  13.230  0.00  0.00    +0.000 A 
ATOM      7  C   UNL     1      46.271   6.818  12.608  0.00  0.00    +0.000 A 
ATOM      8  C   UNL     1      44.969   6.315  12.477  0.00  0.00    +0.000 A 
BRANCH   6   9
ATOM      9  C   UNL     1      48.617   6.640  13.415  0.00  0.00    +0.000 C 
ATOM     10  N   UNL     1      49.186   7.337  12.383  0.00  0.00    +0.000 N 
ATOM     11  O   UNL     1      49.232   6.495  14.462  0.00  0.00    +0.000 OA
ATOM     12  H   UNL     1      48.784   7.492  11.472  0.00  0.00    +0.000 HD
ATOM     13  H   UNL     1      50.118   7.695  12.546  0.00  0.00    +0.000 HD
ENDBRANCH   6   9
BRANCH   8  14
ATOM     14  N   UNL     1      44.030   7.061  11.742  0.00  0.00    +0.000 N 
ATOM     15  H   UNL     1      43.615   7.839  12.243  0.00  0.00    +0.000 HD
ATOM     16  H   UNL     1      43.368   6.493  11.227  0.00  0.00    +0.000 HD
ENDBRANCH   8  14
ENDBRANCH   1   3
BRANCH   1  17
ATOM     17  C   UNL     1      43.155   4.142  11.308  0.00  0.00    +0.000 C 
BRANCH  17  18
ATOM     18  C   UNL     1      43.771   2.817  10.844  0.00  0.00    +0.000 C 
BRANCH  18  23
ATOM     19  C   UNL     1      46.253   2.186   7.999  0.00  0.00    +0.000 A 
ATOM     20  C   UNL     1      46.450   3.490   7.528  0.00  0.00    +0.000 A 
ATOM     21  C   UNL     1      45.828   4.571   8.151  0.00  0.00    +0.000 A 
ATOM     22  C   UNL     1      44.988   4.362   9.245  0.00  0.00    +0.000 A 
ATOM     23  C   UNL     1      44.768   3.066   9.731  0.00  0.00    +0.000 A 
ATOM     24  C   UNL     1      45.413   1.987   9.106  0.00  0.00    +0.000 A 
BRANCH  19  25
ATOM     25  C   UNL     1      46.882   1.009   7.295  0.00  0.00    +0.000 C 
BRANCH  25  26
ATOM     26  N   UNL     1      48.031   1.405   6.489  0.00  0.00    +0.000 NA
ATOM     27  H   UNL     1      47.776   2.214   5.926  0.00  0.00    +0.000 HD
ATOM     28  H   UNL     1      48.242   0.654   5.834  0.00  0.00    +0.000 HD
ENDBRANCH  25  26
ENDBRANCH  19  25
ENDBRANCH  18  23
ENDBRANCH  17  18
ENDBRANCH   1  17
TORSDOF 8
ENDMDL
MODEL 3
REMARK VINA RESULT:    -7.389      1.762      2.342
REMARK INTER + INTRA:         -10.809
REMARK INTER:                 -10.245
REMARK INTRA:                  -0.564
REMARK UNBOUND:                -0.396
REMARK  Name = 
REMARK  8 active torsions:
REMARK  status: ('A' for Active; 'I' for Inactive)
REMARK    1  A    between atoms: N_1  and  C_2
REMARK    2  A    between atoms: C_2  and  C_3
REMARK    3  A    between atoms: C_7  and  C_8
REMARK    4  A    between atoms: C_8  and  C_9
REMARK    5  A    between atoms: C_9  and  N_10
REMARK    6  A    between atoms: N_10  and  C_11
REMARK    7  A    between atoms: C_14  and  C_15
REMARK    8  A    between atoms: C_19  and  N_20
REMARK                            x       y       z     vdW  Elec       q    Type
REMARK                         _______ _______ _______ _____ _____    ______ ____
ROOT
ATOM      1  N   UNL     1      43.948   4.887   9.968  0.00  0.00    +0.000 N 
ATOM      2  H   UNL     1      43.347   5.406   9.336  0.00  0.00    +0.000 HD
ENDROOT
BRANCH   1   3
ATOM      3  C   UNL     1      44.816   4.093   9.170  0.00  0.00    +0.000 A 
ATOM      4  N   UNL     1      45.625   4.708   8.277  0.00  0.00    +0.000 NA
ATOM      5  C   UNL     1      46.456   3.947   7.527  0.00  0.00    +0.000 A 
ATOM      6  C   UNL     1      46.548   2.575   7.625  0.00  0.00    +0.000 A 
ATOM      7  C   UNL     1      45.726   1.942   8.564  0.00  0.00    +0.000 A 
ATOM      8  C   UNL     1      44.809   2.686   9.320  0.00  0.00    +0.000 A 
BRANCH   6   9
ATOM      9  C   UNL     1      47.461   1.755   6.792  0.00  0.00    +0.000 C 
ATOM     10  N   UNL     1      48.443   2.379   6.070  0.00  0.00    +0.000 N 
ATOM     11  O   UNL     1      47.340   0.539   6.726  0.00  0.00    +0.000 OA
ATOM     12  H   UNL     1      48.614   3.372   6.027  0.00  0.00    +0.000 HD
ATOM     13  H   UNL     1      49.025   1.783   5.496  0.00  0.00    +0.000 HD
ENDBRANCH   6   9
BRANCH   8  14
ATOM     14  N   UNL     1      44.087   2.031  10.334  0.00  0.00    +0.000 N 
ATOM     15  H   UNL     1      44.650   1.682  11.103  0.00  0.00    +0.000 HD
ATOM     16  H   UNL     1      43.398   1.374   9.988  0.00  0.00    +0.000 HD
ENDBRANCH   8  14
ENDBRANCH   1   3
BRANCH   1  17
ATOM     17  C   UNL     1      44.698   5.775  10.869  0.00  0.00    +0.000 C 
BRANCH  17  18
ATOM     18  C   UNL     1      45.371   5.002  12.009  0.00  0.00    +0.000 C 
BRANCH  18  23
ATOM     19  C   UNL     1      47.716   7.942  12.724  0.00  0.00    +0.000 A 
ATOM     20  C   UNL     1      48.358   7.490  13.883  0.00  0.00    +0.000 A 
ATOM     21  C   UNL     1      48.077   6.228  14.404  0.00  0.00    +0.000 A 
ATOM     22  C   UNL     1      47.136   5.406  13.782  0.00  0.00    +0.000 A 
ATOM     23  C   UNL     1      46.473   5.838  12.626  0.00  0.00    +0.000 A 
ATOM     24  C   UNL     1      46.777   7.105  12.101  0.00  0.00    +0.000 A 
BRANCH  19  25
ATOM     25  C   UNL     1      47.979   9.328  12.188  0.00  0.00    +0.000 C 
BRANCH  25  26
ATOM     26  N   UNL     1      47.766  10.354  13.201  0.00  0.00    +0.000 NA
ATOM     27  H   UNL     1      46.815  10.709  13.117  0.00  0.00    +0.000 HD
ATOM     28  H   UNL     1      48.384  11.140  13.002  0.00  0.00    +0.000 HD
ENDBRANCH  25  26
ENDBRANCH  19  25
ENDBRANCH  18  23
ENDBRANCH  17  18
ENDBRANCH   1  17
TORSDOF 8
ENDMDL
MODEL 4
REMARK VINA RESULT:    -7.339      1.944      3.172
REMARK INTER + INTRA:         -10.738
REMARK INTER:                 -10.776
REMARK INTRA:                   0.038
REMARK UNBOUND:                -0.396
REMARK  Name = 
REMARK  8 active torsions:
REMARK  status: ('A' for Active; 'I' for Inactive)
REMARK    1  A    between atoms: N_1  and  C_2
REMARK    2  A    between atoms: C_2  and  C_3
REMARK    3  A    between atoms: C_7  and  C_8
REMARK    4  A    between atoms: C_8  and  C_9
REMARK    5  A    between atoms: C_9  and  N_10
REMARK    6  A    between atoms: N_10  and  C_11
REMARK    7  A    between atoms: C_14  and  C_15
REMARK    8  A    between atoms: C_19  and  N_20
REMARK                            x       y       z     vdW  Elec       q    Type
REMARK                         _______ _______ _______ _____ _____    ______ ____
ROOT
ATOM      1  N   UNL     1      43.770   4.847   9.903  0.00  0.00    +0.000 N 
ATOM      2  H   UNL     1      43.756   5.764   9.468  0.00  0.00    +0.000 HD
ENDROOT
BRANCH   1   3
ATOM      3  C   UNL     1      44.683   4.042   9.168  0.00  0.00    +0.000 A 
ATOM      4  N   UNL     1      45.491   4.637   8.259  0.00  0.00    +0.000 NA
ATOM      5  C   UNL     1      46.364   3.866   7.570  0.00  0.00    +0.000 A 
ATOM      6  C   UNL     1      46.501   2.506   7.744  0.00  0.00    +0.000 A 
ATOM      7  C   UNL     1      45.681   1.896   8.700  0.00  0.00    +0.000 A 
ATOM      8  C   UNL     1      44.721   2.646   9.394  0.00  0.00    +0.000 A 
BRANCH   6   9
ATOM      9  C   UNL     1      47.460   1.676   6.977  0.00  0.00    +0.000 C 
ATOM     10  N   UNL     1      48.541   2.279   6.391  0.00  0.00    +0.000 N 
ATOM     11  O   UNL     1      47.292   0.471   6.845  0.00  0.00    +0.000 OA
ATOM     12  H   UNL     1      48.760   3.262   6.410  0.00  0.00    +0.000 HD
ATOM     13  H   UNL     1      49.154   1.677   5.856  0.00  0.00    +0.000 HD
ENDBRANCH   6   9
BRANCH   8  14
ATOM     14  N   UNL     1      44.000   2.022  10.428  0.00  0.00    +0.000 N 
ATOM     15  H   UNL     1      43.620   1.110  10.196  0.00  0.00    +0.000 HD
ATOM     16  H   UNL     1      43.349   2.637  10.904  0.00  0.00    +0.000 HD
ENDBRANCH   8  14
ENDBRANCH   1   3
BRANCH   1  17
ATOM     17  C   UNL     1      44.132   4.919  11.326  0.00  0.00    +0.000 C 
BRANCH  17  18
ATOM     18  C   UNL     1      45.587   5.357  11.528  0.00  0.00    +0.000 C 
BRANCH  18  23
ATOM     19  C   UNL     1      44.719   9.084  11.606  0.00  0.00    +0.000 A 
ATOM     20  C   UNL     1      45.594   9.537  12.601  0.00  0.00    +0.000 A 
ATOM     21  C   UNL     1      46.493   8.661  13.208  0.00  0.00    +0.000 A 
ATOM     22  C   UNL     1      46.517   7.315  12.841  0.00  0.00    +0.000 A 
ATOM     23  C   UNL     1      45.646   6.835  11.854  0.00  0.00    +0.000 A 
ATOM     24  C   UNL     1      44.758   7.730  11.237  0.00  0.00    +0.000 A 
BRANCH  19  25
ATOM     25  C   UNL     1      43.710  10.017  10.984  0.00  0.00    +0.000 C 
BRANCH  25  26
ATOM     26  N   UNL     1      43.007  10.808  11.987  0.00  0.00    +0.000 NA
ATOM     27  H   UNL     1      43.615  11.562  12.299  0.00  0.00    +0.000 HD
ATOM     28  H   UNL     1      42.835  10.220  12.802  0.00  0.00    +0.000 HD
ENDBRANCH  25  26
ENDBRANCH  19  25
ENDBRANCH  18  23
ENDBRANCH  17  18
ENDBRANCH   1  17
TORSDOF 8
ENDMDL
MODEL 5
REMARK VINA RESULT:    -7.155      1.740      2.834
REMARK INTER + INTRA:         -10.478
REMARK INTER:                  -9.806
REMARK INTRA:                  -0.673
REMARK UNBOUND:                -0.396
REMARK  Name = 
REMARK  8 active torsions:
REMARK  status: ('A' for Active; 'I' for Inactive)
REMARK    1  A    between atoms: N_1  and  C_2
REMARK    2  A    between atoms: C_2  and  C_3
REMARK    3  A    between atoms: C_7  and  C_8
REMARK    4  A    between atoms: C_8  and  C_9
REMARK    5  A    between atoms: C_9  and  N_10
REMARK    6  A    between atoms: N_10  and  C_11
REMARK    7  A    between atoms: C_14  and  C_15
REMARK    8  A    between atoms: C_19  and  N_20
REMARK                            x       y       z     vdW  Elec       q    Type
REMARK                         _______ _______ _______ _____ _____    ______ ____
ROOT
ATOM      1  N   UNL     1      43.549   4.081  10.604  0.00  0.00    +0.000 N 
ATOM      2  H   UNL     1      43.670   5.086  10.672  0.00  0.00    +0.000 HD
ENDROOT
BRANCH   1   3
ATOM      3  C   UNL     1      44.493   3.603   9.654  0.00  0.00    +0.000 A 
ATOM      4  N   UNL     1      44.437   2.305   9.277  0.00  0.00    +0.000 NA
ATOM      5  C   UNL     1      45.332   1.859   8.365  0.00  0.00    +0.000 A 
ATOM      6  C   UNL     1      46.295   2.648   7.774  0.00  0.00    +0.000 A 
ATOM      7  C   UNL     1      46.337   3.996   8.149  0.00  0.00    +0.000 A 
ATOM      8  C   UNL     1      45.468   4.487   9.134  0.00  0.00    +0.000 A 
BRANCH   6   9
ATOM      9  C   UNL     1      47.271   2.142   6.779  0.00  0.00    +0.000 C 
ATOM     10  N   UNL     1      47.396   2.791   5.580  0.00  0.00    +0.000 N 
ATOM     11  O   UNL     1      47.950   1.149   7.006  0.00  0.00    +0.000 OA
ATOM     12  H   UNL     1      46.869   3.596   5.278  0.00  0.00    +0.000 HD
ATOM     13  H   UNL     1      48.055   2.395   4.923  0.00  0.00    +0.000 HD
ENDBRANCH   6   9
BRANCH   8  14
ATOM     14  N   UNL     1      45.462   5.869   9.396  0.00  0.00    +0.000 N 
ATOM     15  H   UNL     1      46.376   6.279   9.553  0.00  0.00    +0.000 HD
ATOM     16  H   UNL     1      44.753   6.156  10.062  0.00  0.00    +0.000 HD
ENDBRANCH   8  14
ENDBRANCH   1   3
BRANCH   1  17
ATOM     17  C   UNL     1      43.708   3.419  11.908  0.00  0.00    +0.000 C 
BRANCH  17  18
ATOM     18  C   UNL     1      43.698   4.422  13.067  0.00  0.00    +0.000 C 
BRANCH  18  23
ATOM     19  C   UNL     1      46.066   7.421  12.842  0.00  0.00    +0.000 A 
ATOM     20  C   UNL     1      47.274   6.833  13.238  0.00  0.00    +0.000 A 
ATOM     21  C   UNL     1      47.339   5.470  13.526  0.00  0.00    +0.000 A 
ATOM     22  C   UNL     1      46.192   4.680  13.439  0.00  0.00    +0.000 A 
ATOM     23  C   UNL     1      44.969   5.246  13.054  0.00  0.00    +0.000 A 
ATOM     24  C   UNL     1      44.920   6.616  12.750  0.00  0.00    +0.000 A 
BRANCH  19  25
ATOM     25  C   UNL     1      45.981   8.904  12.580  0.00  0.00    +0.000 C 
BRANCH  25  26
ATOM     26  N   UNL     1      44.652   9.434  12.863  0.00  0.00    +0.000 NA
ATOM     27  H   UNL     1      44.342   9.990  12.069  0.00  0.00    +0.000 HD
ATOM     28  H   UNL     1      44.719  10.072  13.655  0.00  0.00    +0.000 HD
ENDBRANCH  25  26
ENDBRANCH  19  25
ENDBRANCH  18  23
ENDBRANCH  17  18
ENDBRANCH   1  17
TORSDOF 8
ENDMDL
MODEL 6
REMARK VINA RESULT:    -6.983      3.132      6.515
REMARK INTER + INTRA:         -10.236
REMARK INTER:                  -9.741
REMARK INTRA:                  -0.495
REMARK UNBOUND:                -0.396
REMARK  Name = 
REMARK  8 active torsions:
REMARK  status: ('A' for Active; 'I' for Inactive)
REMARK    1  A    between atoms: N_1  and  C_2
REMARK    2  A    between atoms: C_2  and  C_3
REMARK    3  A    between atoms: C_7  and  C_8
REMARK    4  A    between atoms: C_8  and  C_9
REMARK    5  A    between atoms: C_9  and  N_10
REMARK    6  A    between atoms: N_10  and  C_11
REMARK    7  A    between atoms: C_14  and  C_15
REMARK    8  A    between atoms: C_19  and  N_20
REMARK                            x       y       z     vdW  Elec       q    Type
REMARK                         _______ _______ _______ _____ _____    ______ ____
ROOT
ATOM      1  N   UNL     1      43.986   3.760  12.843  0.00  0.00    +0.000 N 
ATOM      2  H   UNL     1      44.330   3.705  13.796  0.00  0.00    +0.000 HD
ENDROOT
BRANCH   1   3
ATOM      3  C   UNL     1      44.117   5.112  12.423  0.00  0.00    +0.000 A 
ATOM      4  N   UNL     1      43.165   5.639  11.617  0.00  0.00    +0.000 NA
ATOM      5  C   UNL     1      43.291   6.930  11.228  0.00  0.00    +0.000 A 
ATOM      6  C   UNL     1      44.323   7.758  11.614  0.00  0.00    +0.000 A 
ATOM      7  C   UNL     1      45.295   7.217  12.465  0.00  0.00    +0.000 A 
ATOM      8  C   UNL     1      45.236   5.869  12.844  0.00  0.00    +0.000 A 
BRANCH   6   9
ATOM      9  C   UNL     1      44.448   9.168  11.175  0.00  0.00    +0.000 C 
ATOM     10  N   UNL     1      43.663   9.616  10.146  0.00  0.00    +0.000 N 
ATOM     11  O   UNL     1      45.249   9.928  11.702  0.00  0.00    +0.000 OA
ATOM     12  H   UNL     1      42.995   9.072   9.623  0.00  0.00    +0.000 HD
ATOM     13  H   UNL     1      43.802  10.577   9.863  0.00  0.00    +0.000 HD
ENDBRANCH   6   9
BRANCH   8  14
ATOM     14  N   UNL     1      46.162   5.397  13.792  0.00  0.00    +0.000 N 
ATOM     15  H   UNL     1      46.007   4.444  14.104  0.00  0.00    +0.000 HD
ATOM     16  H   UNL     1      46.356   6.055  14.538  0.00  0.00    +0.000 HD
ENDBRANCH   8  14
ENDBRANCH   1   3
BRANCH   1  17
ATOM     17  C   UNL     1      44.699   2.840  11.945  0.00  0.00    +0.000 C 
BRANCH  17  18
ATOM     18  C   UNL     1      44.023   2.735  10.574  0.00  0.00    +0.000 C 
BRANCH  18  23
ATOM     19  C   UNL     1      46.521   2.271   7.710  0.00  0.00    +0.000 A 
ATOM     20  C   UNL     1      46.698   3.599   7.299  0.00  0.00    +0.000 A 
ATOM     21  C   UNL     1      46.058   4.641   7.968  0.00  0.00    +0.000 A 
ATOM     22  C   UNL     1      45.219   4.369   9.049  0.00  0.00    +0.000 A 
ATOM     23  C   UNL     1      45.018   3.050   9.476  0.00  0.00    +0.000 A 
ATOM     24  C   UNL     1      45.681   2.010   8.804  0.00  0.00    +0.000 A 
BRANCH  19  25
ATOM     25  C   UNL     1      47.169   1.138   6.956  0.00  0.00    +0.000 C 
BRANCH  25  26
ATOM     26  N   UNL     1      48.359   1.572   6.233  0.00  0.00    +0.000 NA
ATOM     27  H   UNL     1      48.405   1.077   5.345  0.00  0.00    +0.000 HD
ATOM     28  H   UNL     1      49.182   1.289   6.764  0.00  0.00    +0.000 HD
ENDBRANCH  25  26
ENDBRANCH  19  25
ENDBRANCH  18  23
ENDBRANCH  17  18
ENDBRANCH   1  17
TORSDOF 8
ENDMDL
MODEL 7
REMARK VINA RESULT:    -6.555      3.484      5.562
REMARK INTER + INTRA:          -9.634
REMARK INTER:                  -9.275
REMARK INTRA:                  -0.358
REMARK UNBOUND:                -0.396
REMARK  Name = 
REMARK  8 active torsions:
REMARK  status: ('A' for Active; 'I' for Inactive)
REMARK    1  A    between atoms: N_1  and  C_2
REMARK    2  A    between atoms: C_2  and  C_3
REMARK    3  A    between atoms: C_7  and  C_8
REMARK    4  A    between atoms: C_8  and  C_9
REMARK    5  A    between atoms: C_9  and  N_10
REMARK    6  A    between atoms: N_10  and  C_11
REMARK    7  A    between atoms: C_14  and  C_15
REMARK    8  A    between atoms: C_19  and  N_20
REMARK                            x       y       z     vdW  Elec       q    Type
REMARK                         _______ _______ _______ _____ _____    ______ ____
ROOT
ATOM      1  N   UNL     1      46.054   4.647  14.850  0.00  0.00    +0.000 N 
ATOM      2  H   UNL     1      45.979   5.599  15.194  0.00  0.00    +0.000 HD
ENDROOT
BRANCH   1   3
ATOM      3  C   UNL     1      45.844   4.686  13.444  0.00  0.00    +0.000 A 
ATOM      4  N   UNL     1      45.357   3.584  12.827  0.00  0.00    +0.000 NA
ATOM      5  C   UNL     1      45.150   3.631  11.491  0.00  0.00    +0.000 A 
ATOM      6  C   UNL     1      45.387   4.741  10.709  0.00  0.00    +0.000 A 
ATOM      7  C   UNL     1      45.870   5.887  11.352  0.00  0.00    +0.000 A 
ATOM      8  C   UNL     1      46.155   5.864  12.724  0.00  0.00    +0.000 A 
BRANCH   6   9
ATOM      9  C   UNL     1      45.160   4.774   9.244  0.00  0.00    +0.000 C 
ATOM     10  N   UNL     1      43.952   4.360   8.749  0.00  0.00    +0.000 N 
ATOM     11  O   UNL     1      46.035   5.147   8.475  0.00  0.00    +0.000 OA
ATOM     12  H   UNL     1      43.175   4.007   9.286  0.00  0.00    +0.000 HD
ATOM     13  H   UNL     1      43.852   4.375   7.743  0.00  0.00    +0.000 HD
ENDBRANCH   6   9
BRANCH   8  14
ATOM     14  N   UNL     1      46.524   7.066  13.354  0.00  0.00    +0.000 N 
ATOM     15  H   UNL     1      46.680   7.848  12.727  0.00  0.00    +0.000 HD
ATOM     16  H   UNL     1      47.236   6.954  14.067  0.00  0.00    +0.000 HD
ENDBRANCH   8  14
ENDBRANCH   1   3
BRANCH   1  17
ATOM     17  C   UNL     1      47.349   4.039  15.189  0.00  0.00    +0.000 C 
BRANCH  17  18
ATOM     18  C   UNL     1      47.425   3.634  16.666  0.00  0.00    +0.000 C 
BRANCH  18  23
ATOM     19  C   UNL     1      50.958   2.431  17.518  0.00  0.00    +0.000 A 
ATOM     20  C   UNL     1      51.592   3.651  17.790  0.00  0.00    +0.000 A 
ATOM     21  C   UNL     1      50.877   4.847  17.749  0.00  0.00    +0.000 A 
ATOM     22  C   UNL     1      49.521   4.843  17.419  0.00  0.00    +0.000 A 
ATOM     23  C   UNL     1      48.865   3.638  17.135  0.00  0.00    +0.000 A 
ATOM     24  C   UNL     1      49.591   2.438  17.196  0.00  0.00    +0.000 A 
BRANCH  19  25
ATOM     25  C   UNL     1      51.739   1.141  17.510  0.00  0.00    +0.000 C 
BRANCH  25  26
ATOM     26  N   UNL     1      52.866   1.180  18.435  0.00  0.00    +0.000 NA
ATOM     27  H   UNL     1      53.729   1.067  17.908  0.00  0.00    +0.000 HD
ATOM     28  H   UNL     1      52.802   0.376  19.058  0.00  0.00    +0.000 HD
ENDBRANCH  25  26
ENDBRANCH  19  25
ENDBRANCH  18  23
ENDBRANCH  17  18
ENDBRANCH   1  17
TORSDOF 8
ENDMDL
MODEL 8
REMARK VINA RESULT:    -6.380      2.746      4.740
REMARK INTER + INTRA:          -9.387
REMARK INTER:                  -8.804
REMARK INTRA:                  -0.582
REMARK UNBOUND:                -0.396
REMARK  Name = 
REMARK  8 active torsions:
REMARK  status: ('A' for Active; 'I' for Inactive)
REMARK    1  A    between atoms: N_1  and  C_2
REMARK    2  A    between atoms: C_2  and  C_3
REMARK    3  A    between atoms: C_7  and  C_8
REMARK    4  A    between atoms: C_8  and  C_9
REMARK    5  A    between atoms: C_9  and  N_10
REMARK    6  A    between atoms: N_10  and  C_11
REMARK    7  A    between atoms: C_14  and  C_15
REMARK    8  A    between atoms: C_19  and  N_20
REMARK                            x       y       z     vdW  Elec       q    Type
REMARK                         _______ _______ _______ _____ _____    ______ ____
ROOT
ATOM      1  N   UNL     1      46.887   7.033  13.833  0.00  0.00    +0.000 N 
ATOM      2  H   UNL     1      46.766   8.000  13.551  0.00  0.00    +0.000 HD
ENDROOT
BRANCH   1   3
ATOM      3  C   UNL     1      46.234   6.224  12.863  0.00  0.00    +0.000 A 
ATOM      4  N   UNL     1      46.148   6.674  11.590  0.00  0.00    +0.000 NA
ATOM      5  C   UNL     1      45.533   5.895  10.670  0.00  0.00    +0.000 A 
ATOM      6  C   UNL     1      45.000   4.653  10.939  0.00  0.00    +0.000 A 
ATOM      7  C   UNL     1      45.109   4.179  12.252  0.00  0.00    +0.000 A 
ATOM      8  C   UNL     1      45.684   4.978  13.250  0.00  0.00    +0.000 A 
BRANCH   6   9
ATOM      9  C   UNL     1      44.325   3.814   9.919  0.00  0.00    +0.000 C 
ATOM     10  N   UNL     1      44.188   4.298   8.646  0.00  0.00    +0.000 N 
ATOM     11  O   UNL     1      43.878   2.710  10.201  0.00  0.00    +0.000 OA
ATOM     12  H   UNL     1      44.491   5.199   8.313  0.00  0.00    +0.000 HD
ATOM     13  H   UNL     1      43.698   3.702   7.991  0.00  0.00    +0.000 HD
ENDBRANCH   6   9
BRANCH   8  14
ATOM     14  N   UNL     1      45.882   4.421  14.526  0.00  0.00    +0.000 N 
ATOM     15  H   UNL     1      46.583   3.688  14.569  0.00  0.00    +0.000 HD
ATOM     16  H   UNL     1      45.022   4.207  15.018  0.00  0.00    +0.000 HD
ENDBRANCH   8  14
ENDBRANCH   1   3
BRANCH   1  17
ATOM     17  C   UNL     1      48.305   6.673  13.977  0.00  0.00    +0.000 C 
BRANCH  17  18
ATOM     18  C   UNL     1      48.935   7.305  15.223  0.00  0.00    +0.000 C 
BRANCH  18  23
ATOM     19  C   UNL     1      48.976   4.111  17.333  0.00  0.00    +0.000 A 
ATOM     20  C   UNL     1      50.308   4.100  17.767  0.00  0.00    +0.000 A 
ATOM     21  C   UNL     1      51.175   5.138  17.426  0.00  0.00    +0.000 A 
ATOM     22  C   UNL     1      50.726   6.194  16.631  0.00  0.00    +0.000 A 
ATOM     23  C   UNL     1      49.401   6.224  16.177  0.00  0.00    +0.000 A 
ATOM     24  C   UNL     1      48.533   5.182  16.541  0.00  0.00    +0.000 A 
BRANCH  19  25
ATOM     25  C   UNL     1      48.051   2.965  17.656  0.00  0.00    +0.000 C 
BRANCH  25  26
ATOM     26  N   UNL     1      46.651   3.322  17.465  0.00  0.00    +0.000 NA
ATOM     27  H   UNL     1      46.575   3.939  16.659  0.00  0.00    +0.000 HD
ATOM     28  H   UNL     1      46.341   3.863  18.271  0.00  0.00    +0.000 HD
ENDBRANCH  25  26
ENDBRANCH  19  25
ENDBRANCH  18  23
ENDBRANCH  17  18
ENDBRANCH   1  17
TORSDOF 8
ENDMDL
MODEL 9
REMARK VINA RESULT:    -6.267      4.031      7.930
REMARK INTER + INTRA:          -9.227
REMARK INTER:                  -8.829
REMARK INTRA:                  -0.398
REMARK UNBOUND:                -0.396
REMARK  Name = 
REMARK  8 active torsions:
REMARK  status: ('A' for Active; 'I' for Inactive)
REMARK    1  A    between atoms: N_1  and  C_2
REMARK    2  A    between atoms: C_2  and  C_3
REMARK    3  A    between atoms: C_7  and  C_8
REMARK    4  A    between atoms: C_8  and  C_9
REMARK    5  A    between atoms: C_9  and  N_10
REMARK    6  A    between atoms: N_10  and  C_11
REMARK    7  A    between atoms: C_14  and  C_15
REMARK    8  A    between atoms: C_19  and  N_20
REMARK                            x       y       z     vdW  Elec       q    Type
REMARK                         _______ _______ _______ _____ _____    ______ ____
ROOT
ATOM      1  N   UNL     1      47.573   4.947  16.420  0.00  0.00    +0.000 N 
ATOM      2  H   UNL     1      46.898   4.877  17.175  0.00  0.00    +0.000 HD
ENDROOT
BRANCH   1   3
ATOM      3  C   UNL     1      48.665   4.098  16.748  0.00  0.00    +0.000 A 
ATOM      4  N   UNL     1      48.614   2.798  16.376  0.00  0.00    +0.000 NA
ATOM      5  C   UNL     1      49.661   1.997  16.683  0.00  0.00    +0.000 A 
ATOM      6  C   UNL     1      50.796   2.423  17.339  0.00  0.00    +0.000 A 
ATOM      7  C   UNL     1      50.857   3.773  17.703  0.00  0.00    +0.000 A 
ATOM      8  C   UNL     1      49.770   4.624  17.458  0.00  0.00    +0.000 A 
BRANCH   6   9
ATOM      9  C   UNL     1      51.932   1.530  17.671  0.00  0.00    +0.000 C 
ATOM     10  N   UNL     1      51.674   0.248  18.074  0.00  0.00    +0.000 N 
ATOM     11  O   UNL     1      53.088   1.926  17.608  0.00  0.00    +0.000 OA
ATOM     12  H   UNL     1      50.764  -0.172  18.189  0.00  0.00    +0.000 HD
ATOM     13  H   UNL     1      52.478  -0.316  18.315  0.00  0.00    +0.000 HD
ENDBRANCH   6   9
BRANCH   8  14
ATOM     14  N   UNL     1      49.917   5.996  17.731  0.00  0.00    +0.000 N 
ATOM     15  H   UNL     1      50.696   6.445  17.261  0.00  0.00    +0.000 HD
ATOM     16  H   UNL     1      49.829   6.231  18.714  0.00  0.00    +0.000 HD
ENDBRANCH   8  14
ENDBRANCH   1   3
BRANCH   1  17
ATOM     17  C   UNL     1      46.984   4.599  15.119  0.00  0.00    +0.000 C 
BRANCH  17  18
ATOM     18  C   UNL     1      47.244   5.678  14.062  0.00  0.00    +0.000 C 
BRANCH  18  23
ATOM     19  C   UNL     1      44.489   4.298  11.791  0.00  0.00    +0.000 A 
ATOM     20  C   UNL     1      44.669   5.089  10.649  0.00  0.00    +0.000 A 
ATOM     21  C   UNL     1      45.701   6.025  10.589  0.00  0.00    +0.000 A 
ATOM     22  C   UNL     1      46.557   6.195  11.678  0.00  0.00    +0.000 A 
ATOM     23  C   UNL     1      46.393   5.422  12.835  0.00  0.00    +0.000 A 
ATOM     24  C   UNL     1      45.361   4.471  12.877  0.00  0.00    +0.000 A 
BRANCH  19  25
ATOM     25  C   UNL     1      43.342   3.322  11.879  0.00  0.00    +0.000 C 
BRANCH  25  26
ATOM     26  N   UNL     1      43.560   2.147  11.045  0.00  0.00    +0.000 NA
ATOM     27  H   UNL     1      43.429   2.406  10.069  0.00  0.00    +0.000 HD
ATOM     28  H   UNL     1      42.840   1.458  11.259  0.00  0.00    +0.000 HD
ENDBRANCH  25  26
ENDBRANCH  19  25
ENDBRANCH  18  23
ENDBRANCH  17  18
ENDBRANCH   1  17
TORSDOF 8
ENDMDL
