MODEL 1
REMARK VINA RESULT:    -7.492      0.000      0.000
REMARK INTER + INTRA:          -9.824
REMARK INTER:                  -9.243
REMARK INTRA:                  -0.580
REMARK UNBOUND:                -0.580
REMARK  Name = 
REMARK  4 active torsions:
REMARK  status: ('A' for Active; 'I' for Inactive)
REMARK    1  A    between atoms: C_5  and  N_6
REMARK    2  A    between atoms: N_6  and  C_7
REMARK    3  A    between atoms: C_7  and  C_8
REMARK    4  A    between atoms: C_12  and  C_13
REMARK                            x       y       z     vdW  Elec       q    Type
REMARK                         _______ _______ _______ _____ _____    ______ ____
ROOT
ATOM      1  C   UNL     1      45.118   5.215  12.304  0.00  0.00    +0.000 A 
ATOM      2  C   UNL     1      45.660   4.330  13.247  0.00  0.00    +0.000 A 
ATOM      3  C   UNL     1      46.950   4.504  13.735  0.00  0.00    +0.000 A 
ATOM      4  C   UNL     1      47.735   5.558  13.273  0.00  0.00    +0.000 A 
ATOM      5  C   UNL     1      47.221   6.508  12.382  0.00  0.00    +0.000 A 
ATOM      6  C   UNL     1      45.891   6.341  11.956  0.00  0.00    +0.000 A 
ENDROOT
BRANCH   5   7
ATOM      7  C   UNL     1      48.060   7.608  11.735  0.00  0.00    +0.000 C 
ATOM      8  C   UNL     1      49.583   7.501  11.936  0.00  0.00    +0.000 C 
ATOM      9  C   UNL     1      50.025   7.986  13.319  0.00  0.00    +0.000 C 
ATOM     10  N   UNL     1      49.569   9.347  13.599  0.00  0.00    +0.000 NA
ATOM     11  C   UNL     1      48.112   9.452  13.485  0.00  0.00    +0.000 C 
ATOM     12  C   UNL     1      47.615   9.036  12.103  0.00  0.00    +0.000 C 
ATOM     13  H   UNL     1      50.007   9.988  12.938  0.00  0.00    +0.000 HD
ENDBRANCH   5   7
BRANCH   1  14
ATOM     14  C   UNL     1      43.812   4.896  11.573  0.00  0.00    +0.000 C 
ATOM     15  C   UNL     1      42.523   5.315  12.274  0.00  0.00    +0.000 C 
ATOM     16  C   UNL     1      42.988   6.079  11.084  0.00  0.00    +0.000 C 
BRANCH  14  17
ATOM     17  N   UNL     1      43.798   3.630  10.819  0.00  0.00    +0.000 N 
ATOM     18  H   UNL     1      43.805   2.770  11.362  0.00  0.00    +0.000 HD
BRANCH  17  23
ATOM     19 CL   UNL     1      47.294   2.715   6.256  0.00  0.00    +0.000 Cl
ATOM     20  C   UNL     1      46.243   2.972   7.579  0.00  0.00    +0.000 A 
ATOM     21  C   UNL     1      45.832   1.946   8.411  0.00  0.00    +0.000 A 
ATOM     22  N   UNL     1      45.012   2.143   9.478  0.00  0.00    +0.000 NA
ATOM     23  C   UNL     1      44.622   3.413   9.706  0.00  0.00    +0.000 A 
ATOM     24  C   UNL     1      45.027   4.431   8.829  0.00  0.00    +0.000 A 
ATOM     25  N   UNL     1      45.847   4.246   7.761  0.00  0.00    +0.000 NA
ENDBRANCH  17  23
ENDBRANCH  14  17
ENDBRANCH   1  14
TORSDOF 4
ENDMDL
MODEL 2
REMARK VINA RESULT:    -7.220      1.296      2.186
REMARK INTER + INTRA:          -9.488
REMARK INTER:                  -9.596
REMARK INTRA:                   0.108
REMARK UNBOUND:                -0.580
REMARK  Name = 
REMARK  4 active torsions:
REMARK  status: ('A' for Active; 'I' for Inactive)
REMARK    1  A    between atoms: C_5  and  N_6
REMARK    2  A    between atoms: N_6  and  C_7
REMARK    3  A    between atoms: C_7  and  C_8
REMARK    4  A    between atoms: C_12  and  C_13
REMARK                            x       y       z     vdW  Elec       q    Type
REMARK                         _______ _______ _______ _____ _____    ______ ____
ROOT
ATOM      1  C   UNL     1      44.917   6.328  11.287  0.00  0.00    +0.000 A 
ATOM      2  C   UNL     1      44.384   7.617  11.430  0.00  0.00    +0.000 A 
ATOM      3  C   UNL     1      45.177   8.679  11.849  0.00  0.00    +0.000 A 
ATOM      4  C   UNL     1      46.520   8.469  12.155  0.00  0.00    +0.000 A 
ATOM      5  C   UNL     1      47.119   7.218  11.968  0.00  0.00    +0.000 A 
ATOM      6  C   UNL     1      46.307   6.179  11.481  0.00  0.00    +0.000 A 
ENDROOT
BRANCH   5   7
ATOM      7  C   UNL     1      48.545   6.884  12.404  0.00  0.00    +0.000 C 
ATOM      8  C   UNL     1      48.838   7.019  13.909  0.00  0.00    +0.000 C 
ATOM      9  C   UNL     1      49.056   8.473  14.333  0.00  0.00    +0.000 C 
ATOM     10  N   UNL     1      50.104   9.126  13.550  0.00  0.00    +0.000 NA
ATOM     11  C   UNL     1      49.806   9.073  12.117  0.00  0.00    +0.000 C 
ATOM     12  C   UNL     1      49.635   7.639  11.620  0.00  0.00    +0.000 C 
ATOM     13  H   UNL     1      50.993   8.660  13.727  0.00  0.00    +0.000 HD
ENDBRANCH   5   7
BRANCH   1  14
ATOM     14  C   UNL     1      44.013   5.111  11.078  0.00  0.00    +0.000 C 
ATOM     15  C   UNL     1      44.089   4.020  12.143  0.00  0.00    +0.000 C 
ATOM     16  C   UNL     1      42.891   4.904  12.086  0.00  0.00    +0.000 C 
BRANCH  14  17
ATOM     17  N   UNL     1      43.831   4.688   9.679  0.00  0.00    +0.000 N 
ATOM     18  H   UNL     1      42.915   4.328   9.421  0.00  0.00    +0.000 HD
BRANCH  17  23
ATOM     19 CL   UNL     1      47.711   1.445   6.798  0.00  0.00    +0.000 Cl
ATOM     20  C   UNL     1      46.596   2.406   7.663  0.00  0.00    +0.000 A 
ATOM     21  C   UNL     1      46.494   3.774   7.478  0.00  0.00    +0.000 A 
ATOM     22  N   UNL     1      45.596   4.546   8.147  0.00  0.00    +0.000 NA
ATOM     23  C   UNL     1      44.778   3.905   9.005  0.00  0.00    +0.000 A 
ATOM     24  C   UNL     1      44.922   2.522   9.199  0.00  0.00    +0.000 A 
ATOM     25  N   UNL     1      45.815   1.741   8.534  0.00  0.00    +0.000 NA
ENDBRANCH  17  23
ENDBRANCH  14  17
ENDBRANCH   1  14
TORSDOF 4
ENDMDL
MODEL 3
REMARK VINA RESULT:    -6.348      3.014      6.792
REMARK INTER + INTRA:          -8.413
REMARK INTER:                  -7.907
REMARK INTRA:                  -0.507
REMARK UNBOUND:                -0.580
REMARK  Name = 
REMARK  4 active torsions:
REMARK  status: ('A' for Active; 'I' for Inactive)
REMARK    1  A    between atoms: C_5  and  N_6
REMARK    2  A    between atoms: N_6  and  C_7
REMARK    3  A    between atoms: C_7  and  C_8
REMARK    4  A    between atoms: C_12  and  C_13
REMARK                            x       y       z     vdW  Elec       q    Type
REMARK                         _______ _______ _______ _____ _____    ______ ____
ROOT
ATOM      1  C   UNL     1      47.465   6.649  12.727  0.00  0.00    +0.000 A 
ATOM      2  C   UNL     1      47.508   5.911  13.918  0.00  0.00    +0.000 A 
ATOM      3  C   UNL     1      46.620   4.865  14.147  0.00  0.00    +0.000 A 
ATOM      4  C   UNL     1      45.653   4.551  13.194  0.00  0.00    +0.000 A 
ATOM      5  C   UNL     1      45.608   5.212  11.961  0.00  0.00    +0.000 A 
ATOM      6  C   UNL     1      46.561   6.221  11.733  0.00  0.00    +0.000 A 
ENDROOT
BRANCH   5   7
ATOM      7  C   UNL     1      44.501   5.010  10.927  0.00  0.00    +0.000 C 
ATOM      8  C   UNL     1      43.230   4.303  11.431  0.00  0.00    +0.000 C 
ATOM      9  C   UNL     1      43.405   2.786  11.530  0.00  0.00    +0.000 C 
ATOM     10  N   UNL     1      43.847   2.198  10.266  0.00  0.00    +0.000 NA
ATOM     11  C   UNL     1      45.098   2.807   9.807  0.00  0.00    +0.000 C 
ATOM     12  C   UNL     1      44.968   4.319   9.633  0.00  0.00    +0.000 C 
ATOM     13  H   UNL     1      43.124   2.338   9.561  0.00  0.00    +0.000 HD
ENDBRANCH   5   7
BRANCH   1  14
ATOM     14  C   UNL     1      48.255   7.950  12.569  0.00  0.00    +0.000 C 
ATOM     15  C   UNL     1      49.771   7.845  12.714  0.00  0.00    +0.000 C 
ATOM     16  C   UNL     1      49.180   8.055  11.364  0.00  0.00    +0.000 C 
BRANCH  14  17
ATOM     17  N   UNL     1      47.601   9.159  13.100  0.00  0.00    +0.000 N 
ATOM     18  H   UNL     1      47.257   9.116  14.056  0.00  0.00    +0.000 HD
BRANCH  17  23
ATOM     19 CL   UNL     1      43.665  12.093   9.974  0.00  0.00    +0.000 Cl
ATOM     20  C   UNL     1      44.811  11.248  10.918  0.00  0.00    +0.000 A 
ATOM     21  C   UNL     1      44.464  10.179  11.725  0.00  0.00    +0.000 A 
ATOM     22  N   UNL     1      45.372   9.486  12.465  0.00  0.00    +0.000 NA
ATOM     23  C   UNL     1      46.655   9.883  12.362  0.00  0.00    +0.000 A 
ATOM     24  C   UNL     1      46.977  10.990  11.561  0.00  0.00    +0.000 A 
ATOM     25  N   UNL     1      46.079  11.688  10.816  0.00  0.00    +0.000 NA
ENDBRANCH  17  23
ENDBRANCH  14  17
ENDBRANCH   1  14
TORSDOF 4
ENDMDL
MODEL 4
REMARK VINA RESULT:    -6.212      3.591      5.724
REMARK INTER + INTRA:          -8.245
REMARK INTER:                  -7.559
REMARK INTRA:                  -0.685
REMARK UNBOUND:                -0.580
REMARK  Name = 
REMARK  4 active torsions:
REMARK  status: ('A' for Active; 'I' for Inactive)
REMARK    1  A    between atoms: C_5  and  N_6
REMARK    2  A    between atoms: N_6  and  C_7
REMARK    3  A    between atoms: C_7  and  C_8
REMARK    4  A    between atoms: C_12  and  C_13
REMARK                            x       y       z     vdW  Elec       q    Type
REMARK                         _______ _______ _______ _____ _____    ______ ____
ROOT
ATOM      1  C   UNL     1      48.271   8.031  14.544  0.00  0.00    +0.000 A 
ATOM      2  C   UNL     1      48.318   9.295  15.148  0.00  0.00    +0.000 A 
ATOM      3  C   UNL     1      48.691   9.441  16.480  0.00  0.00    +0.000 A 
ATOM      4  C   UNL     1      49.005   8.318  17.243  0.00  0.00    +0.000 A 
ATOM      5  C   UNL     1      49.038   7.040  16.673  0.00  0.00    +0.000 A 
ATOM      6  C   UNL     1      48.719   6.933  15.308  0.00  0.00    +0.000 A 
ENDROOT
BRANCH   5   7
ATOM      7  C   UNL     1      49.245   5.756  17.475  0.00  0.00    +0.000 C 
ATOM      8  C   UNL     1      48.778   4.455  16.797  0.00  0.00    +0.000 C 
ATOM      9  C   UNL     1      47.263   4.260  16.888  0.00  0.00    +0.000 C 
ATOM     10  N   UNL     1      46.782   4.316  18.268  0.00  0.00    +0.000 NA
ATOM     11  C   UNL     1      47.152   5.581  18.908  0.00  0.00    +0.000 C 
ATOM     12  C   UNL     1      48.662   5.805  18.900  0.00  0.00    +0.000 C 
ATOM     13  H   UNL     1      47.183   3.541  18.794  0.00  0.00    +0.000 HD
ENDBRANCH   5   7
BRANCH   1  14
ATOM     14  C   UNL     1      47.624   7.828  13.173  0.00  0.00    +0.000 C 
ATOM     15  C   UNL     1      48.256   8.584  12.007  0.00  0.00    +0.000 C 
ATOM     16  C   UNL     1      48.454   7.112  12.116  0.00  0.00    +0.000 C 
BRANCH  14  17
ATOM     17  N   UNL     1      46.158   7.683  13.177  0.00  0.00    +0.000 N 
ATOM     18  H   UNL     1      45.655   8.101  13.956  0.00  0.00    +0.000 HD
BRANCH  17  23
ATOM     19 CL   UNL     1      43.450   2.659  12.037  0.00  0.00    +0.000 Cl
ATOM     20  C   UNL     1      44.265   4.128  12.347  0.00  0.00    +0.000 A 
ATOM     21  C   UNL     1      44.043   5.272  11.601  0.00  0.00    +0.000 A 
ATOM     22  N   UNL     1      44.672   6.452  11.852  0.00  0.00    +0.000 NA
ATOM     23  C   UNL     1      45.526   6.464  12.894  0.00  0.00    +0.000 A 
ATOM     24  C   UNL     1      45.758   5.283  13.615  0.00  0.00    +0.000 A 
ATOM     25  N   UNL     1      45.134   4.099  13.375  0.00  0.00    +0.000 NA
ENDBRANCH  17  23
ENDBRANCH  14  17
ENDBRANCH   1  14
TORSDOF 4
ENDMDL
MODEL 5
REMARK VINA RESULT:    -6.170      3.661      7.606
REMARK INTER + INTRA:          -8.193
REMARK INTER:                  -7.641
REMARK INTRA:                  -0.552
REMARK UNBOUND:                -0.580
REMARK  Name = 
REMARK  4 active torsions:
REMARK  status: ('A' for Active; 'I' for Inactive)
REMARK    1  A    between atoms: C_5  and  N_6
REMARK    2  A    between atoms: N_6  and  C_7
REMARK    3  A    between atoms: C_7  and  C_8
REMARK    4  A    between atoms: C_12  and  C_13
REMARK                            x       y       z     vdW  Elec       q    Type
REMARK                         _______ _______ _______ _____ _____    ______ ____
ROOT
ATOM      1  C   UNL     1      47.802   7.561  12.950  0.00  0.00    +0.000 A 
ATOM      2  C   UNL     1      46.835   8.561  13.126  0.00  0.00    +0.000 A 
ATOM      3  C   UNL     1      45.497   8.326  12.826  0.00  0.00    +0.000 A 
ATOM      4  C   UNL     1      45.103   7.088  12.322  0.00  0.00    +0.000 A 
ATOM      5  C   UNL     1      46.016   6.035  12.188  0.00  0.00    +0.000 A 
ATOM      6  C   UNL     1      47.348   6.284  12.561  0.00  0.00    +0.000 A 
ENDROOT
BRANCH   5   7
ATOM      7  C   UNL     1      45.683   4.700  11.524  0.00  0.00    +0.000 C 
ATOM      8  C   UNL     1      44.792   4.775  10.270  0.00  0.00    +0.000 C 
ATOM      9  C   UNL     1      43.313   4.965  10.614  0.00  0.00    +0.000 C 
ATOM     10  N   UNL     1      42.822   3.933  11.526  0.00  0.00    +0.000 NA
ATOM     11  C   UNL     1      43.612   3.895  12.760  0.00  0.00    +0.000 C 
ATOM     12  C   UNL     1      45.093   3.650  12.484  0.00  0.00    +0.000 C 
ATOM     13  H   UNL     1      42.875   3.026  11.064  0.00  0.00    +0.000 HD
ENDBRANCH   5   7
BRANCH   1  14
ATOM     14  C   UNL     1      49.297   7.879  13.029  0.00  0.00    +0.000 C 
ATOM     15  C   UNL     1      50.026   8.045  11.698  0.00  0.00    +0.000 C 
ATOM     16  C   UNL     1      49.740   9.247  12.530  0.00  0.00    +0.000 C 
BRANCH  14  17
ATOM     17  N   UNL     1      50.027   7.227  14.130  0.00  0.00    +0.000 N 
ATOM     18  H   UNL     1      50.474   6.337  13.925  0.00  0.00    +0.000 HD
BRANCH  17  23
ATOM     19 CL   UNL     1      47.737   6.779  19.462  0.00  0.00    +0.000 Cl
ATOM     20  C   UNL     1      48.438   6.903  17.909  0.00  0.00    +0.000 A 
ATOM     21  C   UNL     1      48.709   5.794  17.126  0.00  0.00    +0.000 A 
ATOM     22  N   UNL     1      49.249   5.882  15.881  0.00  0.00    +0.000 NA
ATOM     23  C   UNL     1      49.497   7.125  15.423  0.00  0.00    +0.000 A 
ATOM     24  C   UNL     1      49.242   8.232  16.248  0.00  0.00    +0.000 A 
ATOM     25  N   UNL     1      48.702   8.155  17.493  0.00  0.00    +0.000 NA
ENDBRANCH  17  23
ENDBRANCH  14  17
ENDBRANCH   1  14
TORSDOF 4
ENDMDL
MODEL 6
REMARK VINA RESULT:    -5.972      3.585      5.626
REMARK INTER + INTRA:          -7.948
REMARK INTER:                  -7.540
REMARK INTRA:                  -0.408
REMARK UNBOUND:                -0.580
REMARK  Name = 
REMARK  4 active torsions:
REMARK  status: ('A' for Active; 'I' for Inactive)
REMARK    1  A    between atoms: C_5  and  N_6
REMARK    2  A    between atoms: N_6  and  C_7
REMARK    3  A    between atoms: C_7  and  C_8
REMARK    4  A    between atoms: C_12  and  C_13
REMARK                            x       y       z     vdW  Elec       q    Type
REMARK                         _______ _______ _______ _____ _____    ______ ____
ROOT
ATOM      1  C   UNL     1      48.702   7.116  14.075  0.00  0.00    +0.000 A 
ATOM      2  C   UNL     1      49.968   7.704  13.946  0.00  0.00    +0.000 A 
ATOM      3  C   UNL     1      50.903   7.628  14.973  0.00  0.00    +0.000 A 
ATOM      4  C   UNL     1      50.581   6.978  16.162  0.00  0.00    +0.000 A 
ATOM      5  C   UNL     1      49.356   6.318  16.319  0.00  0.00    +0.000 A 
ATOM      6  C   UNL     1      48.457   6.358  15.239  0.00  0.00    +0.000 A 
ENDROOT
BRANCH   5   7
ATOM      7  C   UNL     1      48.886   5.700  17.635  0.00  0.00    +0.000 C 
ATOM      8  C   UNL     1      49.995   5.226  18.592  0.00  0.00    +0.000 C 
ATOM      9  C   UNL     1      50.587   3.877  18.178  0.00  0.00    +0.000 C 
ATOM     10  N   UNL     1      49.562   2.845  18.037  0.00  0.00    +0.000 NA
ATOM     11  C   UNL     1      48.534   3.245  17.073  0.00  0.00    +0.000 C 
ATOM     12  C   UNL     1      47.864   4.560  17.464  0.00  0.00    +0.000 C 
ATOM     13  H   UNL     1      49.127   2.679  18.944  0.00  0.00    +0.000 HD
ENDBRANCH   5   7
BRANCH   1  14
ATOM     14  C   UNL     1      47.584   7.407  13.072  0.00  0.00    +0.000 C 
ATOM     15  C   UNL     1      47.765   8.644  12.196  0.00  0.00    +0.000 C 
ATOM     16  C   UNL     1      47.935   7.293  11.595  0.00  0.00    +0.000 C 
BRANCH  14  17
ATOM     17  N   UNL     1      46.221   7.089  13.529  0.00  0.00    +0.000 N 
ATOM     18  H   UNL     1      46.043   7.152  14.528  0.00  0.00    +0.000 HD
BRANCH  17  23
ATOM     19 CL   UNL     1      43.226   2.464  11.652  0.00  0.00    +0.000 Cl
ATOM     20  C   UNL     1      44.119   3.824  12.175  0.00  0.00    +0.000 A 
ATOM     21  C   UNL     1      43.759   5.119  11.846  0.00  0.00    +0.000 A 
ATOM     22  N   UNL     1      44.452   6.210  12.273  0.00  0.00    +0.000 NA
ATOM     23  C   UNL     1      45.517   5.970  13.062  0.00  0.00    +0.000 A 
ATOM     24  C   UNL     1      45.880   4.646  13.355  0.00  0.00    +0.000 A 
ATOM     25  N   UNL     1      45.195   3.550  12.936  0.00  0.00    +0.000 NA
ENDBRANCH  17  23
ENDBRANCH  14  17
ENDBRANCH   1  14
TORSDOF 4
ENDMDL
MODEL 7
REMARK VINA RESULT:    -5.601      4.265      6.951
REMARK INTER + INTRA:          -7.491
REMARK INTER:                  -7.127
REMARK INTRA:                  -0.364
REMARK UNBOUND:                -0.580
REMARK  Name = 
REMARK  4 active torsions:
REMARK  status: ('A' for Active; 'I' for Inactive)
REMARK    1  A    between atoms: C_5  and  N_6
REMARK    2  A    between atoms: N_6  and  C_7
REMARK    3  A    between atoms: C_7  and  C_8
REMARK    4  A    between atoms: C_12  and  C_13
REMARK                            x       y       z     vdW  Elec       q    Type
REMARK                         _______ _______ _______ _____ _____    ______ ____
ROOT
ATOM      1  C   UNL     1      46.420   8.374  12.274  0.00  0.00    +0.000 A 
ATOM      2  C   UNL     1      47.376   8.021  13.237  0.00  0.00    +0.000 A 
ATOM      3  C   UNL     1      47.631   6.689  13.540  0.00  0.00    +0.000 A 
ATOM      4  C   UNL     1      46.916   5.678  12.900  0.00  0.00    +0.000 A 
ATOM      5  C   UNL     1      45.998   5.972  11.885  0.00  0.00    +0.000 A 
ATOM      6  C   UNL     1      45.809   7.325  11.555  0.00  0.00    +0.000 A 
ENDROOT
BRANCH   5   7
ATOM      7  C   UNL     1      45.089   4.930  11.235  0.00  0.00    +0.000 C 
ATOM      8  C   UNL     1      43.835   5.478  10.528  0.00  0.00    +0.000 C 
ATOM      9  C   UNL     1      42.717   5.830  11.511  0.00  0.00    +0.000 C 
ATOM     10  N   UNL     1      42.364   4.702  12.373  0.00  0.00    +0.000 NA
ATOM     11  C   UNL     1      43.530   4.214  13.112  0.00  0.00    +0.000 C 
ATOM     12  C   UNL     1      44.663   3.790  12.179  0.00  0.00    +0.000 C 
ATOM     13  H   UNL     1      41.987   3.949  11.799  0.00  0.00    +0.000 HD
ENDBRANCH   5   7
BRANCH   1  14
ATOM     14  C   UNL     1      45.949   9.821  12.113  0.00  0.00    +0.000 C 
ATOM     15  C   UNL     1      46.974  10.906  12.432  0.00  0.00    +0.000 C 
ATOM     16  C   UNL     1      46.607  10.643  11.013  0.00  0.00    +0.000 C 
BRANCH  14  17
ATOM     17  N   UNL     1      44.547  10.078  12.482  0.00  0.00    +0.000 N 
ATOM     18  H   UNL     1      44.048   9.327  12.953  0.00  0.00    +0.000 HD
BRANCH  17  23
ATOM     19 CL   UNL     1      40.706  12.561   8.883  0.00  0.00    +0.000 Cl
ATOM     20  C   UNL     1      41.857  11.845   9.922  0.00  0.00    +0.000 A 
ATOM     21  C   UNL     1      42.491  12.553  10.928  0.00  0.00    +0.000 A 
ATOM     22  N   UNL     1      43.394  11.989  11.774  0.00  0.00    +0.000 NA
ATOM     23  C   UNL     1      43.638  10.675  11.598  0.00  0.00    +0.000 A 
ATOM     24  C   UNL     1      43.006   9.986  10.551  0.00  0.00    +0.000 A 
ATOM     25  N   UNL     1      42.100  10.540   9.702  0.00  0.00    +0.000 NA
ENDBRANCH  17  23
ENDBRANCH  14  17
ENDBRANCH   1  14
TORSDOF 4
ENDMDL
MODEL 8
REMARK VINA RESULT:    -5.591      5.440      8.589
REMARK INTER + INTRA:          -7.479
REMARK INTER:                  -6.960
REMARK INTRA:                  -0.519
REMARK UNBOUND:                -0.580
REMARK  Name = 
REMARK  4 active torsions:
REMARK  status: ('A' for Active; 'I' for Inactive)
REMARK    1  A    between atoms: C_5  and  N_6
REMARK    2  A    between atoms: N_6  and  C_7
REMARK    3  A    between atoms: C_7  and  C_8
REMARK    4  A    between atoms: C_12  and  C_13
REMARK                            x       y       z     vdW  Elec       q    Type
REMARK                         _______ _______ _______ _____ _____    ______ ____
ROOT
ATOM      1  C   UNL     1      47.577   5.136  15.546  0.00  0.00    +0.000 A 
ATOM      2  C   UNL     1      48.445   6.186  15.212  0.00  0.00    +0.000 A 
ATOM      3  C   UNL     1      48.406   6.777  13.954  0.00  0.00    +0.000 A 
ATOM      4  C   UNL     1      47.509   6.315  12.994  0.00  0.00    +0.000 A 
ATOM      5  C   UNL     1      46.576   5.315  13.294  0.00  0.00    +0.000 A 
ATOM      6  C   UNL     1      46.597   4.782  14.595  0.00  0.00    +0.000 A 
ENDROOT
BRANCH   5   7
ATOM      7  C   UNL     1      45.655   4.672  12.258  0.00  0.00    +0.000 C 
ATOM      8  C   UNL     1      45.304   5.541  11.037  0.00  0.00    +0.000 C 
ATOM      9  C   UNL     1      44.220   6.575  11.348  0.00  0.00    +0.000 C 
ATOM     10  N   UNL     1      43.013   5.961  11.899  0.00  0.00    +0.000 NA
ATOM     11  C   UNL     1      43.315   5.189  13.108  0.00  0.00    +0.000 C 
ATOM     12  C   UNL     1      44.352   4.099  12.846  0.00  0.00    +0.000 C 
ATOM     13  H   UNL     1      42.602   5.345  11.199  0.00  0.00    +0.000 HD
ENDBRANCH   5   7
BRANCH   1  14
ATOM     14  C   UNL     1      47.777   4.313  16.819  0.00  0.00    +0.000 C 
ATOM     15  C   UNL     1      47.998   2.814  16.629  0.00  0.00    +0.000 C 
ATOM     16  C   UNL     1      49.146   3.677  17.022  0.00  0.00    +0.000 C 
BRANCH  14  17
ATOM     17  N   UNL     1      46.988   4.743  17.985  0.00  0.00    +0.000 N 
ATOM     18  H   UNL     1      46.042   5.071  17.807  0.00  0.00    +0.000 HD
BRANCH  17  23
ATOM     19 CL   UNL     1      49.265   8.196  22.080  0.00  0.00    +0.000 Cl
ATOM     20  C   UNL     1      48.568   7.186  20.892  0.00  0.00    +0.000 A 
ATOM     21  C   UNL     1      47.848   7.686  19.821  0.00  0.00    +0.000 A 
ATOM     22  N   UNL     1      47.305   6.892  18.860  0.00  0.00    +0.000 NA
ATOM     23  C   UNL     1      47.520   5.567  18.986  0.00  0.00    +0.000 A 
ATOM     24  C   UNL     1      48.227   5.082  20.098  0.00  0.00    +0.000 A 
ATOM     25  N   UNL     1      48.774   5.867  21.063  0.00  0.00    +0.000 NA
ENDBRANCH  17  23
ENDBRANCH  14  17
ENDBRANCH   1  14
TORSDOF 4
ENDMDL
MODEL 9
REMARK VINA RESULT:    -5.566      3.272      6.910
REMARK INTER + INTRA:          -7.448
REMARK INTER:                  -7.844
REMARK INTRA:                   0.396
REMARK UNBOUND:                -0.580
REMARK  Name = 
REMARK  4 active torsions:
REMARK  status: ('A' for Active; 'I' for Inactive)
REMARK    1  A    between atoms: C_5  and  N_6
REMARK    2  A    between atoms: N_6  and  C_7
REMARK    3  A    between atoms: C_7  and  C_8
REMARK    4  A    between atoms: C_12  and  C_13
REMARK                            x       y       z     vdW  Elec       q    Type
REMARK                         _______ _______ _______ _____ _____    ______ ____
ROOT
ATOM      1  C   UNL     1      47.017   8.063  12.643  0.00  0.00    +0.000 A 
ATOM      2  C   UNL     1      46.467   9.339  12.459  0.00  0.00    +0.000 A 
ATOM      3  C   UNL     1      45.219   9.505  11.870  0.00  0.00    +0.000 A 
ATOM      4  C   UNL     1      44.502   8.394  11.431  0.00  0.00    +0.000 A 
ATOM      5  C   UNL     1      44.974   7.094  11.649  0.00  0.00    +0.000 A 
ATOM      6  C   UNL     1      46.209   6.957  12.306  0.00  0.00    +0.000 A 
ENDROOT
BRANCH   5   7
ATOM      7  C   UNL     1      44.307   5.841  11.083  0.00  0.00    +0.000 C 
ATOM      8  C   UNL     1      42.887   5.543  11.596  0.00  0.00    +0.000 C 
ATOM      9  C   UNL     1      42.891   4.903  12.986  0.00  0.00    +0.000 C 
ATOM     10  N   UNL     1      43.715   3.696  13.037  0.00  0.00    +0.000 NA
ATOM     11  C   UNL     1      45.092   3.976  12.622  0.00  0.00    +0.000 C 
ATOM     12  C   UNL     1      45.157   4.563  11.214  0.00  0.00    +0.000 C 
ATOM     13  H   UNL     1      43.313   2.991  12.420  0.00  0.00    +0.000 HD
ENDBRANCH   5   7
BRANCH   1  14
ATOM     14  C   UNL     1      48.481   7.878  13.049  0.00  0.00    +0.000 C 
ATOM     15  C   UNL     1      49.339   7.024  12.119  0.00  0.00    +0.000 C 
ATOM     16  C   UNL     1      49.533   8.500  12.141  0.00  0.00    +0.000 C 
BRANCH  14  17
ATOM     17  N   UNL     1      48.730   7.773  14.497  0.00  0.00    +0.000 N 
ATOM     18  H   UNL     1      49.616   8.135  14.840  0.00  0.00    +0.000 HD
BRANCH  17  23
ATOM     19 CL   UNL     1      47.728   2.880  17.486  0.00  0.00    +0.000 Cl
ATOM     20  C   UNL     1      47.998   4.330  16.624  0.00  0.00    +0.000 A 
ATOM     21  C   UNL     1      48.654   5.414  17.180  0.00  0.00    +0.000 A 
ATOM     22  N   UNL     1      48.891   6.565  16.496  0.00  0.00    +0.000 NA
ATOM     23  C   UNL     1      48.466   6.600  15.218  0.00  0.00    +0.000 A 
ATOM     24  C   UNL     1      47.775   5.500  14.686  0.00  0.00    +0.000 A 
ATOM     25  N   UNL     1      47.534   4.344  15.360  0.00  0.00    +0.000 NA
ENDBRANCH  17  23
ENDBRANCH  14  17
ENDBRANCH   1  14
TORSDOF 4
ENDMDL
