MODEL 1
REMARK VINA RESULT:    -8.936      0.000      0.000
REMARK INTER + INTRA:         -12.926
REMARK INTER:                 -12.071
REMARK INTRA:                  -0.855
REMARK UNBOUND:                -0.855
REMARK  Name = 
REMARK  6 active torsions:
REMARK  status: ('A' for Active; 'I' for Inactive)
REMARK    1  A    between atoms: C_2  and  C_4
REMARK    2  A    between atoms: N_8  and  C_9
REMARK    3  A    between atoms: C_9  and  C_10
REMARK    4  A    between atoms: C_10  and  C_11
REMARK    5  A    between atoms: C_15  and  O_16
REMARK    6  A    between atoms: O_16  and  C_17
REMARK                            x       y       z     vdW  Elec       q    Type
REMARK                         _______ _______ _______ _____ _____    ______ ____
ROOT
ATOM      1  C   UNL     1      46.436   2.483   7.746  0.00  0.00    +0.000 A 
ATOM      2  C   UNL     1      45.590   1.843   8.643  0.00  0.00    +0.000 A 
ATOM      3  C   UNL     1      44.667   2.600   9.364  0.00  0.00    +0.000 A 
ATOM      4  C   UNL     1      44.621   3.982   9.197  0.00  0.00    +0.000 A 
ATOM      5  N   UNL     1      43.674   4.788   9.818  0.00  0.00    +0.000 N 
ATOM      6  N   UNL     1      45.462   4.618   8.358  0.00  0.00    +0.000 NA
ATOM      7  C   UNL     1      46.353   3.863   7.656  0.00  0.00    +0.000 A 
ATOM      8  H   UNL     1      43.957   5.753   9.660  0.00  0.00    +0.000 HD
ENDROOT
BRANCH   1  10
ATOM      9  N   UNL     1      48.493   2.442   6.459  0.00  0.00    +0.000 N 
ATOM     10  C   UNL     1      47.398   1.749   6.899  0.00  0.00    +0.000 C 
ATOM     11  O   UNL     1      47.247   0.562   6.636  0.00  0.00    +0.000 OA
ATOM     12  H   UNL     1      49.202   1.906   5.975  0.00  0.00    +0.000 HD
ATOM     13  H   UNL     1      48.772   3.326   6.859  0.00  0.00    +0.000 HD
ENDBRANCH   1  10
BRANCH   5  14
ATOM     14  C   UNL     1      43.261   4.446  11.173  0.00  0.00    +0.000 C 
BRANCH  14  15
ATOM     15  C   UNL     1      43.504   5.618  12.134  0.00  0.00    +0.000 C 
BRANCH  15  16
ATOM     16  C   UNL     1      44.931   5.610  12.635  0.00  0.00    +0.000 A 
ATOM     17  C   UNL     1      45.805   6.656  12.315  0.00  0.00    +0.000 A 
ATOM     18  C   UNL     1      47.101   6.676  12.836  0.00  0.00    +0.000 A 
ATOM     19  C   UNL     1      47.539   5.654  13.680  0.00  0.00    +0.000 A 
ATOM     20  C   UNL     1      46.679   4.607  14.001  0.00  0.00    +0.000 A 
ATOM     21  C   UNL     1      45.379   4.590  13.487  0.00  0.00    +0.000 A 
BRANCH  20  22
ATOM     22  O   UNL     1      46.987   3.573  14.849  0.00  0.00    +0.000 OA
BRANCH  22  23
ATOM     23  C   UNL     1      47.831   3.828  15.991  0.00  0.00    +0.000 C 
ATOM     24  C   UNL     1      48.545   2.609  16.623  0.00  0.00    +0.000 C 
ATOM     25  C   UNL     1      48.054   3.059  18.006  0.00  0.00    +0.000 C 
ATOM     26  C   UNL     1      47.051   3.991  17.318  0.00  0.00    +0.000 C 
ENDBRANCH  22  23
ENDBRANCH  20  22
ENDBRANCH  15  16
ENDBRANCH  14  15
ENDBRANCH   5  14
TORSDOF 6
ENDMDL
MODEL 2
REMARK VINA RESULT:    -8.188      1.905      3.347
REMARK INTER + INTRA:         -11.915
REMARK INTER:                 -10.904
REMARK INTRA:                  -1.011
REMARK UNBOUND:                -0.855
REMARK  Name = 
REMARK  6 active torsions:
REMARK  status: ('A' for Active; 'I' for Inactive)
REMARK    1  A    between atoms: C_2  and  C_4
REMARK    2  A    between atoms: N_8  and  C_9
REMARK    3  A    between atoms: C_9  and  C_10
REMARK    4  A    between atoms: C_10  and  C_11
REMARK    5  A    between atoms: C_15  and  O_16
REMARK    6  A    between atoms: O_16  and  C_17
REMARK                            x       y       z     vdW  Elec       q    Type
REMARK                         _______ _______ _______ _____ _____    ______ ____
ROOT
ATOM      1  C   UNL     1      46.363   2.312   7.820  0.00  0.00    +0.000 A 
ATOM      2  C   UNL     1      45.481   1.781   8.752  0.00  0.00    +0.000 A 
ATOM      3  C   UNL     1      44.576   2.628   9.391  0.00  0.00    +0.000 A 
ATOM      4  C   UNL     1      44.584   3.993   9.109  0.00  0.00    +0.000 A 
ATOM      5  N   UNL     1      43.659   4.881   9.644  0.00  0.00    +0.000 N 
ATOM      6  N   UNL     1      45.460   4.524   8.235  0.00  0.00    +0.000 NA
ATOM      7  C   UNL     1      46.332   3.682   7.614  0.00  0.00    +0.000 A 
ATOM      8  H   UNL     1      43.981   5.819   9.411  0.00  0.00    +0.000 HD
ENDROOT
BRANCH   1  10
ATOM      9  N   UNL     1      48.421   2.096   6.553  0.00  0.00    +0.000 N 
ATOM     10  C   UNL     1      47.309   1.475   7.055  0.00  0.00    +0.000 C 
ATOM     11  O   UNL     1      47.130   0.273   6.909  0.00  0.00    +0.000 OA
ATOM     12  H   UNL     1      49.119   1.498   6.128  0.00  0.00    +0.000 HD
ATOM     13  H   UNL     1      48.720   3.008   6.865  0.00  0.00    +0.000 HD
ENDBRANCH   1  10
BRANCH   5  14
ATOM     14  C   UNL     1      43.214   4.669  11.015  0.00  0.00    +0.000 C 
BRANCH  14  15
ATOM     15  C   UNL     1      43.526   5.892  11.890  0.00  0.00    +0.000 C 
BRANCH  15  16
ATOM     16  C   UNL     1      44.846   5.713  12.604  0.00  0.00    +0.000 A 
ATOM     17  C   UNL     1      45.296   4.437  12.965  0.00  0.00    +0.000 A 
ATOM     18  C   UNL     1      46.546   4.273  13.565  0.00  0.00    +0.000 A 
ATOM     19  C   UNL     1      47.362   5.379  13.811  0.00  0.00    +0.000 A 
ATOM     20  C   UNL     1      46.923   6.653  13.460  0.00  0.00    +0.000 A 
ATOM     21  C   UNL     1      45.675   6.817  12.853  0.00  0.00    +0.000 A 
BRANCH  20  22
ATOM     22  O   UNL     1      47.653   7.804  13.618  0.00  0.00    +0.000 OA
BRANCH  22  23
ATOM     23  C   UNL     1      49.009   7.849  13.125  0.00  0.00    +0.000 C 
ATOM     24  C   UNL     1      49.638   9.250  12.927  0.00  0.00    +0.000 C 
ATOM     25  C   UNL     1      50.084   8.832  11.519  0.00  0.00    +0.000 C 
ATOM     26  C   UNL     1      49.123   7.641  11.596  0.00  0.00    +0.000 C 
ENDBRANCH  22  23
ENDBRANCH  20  22
ENDBRANCH  15  16
ENDBRANCH  14  15
ENDBRANCH   5  14
TORSDOF 6
ENDMDL
MODEL 3
REMARK VINA RESULT:    -7.735      2.083      2.594
REMARK INTER + INTRA:         -11.304
REMARK INTER:                 -10.292
REMARK INTRA:                  -1.012
REMARK UNBOUND:                -0.855
REMARK  Name = 
REMARK  6 active torsions:
REMARK  status: ('A' for Active; 'I' for Inactive)
REMARK    1  A    between atoms: C_2  and  C_4
REMARK    2  A    between atoms: N_8  and  C_9
REMARK    3  A    between atoms: C_9  and  C_10
REMARK    4  A    between atoms: C_10  and  C_11
REMARK    5  A    between atoms: C_15  and  O_16
REMARK    6  A    between atoms: O_16  and  C_17
REMARK                            x       y       z     vdW  Elec       q    Type
REMARK                         _______ _______ _______ _____ _____    ______ ____
ROOT
ATOM      1  C   UNL     1      46.534   2.780   7.349  0.00  0.00    +0.000 A 
ATOM      2  C   UNL     1      46.027   3.957   7.885  0.00  0.00    +0.000 A 
ATOM      3  C   UNL     1      45.288   3.902   9.067  0.00  0.00    +0.000 A 
ATOM      4  C   UNL     1      45.046   2.675   9.679  0.00  0.00    +0.000 A 
ATOM      5  N   UNL     1      44.391   2.553  10.899  0.00  0.00    +0.000 N 
ATOM      6  N   UNL     1      45.501   1.523   9.148  0.00  0.00    +0.000 NA
ATOM      7  C   UNL     1      46.227   1.594   7.998  0.00  0.00    +0.000 A 
ATOM      8  H   UNL     1      44.206   1.562  11.038  0.00  0.00    +0.000 HD
ENDROOT
BRANCH   1  10
ATOM      9  N   UNL     1      48.715   2.528   6.317  0.00  0.00    +0.000 N 
ATOM     10  C   UNL     1      47.377   2.757   6.138  0.00  0.00    +0.000 C 
ATOM     11  O   UNL     1      46.899   2.896   5.019  0.00  0.00    +0.000 OA
ATOM     12  H   UNL     1      49.268   2.402   5.478  0.00  0.00    +0.000 HD
ATOM     13  H   UNL     1      49.092   2.165   7.180  0.00  0.00    +0.000 HD
ENDBRANCH   1  10
BRANCH   5  14
ATOM     14  C   UNL     1      43.291   3.465  11.183  0.00  0.00    +0.000 C 
BRANCH  14  15
ATOM     15  C   UNL     1      43.469   4.131  12.555  0.00  0.00    +0.000 C 
BRANCH  15  16
ATOM     16  C   UNL     1      44.540   5.196  12.496  0.00  0.00    +0.000 A 
ATOM     17  C   UNL     1      44.339   6.371  11.761  0.00  0.00    +0.000 A 
ATOM     18  C   UNL     1      45.303   7.380  11.764  0.00  0.00    +0.000 A 
ATOM     19  C   UNL     1      46.480   7.229  12.501  0.00  0.00    +0.000 A 
ATOM     20  C   UNL     1      46.693   6.064  13.233  0.00  0.00    +0.000 A 
ATOM     21  C   UNL     1      45.723   5.056  13.236  0.00  0.00    +0.000 A 
BRANCH  20  22
ATOM     22  O   UNL     1      47.789   5.823  14.022  0.00  0.00    +0.000 OA
BRANCH  22  23
ATOM     23  C   UNL     1      48.462   6.936  14.648  0.00  0.00    +0.000 C 
ATOM     24  C   UNL     1      49.802   7.390  14.020  0.00  0.00    +0.000 C 
ATOM     25  C   UNL     1      50.444   7.368  15.414  0.00  0.00    +0.000 C 
ATOM     26  C   UNL     1      49.252   6.550  15.922  0.00  0.00    +0.000 C 
ENDBRANCH  22  23
ENDBRANCH  20  22
ENDBRANCH  15  16
ENDBRANCH  14  15
ENDBRANCH   5  14
TORSDOF 6
ENDMDL
MODEL 4
REMARK VINA RESULT:    -6.959      3.848      8.678
REMARK INTER + INTRA:         -10.255
REMARK INTER:                  -9.580
REMARK INTRA:                  -0.675
REMARK UNBOUND:                -0.855
REMARK  Name = 
REMARK  6 active torsions:
REMARK  status: ('A' for Active; 'I' for Inactive)
REMARK    1  A    between atoms: C_2  and  C_4
REMARK    2  A    between atoms: N_8  and  C_9
REMARK    3  A    between atoms: C_9  and  C_10
REMARK    4  A    between atoms: C_10  and  C_11
REMARK    5  A    between atoms: C_15  and  O_16
REMARK    6  A    between atoms: O_16  and  C_17
REMARK                            x       y       z     vdW  Elec       q    Type
REMARK                         _______ _______ _______ _____ _____    ______ ____
ROOT
ATOM      1  C   UNL     1      48.604   4.509  18.511  0.00  0.00    +0.000 A 
ATOM      2  C   UNL     1      48.627   5.587  17.634  0.00  0.00    +0.000 A 
ATOM      3  C   UNL     1      47.968   5.481  16.410  0.00  0.00    +0.000 A 
ATOM      4  C   UNL     1      47.320   4.295  16.070  0.00  0.00    +0.000 A 
ATOM      5  N   UNL     1      46.575   4.147  14.906  0.00  0.00    +0.000 N 
ATOM      6  N   UNL     1      47.323   3.231  16.896  0.00  0.00    +0.000 NA
ATOM      7  C   UNL     1      47.965   3.353  18.091  0.00  0.00    +0.000 A 
ATOM      8  H   UNL     1      46.349   3.158  14.824  0.00  0.00    +0.000 HD
ENDROOT
BRANCH   1  10
ATOM      9  N   UNL     1      48.475   4.094  20.898  0.00  0.00    +0.000 N 
ATOM     10  C   UNL     1      49.222   4.562  19.850  0.00  0.00    +0.000 C 
ATOM     11  O   UNL     1      50.366   4.967  20.015  0.00  0.00    +0.000 OA
ATOM     12  H   UNL     1      48.944   4.028  21.793  0.00  0.00    +0.000 HD
ATOM     13  H   UNL     1      47.648   3.531  20.765  0.00  0.00    +0.000 HD
ENDBRANCH   1  10
BRANCH   5  14
ATOM     14  C   UNL     1      47.047   4.809  13.697  0.00  0.00    +0.000 C 
BRANCH  14  15
ATOM     15  C   UNL     1      46.000   5.797  13.166  0.00  0.00    +0.000 C 
BRANCH  15  16
ATOM     16  C   UNL     1      45.202   5.177  12.041  0.00  0.00    +0.000 A 
ATOM     17  C   UNL     1      43.893   4.729  12.257  0.00  0.00    +0.000 A 
ATOM     18  C   UNL     1      43.139   4.219  11.199  0.00  0.00    +0.000 A 
ATOM     19  C   UNL     1      43.680   4.149   9.914  0.00  0.00    +0.000 A 
ATOM     20  C   UNL     1      44.983   4.588   9.689  0.00  0.00    +0.000 A 
ATOM     21  C   UNL     1      45.736   5.107  10.746  0.00  0.00    +0.000 A 
BRANCH  20  22
ATOM     22  O   UNL     1      45.604   4.605   8.465  0.00  0.00    +0.000 OA
BRANCH  22  23
ATOM     23  C   UNL     1      45.581   3.413   7.650  0.00  0.00    +0.000 C 
ATOM     24  C   UNL     1      46.237   2.143   8.244  0.00  0.00    +0.000 C 
ATOM     25  C   UNL     1      47.012   1.951   6.934  0.00  0.00    +0.000 C 
ATOM     26  C   UNL     1      46.667   3.392   6.547  0.00  0.00    +0.000 C 
ENDBRANCH  22  23
ENDBRANCH  20  22
ENDBRANCH  15  16
ENDBRANCH  14  15
ENDBRANCH   5  14
TORSDOF 6
ENDMDL
MODEL 5
REMARK VINA RESULT:    -6.898      2.983      7.568
REMARK INTER + INTRA:         -10.173
REMARK INTER:                  -9.313
REMARK INTRA:                  -0.861
REMARK UNBOUND:                -0.855
REMARK  Name = 
REMARK  6 active torsions:
REMARK  status: ('A' for Active; 'I' for Inactive)
REMARK    1  A    between atoms: C_2  and  C_4
REMARK    2  A    between atoms: N_8  and  C_9
REMARK    3  A    between atoms: C_9  and  C_10
REMARK    4  A    between atoms: C_10  and  C_11
REMARK    5  A    between atoms: C_15  and  O_16
REMARK    6  A    between atoms: O_16  and  C_17
REMARK                            x       y       z     vdW  Elec       q    Type
REMARK                         _______ _______ _______ _____ _____    ______ ____
ROOT
ATOM      1  C   UNL     1      47.947   4.083  15.985  0.00  0.00    +0.000 A 
ATOM      2  C   UNL     1      46.988   3.752  15.035  0.00  0.00    +0.000 A 
ATOM      3  C   UNL     1      46.665   4.679  14.045  0.00  0.00    +0.000 A 
ATOM      4  C   UNL     1      47.283   5.927  14.033  0.00  0.00    +0.000 A 
ATOM      5  N   UNL     1      47.072   6.866  13.031  0.00  0.00    +0.000 N 
ATOM      6  N   UNL     1      48.187   6.273  14.970  0.00  0.00    +0.000 NA
ATOM      7  C   UNL     1      48.497   5.354  15.926  0.00  0.00    +0.000 A 
ATOM      8  H   UNL     1      47.508   7.733  13.340  0.00  0.00    +0.000 HD
ENDROOT
BRANCH   1  10
ATOM      9  N   UNL     1      47.492   2.831  18.013  0.00  0.00    +0.000 N 
ATOM     10  C   UNL     1      48.392   3.137  17.028  0.00  0.00    +0.000 C 
ATOM     11  O   UNL     1      49.499   2.617  16.993  0.00  0.00    +0.000 OA
ATOM     12  H   UNL     1      47.761   2.100  18.659  0.00  0.00    +0.000 HD
ATOM     13  H   UNL     1      46.507   3.040  17.932  0.00  0.00    +0.000 HD
ENDBRANCH   1  10
BRANCH   5  14
ATOM     14  C   UNL     1      45.734   6.979  12.463  0.00  0.00    +0.000 C 
BRANCH  14  15
ATOM     15  C   UNL     1      45.739   6.625  10.970  0.00  0.00    +0.000 C 
BRANCH  15  16
ATOM     16  C   UNL     1      45.173   5.240  10.748  0.00  0.00    +0.000 A 
ATOM     17  C   UNL     1      44.305   4.666  11.685  0.00  0.00    +0.000 A 
ATOM     18  C   UNL     1      43.733   3.416  11.443  0.00  0.00    +0.000 A 
ATOM     19  C   UNL     1      44.019   2.723  10.265  0.00  0.00    +0.000 A 
ATOM     20  C   UNL     1      44.884   3.283   9.328  0.00  0.00    +0.000 A 
ATOM     21  C   UNL     1      45.451   4.539   9.566  0.00  0.00    +0.000 A 
BRANCH  20  22
ATOM     22  O   UNL     1      45.207   2.715   8.122  0.00  0.00    +0.000 OA
BRANCH  22  23
ATOM     23  C   UNL     1      46.549   2.864   7.612  0.00  0.00    +0.000 C 
ATOM     24  C   UNL     1      46.695   3.304   6.135  0.00  0.00    +0.000 C 
ATOM     25  C   UNL     1      47.689   2.158   5.908  0.00  0.00    +0.000 C 
ATOM     26  C   UNL     1      47.220   1.524   7.222  0.00  0.00    +0.000 C 
ENDBRANCH  22  23
ENDBRANCH  20  22
ENDBRANCH  15  16
ENDBRANCH  14  15
ENDBRANCH   5  14
TORSDOF 6
ENDMDL
MODEL 6
REMARK VINA RESULT:    -6.475      4.209      7.703
REMARK INTER + INTRA:          -9.601
REMARK INTER:                  -8.647
REMARK INTRA:                  -0.955
REMARK UNBOUND:                -0.855
REMARK  Name = 
REMARK  6 active torsions:
REMARK  status: ('A' for Active; 'I' for Inactive)
REMARK    1  A    between atoms: C_2  and  C_4
REMARK    2  A    between atoms: N_8  and  C_9
REMARK    3  A    between atoms: C_9  and  C_10
REMARK    4  A    between atoms: C_10  and  C_11
REMARK    5  A    between atoms: C_15  and  O_16
REMARK    6  A    between atoms: O_16  and  C_17
REMARK                            x       y       z     vdW  Elec       q    Type
REMARK                         _______ _______ _______ _____ _____    ______ ____
ROOT
ATOM      1  C   UNL     1      43.950  10.867  11.189  0.00  0.00    +0.000 A 
ATOM      2  C   UNL     1      43.716   9.504  11.055  0.00  0.00    +0.000 A 
ATOM      3  C   UNL     1      44.701   8.603  11.460  0.00  0.00    +0.000 A 
ATOM      4  C   UNL     1      45.909   9.076  11.967  0.00  0.00    +0.000 A 
ATOM      5  N   UNL     1      46.899   8.239  12.466  0.00  0.00    +0.000 N 
ATOM      6  N   UNL     1      46.161  10.395  12.067  0.00  0.00    +0.000 NA
ATOM      7  C   UNL     1      45.187  11.262  11.674  0.00  0.00    +0.000 A 
ATOM      8  H   UNL     1      47.725   8.815  12.619  0.00  0.00    +0.000 HD
ENDROOT
BRANCH   1  10
ATOM      9  N   UNL     1      42.213  12.415  11.876  0.00  0.00    +0.000 N 
ATOM     10  C   UNL     1      42.937  11.884  10.843  0.00  0.00    +0.000 C 
ATOM     11  O   UNL     1      42.779  12.267   9.691  0.00  0.00    +0.000 OA
ATOM     12  H   UNL     1      41.601  13.189  11.648  0.00  0.00    +0.000 HD
ATOM     13  H   UNL     1      42.488  12.310  12.842  0.00  0.00    +0.000 HD
ENDBRANCH   1  10
BRANCH   5  14
ATOM     14  C   UNL     1      47.116   6.957  11.806  0.00  0.00    +0.000 C 
BRANCH  14  15
ATOM     15  C   UNL     1      46.756   5.791  12.737  0.00  0.00    +0.000 C 
BRANCH  15  16
ATOM     16  C   UNL     1      45.603   4.993  12.170  0.00  0.00    +0.000 A 
ATOM     17  C   UNL     1      44.679   4.373  13.020  0.00  0.00    +0.000 A 
ATOM     18  C   UNL     1      43.580   3.694  12.492  0.00  0.00    +0.000 A 
ATOM     19  C   UNL     1      43.389   3.626  11.110  0.00  0.00    +0.000 A 
ATOM     20  C   UNL     1      44.304   4.235  10.255  0.00  0.00    +0.000 A 
ATOM     21  C   UNL     1      45.401   4.922  10.785  0.00  0.00    +0.000 A 
BRANCH  20  22
ATOM     22  O   UNL     1      44.198   4.267   8.888  0.00  0.00    +0.000 OA
BRANCH  22  23
ATOM     23  C   UNL     1      44.650   3.130   8.122  0.00  0.00    +0.000 C 
ATOM     24  C   UNL     1      45.365   1.998   8.899  0.00  0.00    +0.000 C 
ATOM     25  C   UNL     1      46.494   2.021   7.861  0.00  0.00    +0.000 C 
ATOM     26  C   UNL     1      45.978   3.375   7.365  0.00  0.00    +0.000 C 
ENDBRANCH  22  23
ENDBRANCH  20  22
ENDBRANCH  15  16
ENDBRANCH  14  15
ENDBRANCH   5  14
TORSDOF 6
ENDMDL
MODEL 7
REMARK VINA RESULT:    -6.251      3.976      7.696
REMARK INTER + INTRA:          -9.299
REMARK INTER:                  -8.660
REMARK INTRA:                  -0.639
REMARK UNBOUND:                -0.855
REMARK  Name = 
REMARK  6 active torsions:
REMARK  status: ('A' for Active; 'I' for Inactive)
REMARK    1  A    between atoms: C_2  and  C_4
REMARK    2  A    between atoms: N_8  and  C_9
REMARK    3  A    between atoms: C_9  and  C_10
REMARK    4  A    between atoms: C_10  and  C_11
REMARK    5  A    between atoms: C_15  and  O_16
REMARK    6  A    between atoms: O_16  and  C_17
REMARK                            x       y       z     vdW  Elec       q    Type
REMARK                         _______ _______ _______ _____ _____    ______ ____
ROOT
ATOM      1  C   UNL     1      49.600   8.630  12.984  0.00  0.00    +0.000 A 
ATOM      2  C   UNL     1      49.128   7.741  12.026  0.00  0.00    +0.000 A 
ATOM      3  C   UNL     1      47.790   7.350  12.063  0.00  0.00    +0.000 A 
ATOM      4  C   UNL     1      46.953   7.829  13.069  0.00  0.00    +0.000 A 
ATOM      5  N   UNL     1      45.594   7.548  13.120  0.00  0.00    +0.000 N 
ATOM      6  N   UNL     1      47.410   8.662  14.024  0.00  0.00    +0.000 NA
ATOM      7  C   UNL     1      48.717   9.041  13.970  0.00  0.00    +0.000 A 
ATOM      8  H   UNL     1      45.257   7.879  14.022  0.00  0.00    +0.000 HD
ENDROOT
BRANCH   1  10
ATOM      9  N   UNL     1      51.147  10.493  13.132  0.00  0.00    +0.000 N 
ATOM     10  C   UNL     1      50.985   9.142  12.977  0.00  0.00    +0.000 C 
ATOM     11  O   UNL     1      51.947   8.392  12.880  0.00  0.00    +0.000 OA
ATOM     12  H   UNL     1      52.098  10.824  13.240  0.00  0.00    +0.000 HD
ATOM     13  H   UNL     1      50.406  11.094  13.462  0.00  0.00    +0.000 HD
ENDBRANCH   1  10
BRANCH   5  14
ATOM     14  C   UNL     1      45.147   6.224  12.705  0.00  0.00    +0.000 C 
BRANCH  14  15
ATOM     15  C   UNL     1      44.565   6.259  11.286  0.00  0.00    +0.000 C 
BRANCH  15  16
ATOM     16  C   UNL     1      44.529   4.870  10.689  0.00  0.00    +0.000 A 
ATOM     17  C   UNL     1      44.060   3.784  11.438  0.00  0.00    +0.000 A 
ATOM     18  C   UNL     1      43.965   2.517  10.861  0.00  0.00    +0.000 A 
ATOM     19  C   UNL     1      44.338   2.318   9.530  0.00  0.00    +0.000 A 
ATOM     20  C   UNL     1      44.810   3.390   8.777  0.00  0.00    +0.000 A 
ATOM     21  C   UNL     1      44.897   4.661   9.353  0.00  0.00    +0.000 A 
BRANCH  20  22
ATOM     22  O   UNL     1      45.167   3.321   7.454  0.00  0.00    +0.000 OA
BRANCH  22  23
ATOM     23  C   UNL     1      46.566   3.265   7.105  0.00  0.00    +0.000 C 
ATOM     24  C   UNL     1      46.912   3.173   5.599  0.00  0.00    +0.000 C 
ATOM     25  C   UNL     1      47.855   2.002   5.905  0.00  0.00    +0.000 C 
ATOM     26  C   UNL     1      47.196   1.862   7.280  0.00  0.00    +0.000 C 
ENDBRANCH  22  23
ENDBRANCH  20  22
ENDBRANCH  15  16
ENDBRANCH  14  15
ENDBRANCH   5  14
TORSDOF 6
ENDMDL
MODEL 8
REMARK VINA RESULT:    -6.105      3.699      5.259
REMARK INTER + INTRA:          -9.101
REMARK INTER:                  -7.703
REMARK INTRA:                  -1.398
REMARK UNBOUND:                -0.855
REMARK  Name = 
REMARK  6 active torsions:
REMARK  status: ('A' for Active; 'I' for Inactive)
REMARK    1  A    between atoms: C_2  and  C_4
REMARK    2  A    between atoms: N_8  and  C_9
REMARK    3  A    between atoms: C_9  and  C_10
REMARK    4  A    between atoms: C_10  and  C_11
REMARK    5  A    between atoms: C_15  and  O_16
REMARK    6  A    between atoms: O_16  and  C_17
REMARK                            x       y       z     vdW  Elec       q    Type
REMARK                         _______ _______ _______ _____ _____    ______ ____
ROOT
ATOM      1  C   UNL     1      44.911   4.950  12.607  0.00  0.00    +0.000 A 
ATOM      2  C   UNL     1      45.982   5.035  13.488  0.00  0.00    +0.000 A 
ATOM      3  C   UNL     1      47.017   5.929  13.215  0.00  0.00    +0.000 A 
ATOM      4  C   UNL     1      46.979   6.703  12.057  0.00  0.00    +0.000 A 
ATOM      5  N   UNL     1      47.930   7.672  11.764  0.00  0.00    +0.000 N 
ATOM      6  N   UNL     1      45.963   6.603  11.178  0.00  0.00    +0.000 NA
ATOM      7  C   UNL     1      44.957   5.730  11.462  0.00  0.00    +0.000 A 
ATOM      8  H   UNL     1      47.762   7.971  10.805  0.00  0.00    +0.000 HD
ENDROOT
BRANCH   1  10
ATOM      9  N   UNL     1      43.915   2.738  12.620  0.00  0.00    +0.000 N 
ATOM     10  C   UNL     1      43.747   4.076  12.854  0.00  0.00    +0.000 C 
ATOM     11  O   UNL     1      42.691   4.519  13.288  0.00  0.00    +0.000 OA
ATOM     12  H   UNL     1      43.152   2.132  12.897  0.00  0.00    +0.000 HD
ATOM     13  H   UNL     1      44.825   2.317  12.509  0.00  0.00    +0.000 HD
ENDBRANCH   1  10
BRANCH   5  14
ATOM     14  C   UNL     1      49.317   7.409  12.129  0.00  0.00    +0.000 C 
BRANCH  14  15
ATOM     15  C   UNL     1      49.864   8.515  13.042  0.00  0.00    +0.000 C 
BRANCH  15  16
ATOM     16  C   UNL     1      49.533   8.225  14.488  0.00  0.00    +0.000 A 
ATOM     17  C   UNL     1      48.760   9.121  15.237  0.00  0.00    +0.000 A 
ATOM     18  C   UNL     1      48.401   8.816  16.551  0.00  0.00    +0.000 A 
ATOM     19  C   UNL     1      48.809   7.615  17.134  0.00  0.00    +0.000 A 
ATOM     20  C   UNL     1      49.581   6.718  16.400  0.00  0.00    +0.000 A 
ATOM     21  C   UNL     1      49.934   7.019  15.081  0.00  0.00    +0.000 A 
BRANCH  20  22
ATOM     22  O   UNL     1      50.005   5.495  16.854  0.00  0.00    +0.000 OA
BRANCH  22  23
ATOM     23  C   UNL     1      49.053   4.611  17.485  0.00  0.00    +0.000 C 
ATOM     24  C   UNL     1      49.419   3.108  17.541  0.00  0.00    +0.000 C 
ATOM     25  C   UNL     1      48.028   2.766  16.991  0.00  0.00    +0.000 C 
ATOM     26  C   UNL     1      47.859   4.231  16.577  0.00  0.00    +0.000 C 
ENDBRANCH  22  23
ENDBRANCH  20  22
ENDBRANCH  15  16
ENDBRANCH  14  15
ENDBRANCH   5  14
TORSDOF 6
ENDMDL
MODEL 9
REMARK VINA RESULT:    -6.042      4.071      6.819
REMARK INTER + INTRA:          -9.017
REMARK INTER:                  -7.897
REMARK INTRA:                  -1.120
REMARK UNBOUND:                -0.855
REMARK  Name = 
REMARK  6 active torsions:
REMARK  status: ('A' for Active; 'I' for Inactive)
REMARK    1  A    between atoms: C_2  and  C_4
REMARK    2  A    between atoms: N_8  and  C_9
REMARK    3  A    between atoms: C_9  and  C_10
REMARK    4  A    between atoms: C_10  and  C_11
REMARK    5  A    between atoms: C_15  and  O_16
REMARK    6  A    between atoms: O_16  and  C_17
REMARK                            x       y       z     vdW  Elec       q    Type
REMARK                         _______ _______ _______ _____ _____    ______ ____
ROOT
ATOM      1  C   UNL     1      44.966   4.669  11.280  0.00  0.00    +0.000 A 
ATOM      2  C   UNL     1      45.486   5.916  10.956  0.00  0.00    +0.000 A 
ATOM      3  C   UNL     1      46.475   6.472  11.766  0.00  0.00    +0.000 A 
ATOM      4  C   UNL     1      46.911   5.787  12.898  0.00  0.00    +0.000 A 
ATOM      5  N   UNL     1      47.949   6.240  13.703  0.00  0.00    +0.000 N 
ATOM      6  N   UNL     1      46.388   4.595  13.243  0.00  0.00    +0.000 NA
ATOM      7  C   UNL     1      45.428   4.062  12.437  0.00  0.00    +0.000 A 
ATOM      8  H   UNL     1      47.958   5.652  14.534  0.00  0.00    +0.000 HD
ENDROOT
BRANCH   1  10
ATOM      9  N   UNL     1      43.906   4.345   9.121  0.00  0.00    +0.000 N 
ATOM     10  C   UNL     1      43.963   3.984  10.441  0.00  0.00    +0.000 C 
ATOM     11  O   UNL     1      43.242   3.104  10.892  0.00  0.00    +0.000 OA
ATOM     12  H   UNL     1      43.297   3.796   8.529  0.00  0.00    +0.000 HD
ATOM     13  H   UNL     1      44.641   4.871   8.671  0.00  0.00    +0.000 HD
ENDBRANCH   1  10
BRANCH   5  14
ATOM     14  C   UNL     1      48.075   7.675  13.923  0.00  0.00    +0.000 C 
BRANCH  14  15
ATOM     15  C   UNL     1      49.164   8.276  13.024  0.00  0.00    +0.000 C 
BRANCH  15  16
ATOM     16  C   UNL     1      48.632   9.473  12.269  0.00  0.00    +0.000 A 
ATOM     17  C   UNL     1      49.444  10.163  11.360  0.00  0.00    +0.000 A 
ATOM     18  C   UNL     1      48.928  11.225  10.617  0.00  0.00    +0.000 A 
ATOM     19  C   UNL     1      47.595  11.613  10.771  0.00  0.00    +0.000 A 
ATOM     20  C   UNL     1      46.779  10.938  11.675  0.00  0.00    +0.000 A 
ATOM     21  C   UNL     1      47.295   9.868  12.414  0.00  0.00    +0.000 A 
BRANCH  20  22
ATOM     22  O   UNL     1      45.449  11.204  11.882  0.00  0.00    +0.000 OA
BRANCH  22  23
ATOM     23  C   UNL     1      44.504  10.917  10.829  0.00  0.00    +0.000 C 
ATOM     24  C   UNL     1      43.043  11.376  11.053  0.00  0.00    +0.000 C 
ATOM     25  C   UNL     1      42.559   9.976  10.654  0.00  0.00    +0.000 C 
ATOM     26  C   UNL     1      43.989   9.458  10.835  0.00  0.00    +0.000 C 
ENDBRANCH  22  23
ENDBRANCH  20  22
ENDBRANCH  15  16
ENDBRANCH  14  15
ENDBRANCH   5  14
TORSDOF 6
ENDMDL
