MODEL 1
REMARK VINA RESULT:    -6.857      0.000      0.000
REMARK INTER + INTRA:          -9.806
REMARK INTER:                  -8.861
REMARK INTRA:                  -0.945
REMARK UNBOUND:                -0.945
REMARK  Name = 
REMARK  6 active torsions:
REMARK  status: ('A' for Active; 'I' for Inactive)
REMARK    1  A    between atoms: C_1  and  C_2
REMARK    2  A    between atoms: C_2  and  N_3
REMARK    3  A    between atoms: C_2  and  C_16
REMARK    4  A    between atoms: C_4  and  C_6
REMARK    5  A    between atoms: C_19  and  C_20
REMARK    6  A    between atoms: C_20  and  N_21
REMARK                            x       y       z     vdW  Elec       q    Type
REMARK                         _______ _______ _______ _____ _____    ______ ____
ROOT
ATOM      1  C   UNL     1      50.136   8.113  15.669  0.00  0.00    +0.000 C 
ATOM      2  C   UNL     1      49.437   6.894  16.274  0.00  0.00    +0.000 C 
ENDROOT
BRANCH   2   3
ATOM      3  C   UNL     1      48.456   6.168  15.363  0.00  0.00    +0.000 A 
ATOM      4  C   UNL     1      47.800   5.039  15.881  0.00  0.00    +0.000 A 
ATOM      5  C   UNL     1      46.938   4.269  15.095  0.00  0.00    +0.000 A 
ATOM      6  C   UNL     1      46.688   4.600  13.758  0.00  0.00    +0.000 A 
ATOM      7  C   UNL     1      47.335   5.731  13.234  0.00  0.00    +0.000 A 
ATOM      8  C   UNL     1      48.213   6.502  14.024  0.00  0.00    +0.000 A 
BRANCH   6   9
ATOM      9  C   UNL     1      45.868   3.668  12.889  0.00  0.00    +0.000 C 
BRANCH   9  10
ATOM     10  N   UNL     1      44.421   3.837  12.779  0.00  0.00    +0.000 NA
ATOM     11  C   UNL     1      43.751   3.163  11.665  0.00  0.00    +0.000 C 
ATOM     12  C   UNL     1      43.602   4.017  10.397  0.00  0.00    +0.000 C 
ATOM     13  O   UNL     1      43.022   5.298  10.672  0.00  0.00    +0.000 OA
ATOM     14  C   UNL     1      43.768   6.005  11.672  0.00  0.00    +0.000 C 
ATOM     15  C   UNL     1      43.885   5.188  12.966  0.00  0.00    +0.000 C 
ENDBRANCH   9  10
ENDBRANCH   6   9
ENDBRANCH   2   3
BRANCH   2  16
ATOM     16  N   UNL     1      50.424   5.946  16.766  0.00  0.00    +0.000 N 
ATOM     17  C   UNL     1      50.454   5.517  18.067  0.00  0.00    +0.000 C 
ATOM     18  O   UNL     1      49.592   5.835  18.884  0.00  0.00    +0.000 OA
ATOM     19  H   UNL     1      51.228   5.783  16.169  0.00  0.00    +0.000 HD
BRANCH  17  20
ATOM     20  C   UNL     1      51.543   4.603  18.430  0.00  0.00    +0.000 A 
ATOM     21  C   UNL     1      52.607   5.065  19.191  0.00  0.00    +0.000 A 
ATOM     22  S   UNL     1      53.780   3.873  19.525  0.00  0.00    +0.000 S 
ATOM     23  C   UNL     1      52.933   2.708  18.617  0.00  0.00    +0.000 A 
ATOM     24  N   UNL     1      53.429   1.451  18.451  0.00  0.00    +0.000 NA
ATOM     25  C   UNL     1      52.702   0.685  17.712  0.00  0.00    +0.000 A 
ATOM     26  N   UNL     1      51.518   1.056  17.128  0.00  0.00    +0.000 N 
ATOM     27  C   UNL     1      50.955   2.297  17.309  0.00  0.00    +0.000 A 
ATOM     28  O   UNL     1      49.851   2.570  16.845  0.00  0.00    +0.000 OA
ATOM     29  C   UNL     1      51.751   3.212  18.101  0.00  0.00    +0.000 A 
ATOM     30  H   UNL     1      50.988   0.399  16.577  0.00  0.00    +0.000 HD
ENDBRANCH  17  20
ENDBRANCH   2  16
TORSDOF 5
ENDMDL
MODEL 2
REMARK VINA RESULT:    -6.748      2.899      3.780
REMARK INTER + INTRA:          -9.666
REMARK INTER:                  -8.521
REMARK INTRA:                  -1.145
REMARK UNBOUND:                -0.945
REMARK  Name = 
REMARK  6 active torsions:
REMARK  status: ('A' for Active; 'I' for Inactive)
REMARK    1  A    between atoms: C_1  and  C_2
REMARK    2  A    between atoms: C_2  and  N_3
REMARK    3  A    between atoms: C_2  and  C_16
REMARK    4  A    between atoms: C_4  and  C_6
REMARK    5  A    between atoms: C_19  and  C_20
REMARK    6  A    between atoms: C_20  and  N_21
REMARK                            x       y       z     vdW  Elec       q    Type
REMARK                         _______ _______ _______ _____ _____    ______ ____
ROOT
ATOM      1  C   UNL     1      50.064   7.849  12.309  0.00  0.00    +0.000 C 
ATOM      2  C   UNL     1      48.820   7.952  13.193  0.00  0.00    +0.000 C 
ENDROOT
BRANCH   2   3
ATOM      3  C   UNL     1      47.494   7.618  12.522  0.00  0.00    +0.000 A 
ATOM      4  C   UNL     1      46.343   8.269  12.994  0.00  0.00    +0.000 A 
ATOM      5  C   UNL     1      45.075   7.973  12.487  0.00  0.00    +0.000 A 
ATOM      6  C   UNL     1      44.904   7.017  11.479  0.00  0.00    +0.000 A 
ATOM      7  C   UNL     1      46.051   6.365  10.996  0.00  0.00    +0.000 A 
ATOM      8  C   UNL     1      47.330   6.657  11.516  0.00  0.00    +0.000 A 
BRANCH   6   9
ATOM      9  C   UNL     1      43.508   6.610  11.052  0.00  0.00    +0.000 C 
BRANCH   9  10
ATOM     10  N   UNL     1      42.932   5.346  11.505  0.00  0.00    +0.000 NA
ATOM     11  C   UNL     1      42.912   5.098  12.948  0.00  0.00    +0.000 C 
ATOM     12  C   UNL     1      44.134   4.338  13.484  0.00  0.00    +0.000 C 
ATOM     13  O   UNL     1      44.395   3.141  12.741  0.00  0.00    +0.000 OA
ATOM     14  C   UNL     1      44.546   3.417  11.342  0.00  0.00    +0.000 C 
ATOM     15  C   UNL     1      43.312   4.133  10.776  0.00  0.00    +0.000 C 
ENDBRANCH   9  10
ENDBRANCH   6   9
ENDBRANCH   2   3
BRANCH   2  16
ATOM     16  N   UNL     1      48.979   7.121  14.376  0.00  0.00    +0.000 N 
ATOM     17  C   UNL     1      48.798   7.600  15.647  0.00  0.00    +0.000 C 
ATOM     18  O   UNL     1      48.399   8.742  15.869  0.00  0.00    +0.000 OA
ATOM     19  H   UNL     1      49.448   6.231  14.241  0.00  0.00    +0.000 HD
BRANCH  17  20
ATOM     20  C   UNL     1      49.048   6.658  16.744  0.00  0.00    +0.000 A 
ATOM     21  C   UNL     1      49.940   6.995  17.752  0.00  0.00    +0.000 A 
ATOM     22  S   UNL     1      50.111   5.790  18.947  0.00  0.00    +0.000 S 
ATOM     23  C   UNL     1      49.036   4.751  18.131  0.00  0.00    +0.000 A 
ATOM     24  N   UNL     1      48.771   3.503  18.604  0.00  0.00    +0.000 NA
ATOM     25  C   UNL     1      47.969   2.813  17.868  0.00  0.00    +0.000 A 
ATOM     26  N   UNL     1      47.400   3.259  16.703  0.00  0.00    +0.000 N 
ATOM     27  C   UNL     1      47.600   4.528  16.213  0.00  0.00    +0.000 A 
ATOM     28  O   UNL     1      47.007   4.927  15.214  0.00  0.00    +0.000 OA
ATOM     29  C   UNL     1      48.525   5.334  16.984  0.00  0.00    +0.000 A 
ATOM     30  H   UNL     1      46.764   2.673  16.184  0.00  0.00    +0.000 HD
ENDBRANCH  17  20
ENDBRANCH   2  16
TORSDOF 5
ENDMDL
MODEL 3
REMARK VINA RESULT:    -6.330      3.949      5.964
REMARK INTER + INTRA:          -9.125
REMARK INTER:                  -8.311
REMARK INTRA:                  -0.814
REMARK UNBOUND:                -0.945
REMARK  Name = 
REMARK  6 active torsions:
REMARK  status: ('A' for Active; 'I' for Inactive)
REMARK    1  A    between atoms: C_1  and  C_2
REMARK    2  A    between atoms: C_2  and  N_3
REMARK    3  A    between atoms: C_2  and  C_16
REMARK    4  A    between atoms: C_4  and  C_6
REMARK    5  A    between atoms: C_19  and  C_20
REMARK    6  A    between atoms: C_20  and  N_21
REMARK                            x       y       z     vdW  Elec       q    Type
REMARK                         _______ _______ _______ _____ _____    ______ ____
ROOT
ATOM      1  C   UNL     1      44.548   4.306  13.002  0.00  0.00    +0.000 C 
ATOM      2  C   UNL     1      45.748   5.252  12.983  0.00  0.00    +0.000 C 
ENDROOT
BRANCH   2   3
ATOM      3  C   UNL     1      45.456   6.694  12.588  0.00  0.00    +0.000 A 
ATOM      4  C   UNL     1      44.528   6.912  11.558  0.00  0.00    +0.000 A 
ATOM      5  C   UNL     1      44.251   8.196  11.081  0.00  0.00    +0.000 A 
ATOM      6  C   UNL     1      44.886   9.320  11.622  0.00  0.00    +0.000 A 
ATOM      7  C   UNL     1      45.812   9.113  12.657  0.00  0.00    +0.000 A 
ATOM      8  C   UNL     1      46.099   7.815  13.131  0.00  0.00    +0.000 A 
BRANCH   6   9
ATOM      9  C   UNL     1      44.679  10.682  10.990  0.00  0.00    +0.000 C 
BRANCH   9  10
ATOM     10  N   UNL     1      43.578  11.540  11.420  0.00  0.00    +0.000 NA
ATOM     11  C   UNL     1      42.256  10.922  11.545  0.00  0.00    +0.000 C 
ATOM     12  C   UNL     1      41.384  11.017  10.284  0.00  0.00    +0.000 C 
ATOM     13  O   UNL     1      41.301  12.357   9.783  0.00  0.00    +0.000 OA
ATOM     14  C   UNL     1      42.603  12.904   9.538  0.00  0.00    +0.000 C 
ATOM     15  C   UNL     1      43.474  12.865  10.801  0.00  0.00    +0.000 C 
ENDBRANCH   9  10
ENDBRANCH   6   9
ENDBRANCH   2   3
BRANCH   2  16
ATOM     16  N   UNL     1      46.416   5.237  14.275  0.00  0.00    +0.000 N 
ATOM     17  C   UNL     1      47.139   4.162  14.723  0.00  0.00    +0.000 C 
ATOM     18  O   UNL     1      47.348   3.173  14.022  0.00  0.00    +0.000 OA
ATOM     19  H   UNL     1      46.143   5.961  14.931  0.00  0.00    +0.000 HD
BRANCH  17  20
ATOM     20  C   UNL     1      47.708   4.271  16.071  0.00  0.00    +0.000 A 
ATOM     21  C   UNL     1      47.385   3.326  17.034  0.00  0.00    +0.000 A 
ATOM     22  S   UNL     1      48.134   3.600  18.541  0.00  0.00    +0.000 S 
ATOM     23  C   UNL     1      48.877   5.024  17.975  0.00  0.00    +0.000 A 
ATOM     24  N   UNL     1      49.639   5.793  18.798  0.00  0.00    +0.000 NA
ATOM     25  C   UNL     1      50.110   6.859  18.248  0.00  0.00    +0.000 A 
ATOM     26  N   UNL     1      49.894   7.226  16.944  0.00  0.00    +0.000 N 
ATOM     27  C   UNL     1      49.172   6.456  16.063  0.00  0.00    +0.000 A 
ATOM     28  O   UNL     1      49.070   6.767  14.879  0.00  0.00    +0.000 OA
ATOM     29  C   UNL     1      48.588   5.263  16.642  0.00  0.00    +0.000 A 
ATOM     30  H   UNL     1      50.308   8.065  16.570  0.00  0.00    +0.000 HD
ENDBRANCH  17  20
ENDBRANCH   2  16
TORSDOF 5
ENDMDL
MODEL 4
REMARK VINA RESULT:    -6.291      3.157      4.092
REMARK INTER + INTRA:          -9.075
REMARK INTER:                  -8.166
REMARK INTRA:                  -0.909
REMARK UNBOUND:                -0.945
REMARK  Name = 
REMARK  6 active torsions:
REMARK  status: ('A' for Active; 'I' for Inactive)
REMARK    1  A    between atoms: C_1  and  C_2
REMARK    2  A    between atoms: C_2  and  N_3
REMARK    3  A    between atoms: C_2  and  C_16
REMARK    4  A    between atoms: C_4  and  C_6
REMARK    5  A    between atoms: C_19  and  C_20
REMARK    6  A    between atoms: C_20  and  N_21
REMARK                            x       y       z     vdW  Elec       q    Type
REMARK                         _______ _______ _______ _____ _____    ______ ____
ROOT
ATOM      1  C   UNL     1      49.732   8.161  13.617  0.00  0.00    +0.000 C 
ATOM      2  C   UNL     1      48.289   8.382  14.075  0.00  0.00    +0.000 C 
ENDROOT
BRANCH   2   3
ATOM      3  C   UNL     1      47.208   7.774  13.191  0.00  0.00    +0.000 A 
ATOM      4  C   UNL     1      47.436   6.489  12.673  0.00  0.00    +0.000 A 
ATOM      5  C   UNL     1      46.533   5.882  11.796  0.00  0.00    +0.000 A 
ATOM      6  C   UNL     1      45.357   6.533  11.405  0.00  0.00    +0.000 A 
ATOM      7  C   UNL     1      45.117   7.816  11.923  0.00  0.00    +0.000 A 
ATOM      8  C   UNL     1      46.034   8.432  12.800  0.00  0.00    +0.000 A 
BRANCH   6   9
ATOM      9  C   UNL     1      44.469   5.916  10.342  0.00  0.00    +0.000 C 
BRANCH   9  10
ATOM     10  N   UNL     1      43.492   4.890  10.695  0.00  0.00    +0.000 NA
ATOM     11  C   UNL     1      42.644   5.145  11.860  0.00  0.00    +0.000 C 
ATOM     12  C   UNL     1      43.191   4.591  13.184  0.00  0.00    +0.000 C 
ATOM     13  O   UNL     1      43.557   3.209  13.082  0.00  0.00    +0.000 OA
ATOM     14  C   UNL     1      44.493   2.994  12.019  0.00  0.00    +0.000 C 
ATOM     15  C   UNL     1      43.943   3.496  10.677  0.00  0.00    +0.000 C 
ENDBRANCH   9  10
ENDBRANCH   6   9
ENDBRANCH   2   3
BRANCH   2  16
ATOM     16  N   UNL     1      48.119   7.900  15.437  0.00  0.00    +0.000 N 
ATOM     17  C   UNL     1      48.563   8.599  16.529  0.00  0.00    +0.000 C 
ATOM     18  O   UNL     1      49.053   9.723  16.436  0.00  0.00    +0.000 OA
ATOM     19  H   UNL     1      47.861   6.925  15.540  0.00  0.00    +0.000 HD
BRANCH  17  20
ATOM     20  C   UNL     1      48.370   7.960  17.836  0.00  0.00    +0.000 A 
ATOM     21  C   UNL     1      47.951   8.720  18.920  0.00  0.00    +0.000 A 
ATOM     22  S   UNL     1      47.774   7.822  20.359  0.00  0.00    +0.000 S 
ATOM     23  C   UNL     1      48.303   6.394  19.597  0.00  0.00    +0.000 A 
ATOM     24  N   UNL     1      48.434   5.234  20.296  0.00  0.00    +0.000 NA
ATOM     25  C   UNL     1      48.877   4.241  19.602  0.00  0.00    +0.000 A 
ATOM     26  N   UNL     1      49.194   4.299  18.270  0.00  0.00    +0.000 N 
ATOM     27  C   UNL     1      49.031   5.435  17.513  0.00  0.00    +0.000 A 
ATOM     28  O   UNL     1      49.241   5.431  16.303  0.00  0.00    +0.000 OA
ATOM     29  C   UNL     1      48.571   6.593  18.254  0.00  0.00    +0.000 A 
ATOM     30  H   UNL     1      49.518   3.478  17.781  0.00  0.00    +0.000 HD
ENDBRANCH  17  20
ENDBRANCH   2  16
TORSDOF 5
ENDMDL
MODEL 5
REMARK VINA RESULT:    -6.261      3.515      5.464
REMARK INTER + INTRA:          -9.036
REMARK INTER:                  -8.420
REMARK INTRA:                  -0.616
REMARK UNBOUND:                -0.945
REMARK  Name = 
REMARK  6 active torsions:
REMARK  status: ('A' for Active; 'I' for Inactive)
REMARK    1  A    between atoms: C_1  and  C_2
REMARK    2  A    between atoms: C_2  and  N_3
REMARK    3  A    between atoms: C_2  and  C_16
REMARK    4  A    between atoms: C_4  and  C_6
REMARK    5  A    between atoms: C_19  and  C_20
REMARK    6  A    between atoms: C_20  and  N_21
REMARK                            x       y       z     vdW  Elec       q    Type
REMARK                         _______ _______ _______ _____ _____    ______ ____
ROOT
ATOM      1  C   UNL     1      47.481   3.397  16.787  0.00  0.00    +0.000 C 
ATOM      2  C   UNL     1      47.936   4.712  16.152  0.00  0.00    +0.000 C 
ENDROOT
BRANCH   2   3
ATOM      3  C   UNL     1      47.327   5.043  14.795  0.00  0.00    +0.000 A 
ATOM      4  C   UNL     1      46.793   3.984  14.045  0.00  0.00    +0.000 A 
ATOM      5  C   UNL     1      46.278   4.184  12.760  0.00  0.00    +0.000 A 
ATOM      6  C   UNL     1      46.270   5.455  12.174  0.00  0.00    +0.000 A 
ATOM      7  C   UNL     1      46.796   6.522  12.921  0.00  0.00    +0.000 A 
ATOM      8  C   UNL     1      47.325   6.318  14.213  0.00  0.00    +0.000 A 
BRANCH   6   9
ATOM      9  C   UNL     1      45.844   5.618  10.729  0.00  0.00    +0.000 C 
BRANCH   9  10
ATOM     10  N   UNL     1      44.495   5.250  10.307  0.00  0.00    +0.000 NA
ATOM     11  C   UNL     1      43.417   5.419  11.284  0.00  0.00    +0.000 C 
ATOM     12  C   UNL     1      43.121   4.172  12.132  0.00  0.00    +0.000 C 
ATOM     13  O   UNL     1      42.933   3.002  11.326  0.00  0.00    +0.000 OA
ATOM     14  C   UNL     1      44.057   2.773  10.467  0.00  0.00    +0.000 C 
ATOM     15  C   UNL     1      44.338   3.990   9.575  0.00  0.00    +0.000 C 
ENDBRANCH   9  10
ENDBRANCH   6   9
ENDBRANCH   2   3
BRANCH   2  16
ATOM     16  N   UNL     1      47.696   5.817  17.066  0.00  0.00    +0.000 N 
ATOM     17  C   UNL     1      48.614   6.216  18.002  0.00  0.00    +0.000 C 
ATOM     18  O   UNL     1      49.740   5.725  18.069  0.00  0.00    +0.000 OA
ATOM     19  H   UNL     1      46.737   6.140  17.140  0.00  0.00    +0.000 HD
BRANCH  17  20
ATOM     20  C   UNL     1      48.209   7.310  18.892  0.00  0.00    +0.000 A 
ATOM     21  C   UNL     1      47.974   7.055  20.235  0.00  0.00    +0.000 A 
ATOM     22  S   UNL     1      47.516   8.436  21.125  0.00  0.00    +0.000 S 
ATOM     23  C   UNL     1      47.563   9.416  19.733  0.00  0.00    +0.000 A 
ATOM     24  N   UNL     1      47.220  10.731  19.790  0.00  0.00    +0.000 NA
ATOM     25  C   UNL     1      47.267  11.343  18.656  0.00  0.00    +0.000 A 
ATOM     26  N   UNL     1      47.632  10.762  17.469  0.00  0.00    +0.000 N 
ATOM     27  C   UNL     1      48.032   9.451  17.373  0.00  0.00    +0.000 A 
ATOM     28  O   UNL     1      48.437   8.983  16.312  0.00  0.00    +0.000 OA
ATOM     29  C   UNL     1      47.962   8.706  18.614  0.00  0.00    +0.000 A 
ATOM     30  H   UNL     1      47.666  11.304  16.619  0.00  0.00    +0.000 HD
ENDBRANCH  17  20
ENDBRANCH   2  16
TORSDOF 5
ENDMDL
MODEL 6
REMARK VINA RESULT:    -6.107      3.787      8.694
REMARK INTER + INTRA:          -8.837
REMARK INTER:                  -8.836
REMARK INTRA:                  -0.000
REMARK UNBOUND:                -0.945
REMARK  Name = 
REMARK  6 active torsions:
REMARK  status: ('A' for Active; 'I' for Inactive)
REMARK    1  A    between atoms: C_1  and  C_2
REMARK    2  A    between atoms: C_2  and  N_3
REMARK    3  A    between atoms: C_2  and  C_16
REMARK    4  A    between atoms: C_4  and  C_6
REMARK    5  A    between atoms: C_19  and  C_20
REMARK    6  A    between atoms: C_20  and  N_21
REMARK                            x       y       z     vdW  Elec       q    Type
REMARK                         _______ _______ _______ _____ _____    ______ ____
ROOT
ATOM      1  C   UNL     1      48.579   2.686  16.295  0.00  0.00    +0.000 C 
ATOM      2  C   UNL     1      47.419   3.501  16.868  0.00  0.00    +0.000 C 
ENDROOT
BRANCH   2   3
ATOM      3  C   UNL     1      47.705   4.249  18.164  0.00  0.00    +0.000 A 
ATOM      4  C   UNL     1      46.937   5.391  18.440  0.00  0.00    +0.000 A 
ATOM      5  C   UNL     1      47.177   6.180  19.569  0.00  0.00    +0.000 A 
ATOM      6  C   UNL     1      48.192   5.854  20.476  0.00  0.00    +0.000 A 
ATOM      7  C   UNL     1      48.961   4.709  20.212  0.00  0.00    +0.000 A 
ATOM      8  C   UNL     1      48.726   3.919  19.066  0.00  0.00    +0.000 A 
BRANCH   6   9
ATOM      9  C   UNL     1      48.527   6.803  21.609  0.00  0.00    +0.000 C 
BRANCH   9  10
ATOM     10  N   UNL     1      49.340   7.992  21.365  0.00  0.00    +0.000 NA
ATOM     11  C   UNL     1      48.631   9.253  21.138  0.00  0.00    +0.000 C 
ATOM     12  C   UNL     1      48.343   9.568  19.662  0.00  0.00    +0.000 C 
ATOM     13  O   UNL     1      49.517   9.461  18.847  0.00  0.00    +0.000 OA
ATOM     14  C   UNL     1      50.128   8.170  18.978  0.00  0.00    +0.000 C 
ATOM     15  C   UNL     1      50.469   7.858  20.442  0.00  0.00    +0.000 C 
ENDBRANCH   9  10
ENDBRANCH   6   9
ENDBRANCH   2   3
BRANCH   2  16
ATOM     16  N   UNL     1      46.931   4.442  15.872  0.00  0.00    +0.000 N 
ATOM     17  C   UNL     1      46.909   4.156  14.532  0.00  0.00    +0.000 C 
ATOM     18  O   UNL     1      47.215   3.049  14.091  0.00  0.00    +0.000 OA
ATOM     19  H   UNL     1      46.816   5.403  16.178  0.00  0.00    +0.000 HD
BRANCH  17  20
ATOM     20  C   UNL     1      46.441   5.225  13.642  0.00  0.00    +0.000 A 
ATOM     21  C   UNL     1      47.234   6.345  13.434  0.00  0.00    +0.000 A 
ATOM     22  S   UNL     1      46.543   7.486  12.371  0.00  0.00    +0.000 S 
ATOM     23  C   UNL     1      45.134   6.547  12.192  0.00  0.00    +0.000 A 
ATOM     24  N   UNL     1      44.092   6.983  11.434  0.00  0.00    +0.000 NA
ATOM     25  C   UNL     1      43.077   6.188  11.415  0.00  0.00    +0.000 A 
ATOM     26  N   UNL     1      43.009   4.991  12.080  0.00  0.00    +0.000 N 
ATOM     27  C   UNL     1      44.055   4.488  12.817  0.00  0.00    +0.000 A 
ATOM     28  O   UNL     1      43.997   3.373  13.328  0.00  0.00    +0.000 OA
ATOM     29  C   UNL     1      45.209   5.361  12.902  0.00  0.00    +0.000 A 
ATOM     30  H   UNL     1      42.191   4.407  12.007  0.00  0.00    +0.000 HD
ENDBRANCH  17  20
ENDBRANCH   2  16
TORSDOF 5
ENDMDL
MODEL 7
REMARK VINA RESULT:    -6.106      4.168      5.864
REMARK INTER + INTRA:          -8.836
REMARK INTER:                  -7.927
REMARK INTRA:                  -0.909
REMARK UNBOUND:                -0.945
REMARK  Name = 
REMARK  6 active torsions:
REMARK  status: ('A' for Active; 'I' for Inactive)
REMARK    1  A    between atoms: C_1  and  C_2
REMARK    2  A    between atoms: C_2  and  N_3
REMARK    3  A    between atoms: C_2  and  C_16
REMARK    4  A    between atoms: C_4  and  C_6
REMARK    5  A    between atoms: C_19  and  C_20
REMARK    6  A    between atoms: C_20  and  N_21
REMARK                            x       y       z     vdW  Elec       q    Type
REMARK                         _______ _______ _______ _____ _____    ______ ____
ROOT
ATOM      1  C   UNL     1      45.043   4.905  12.728  0.00  0.00    +0.000 C 
ATOM      2  C   UNL     1      46.038   6.066  12.736  0.00  0.00    +0.000 C 
ENDROOT
BRANCH   2   3
ATOM      3  C   UNL     1      45.477   7.429  12.349  0.00  0.00    +0.000 A 
ATOM      4  C   UNL     1      44.495   7.468  11.346  0.00  0.00    +0.000 A 
ATOM      5  C   UNL     1      43.976   8.678  10.877  0.00  0.00    +0.000 A 
ATOM      6  C   UNL     1      44.412   9.902  11.398  0.00  0.00    +0.000 A 
ATOM      7  C   UNL     1      45.388   9.872  12.407  0.00  0.00    +0.000 A 
ATOM      8  C   UNL     1      45.920   8.651  12.873  0.00  0.00    +0.000 A 
BRANCH   6   9
ATOM      9  C   UNL     1      43.942  11.200  10.772  0.00  0.00    +0.000 C 
BRANCH   9  10
ATOM     10  N   UNL     1      42.702  11.832  11.215  0.00  0.00    +0.000 NA
ATOM     11  C   UNL     1      41.672  10.961  11.784  0.00  0.00    +0.000 C 
ATOM     12  C   UNL     1      40.642  10.440  10.770  0.00  0.00    +0.000 C 
ATOM     13  O   UNL     1      40.074  11.496   9.986  0.00  0.00    +0.000 OA
ATOM     14  C   UNL     1      41.090  12.261   9.326  0.00  0.00    +0.000 C 
ATOM     15  C   UNL     1      42.102  12.833  10.328  0.00  0.00    +0.000 C 
ENDBRANCH   9  10
ENDBRANCH   6   9
ENDBRANCH   2   3
BRANCH   2  16
ATOM     16  N   UNL     1      46.677   6.166  14.039  0.00  0.00    +0.000 N 
ATOM     17  C   UNL     1      48.038   6.180  14.196  0.00  0.00    +0.000 C 
ATOM     18  O   UNL     1      48.810   6.203  13.239  0.00  0.00    +0.000 OA
ATOM     19  H   UNL     1      46.084   5.998  14.845  0.00  0.00    +0.000 HD
BRANCH  17  20
ATOM     20  C   UNL     1      48.538   6.228  15.575  0.00  0.00    +0.000 A 
ATOM     21  C   UNL     1      49.344   7.282  15.980  0.00  0.00    +0.000 A 
ATOM     22  S   UNL     1      49.833   7.184  17.611  0.00  0.00    +0.000 S 
ATOM     23  C   UNL     1      49.027   5.699  17.820  0.00  0.00    +0.000 A 
ATOM     24  N   UNL     1      49.087   5.028  19.002  0.00  0.00    +0.000 NA
ATOM     25  C   UNL     1      48.460   3.901  19.008  0.00  0.00    +0.000 A 
ATOM     26  N   UNL     1      47.771   3.384  17.941  0.00  0.00    +0.000 N 
ATOM     27  C   UNL     1      47.643   4.049  16.744  0.00  0.00    +0.000 A 
ATOM     28  O   UNL     1      46.947   3.601  15.838  0.00  0.00    +0.000 OA
ATOM     29  C   UNL     1      48.361   5.305  16.671  0.00  0.00    +0.000 A 
ATOM     30  H   UNL     1      47.286   2.504  18.019  0.00  0.00    +0.000 HD
ENDBRANCH  17  20
ENDBRANCH   2  16
TORSDOF 5
ENDMDL
MODEL 8
REMARK VINA RESULT:    -6.021      4.363      5.483
REMARK INTER + INTRA:          -8.726
REMARK INTER:                  -7.687
REMARK INTRA:                  -1.040
REMARK UNBOUND:                -0.945
REMARK  Name = 
REMARK  6 active torsions:
REMARK  status: ('A' for Active; 'I' for Inactive)
REMARK    1  A    between atoms: C_1  and  C_2
REMARK    2  A    between atoms: C_2  and  N_3
REMARK    3  A    between atoms: C_2  and  C_16
REMARK    4  A    between atoms: C_4  and  C_6
REMARK    5  A    between atoms: C_19  and  C_20
REMARK    6  A    between atoms: C_20  and  N_21
REMARK                            x       y       z     vdW  Elec       q    Type
REMARK                         _______ _______ _______ _____ _____    ______ ____
ROOT
ATOM      1  C   UNL     1      49.693   6.923  14.821  0.00  0.00    +0.000 C 
ATOM      2  C   UNL     1      48.612   7.982  14.602  0.00  0.00    +0.000 C 
ENDROOT
BRANCH   2   3
ATOM      3  C   UNL     1      47.461   7.581  13.688  0.00  0.00    +0.000 A 
ATOM      4  C   UNL     1      47.521   6.317  13.080  0.00  0.00    +0.000 A 
ATOM      5  C   UNL     1      46.547   5.894  12.172  0.00  0.00    +0.000 A 
ATOM      6  C   UNL     1      45.464   6.716  11.839  0.00  0.00    +0.000 A 
ATOM      7  C   UNL     1      45.391   7.980  12.447  0.00  0.00    +0.000 A 
ATOM      8  C   UNL     1      46.381   8.410  13.356  0.00  0.00    +0.000 A 
BRANCH   6   9
ATOM      9  C   UNL     1      44.504   6.294  10.744  0.00  0.00    +0.000 C 
BRANCH   9  10
ATOM     10  N   UNL     1      43.476   5.289  11.004  0.00  0.00    +0.000 NA
ATOM     11  C   UNL     1      42.794   5.348  12.298  0.00  0.00    +0.000 C 
ATOM     12  C   UNL     1      43.431   4.484  13.397  0.00  0.00    +0.000 C 
ATOM     13  O   UNL     1      43.646   3.134  12.968  0.00  0.00    +0.000 OA
ATOM     14  C   UNL     1      44.430   3.085  11.769  0.00  0.00    +0.000 C 
ATOM     15  C   UNL     1      43.784   3.903  10.642  0.00  0.00    +0.000 C 
ENDBRANCH   9  10
ENDBRANCH   6   9
ENDBRANCH   2   3
BRANCH   2  16
ATOM     16  N   UNL     1      48.076   8.420  15.881  0.00  0.00    +0.000 N 
ATOM     17  C   UNL     1      48.611   9.464  16.589  0.00  0.00    +0.000 C 
ATOM     18  O   UNL     1      49.525  10.159  16.146  0.00  0.00    +0.000 OA
ATOM     19  H   UNL     1      47.432   7.785  16.340  0.00  0.00    +0.000 HD
BRANCH  17  20
ATOM     20  C   UNL     1      47.999   9.755  17.890  0.00  0.00    +0.000 A 
ATOM     21  C   UNL     1      47.526  11.031  18.160  0.00  0.00    +0.000 A 
ATOM     22  S   UNL     1      46.843  11.195  19.714  0.00  0.00    +0.000 S 
ATOM     23  C   UNL     1      47.203   9.577  20.102  0.00  0.00    +0.000 A 
ATOM     24  N   UNL     1      46.920   9.071  21.333  0.00  0.00    +0.000 NA
ATOM     25  C   UNL     1      47.278   7.844  21.501  0.00  0.00    +0.000 A 
ATOM     26  N   UNL     1      47.888   7.071  20.547  0.00  0.00    +0.000 N 
ATOM     27  C   UNL     1      48.149   7.524  19.275  0.00  0.00    +0.000 A 
ATOM     28  O   UNL     1      48.616   6.780  18.417  0.00  0.00    +0.000 OA
ATOM     29  C   UNL     1      47.800   8.911  19.045  0.00  0.00    +0.000 A 
ATOM     30  H   UNL     1      48.126   6.110  20.738  0.00  0.00    +0.000 HD
ENDBRANCH  17  20
ENDBRANCH   2  16
TORSDOF 5
ENDMDL
MODEL 9
REMARK VINA RESULT:    -5.957      3.369      6.210
REMARK INTER + INTRA:          -8.644
REMARK INTER:                  -7.465
REMARK INTRA:                  -1.179
REMARK UNBOUND:                -0.945
REMARK  Name = 
REMARK  6 active torsions:
REMARK  status: ('A' for Active; 'I' for Inactive)
REMARK    1  A    between atoms: C_1  and  C_2
REMARK    2  A    between atoms: C_2  and  N_3
REMARK    3  A    between atoms: C_2  and  C_16
REMARK    4  A    between atoms: C_4  and  C_6
REMARK    5  A    between atoms: C_19  and  C_20
REMARK    6  A    between atoms: C_20  and  N_21
REMARK                            x       y       z     vdW  Elec       q    Type
REMARK                         _______ _______ _______ _____ _____    ______ ____
ROOT
ATOM      1  C   UNL     1      44.808   5.428  13.279  0.00  0.00    +0.000 C 
ATOM      2  C   UNL     1      46.321   5.633  13.214  0.00  0.00    +0.000 C 
ENDROOT
BRANCH   2   3
ATOM      3  C   UNL     1      46.790   6.972  12.658  0.00  0.00    +0.000 A 
ATOM      4  C   UNL     1      48.103   7.050  12.167  0.00  0.00    +0.000 A 
ATOM      5  C   UNL     1      48.641   8.255  11.705  0.00  0.00    +0.000 A 
ATOM      6  C   UNL     1      47.885   9.433  11.707  0.00  0.00    +0.000 A 
ATOM      7  C   UNL     1      46.568   9.363  12.191  0.00  0.00    +0.000 A 
ATOM      8  C   UNL     1      46.029   8.149  12.667  0.00  0.00    +0.000 A 
BRANCH   6   9
ATOM      9  C   UNL     1      48.537  10.750  11.340  0.00  0.00    +0.000 C 
BRANCH   9  10
ATOM     10  N   UNL     1      49.356  11.470  12.313  0.00  0.00    +0.000 NA
ATOM     11  C   UNL     1      50.787  11.162  12.342  0.00  0.00    +0.000 C 
ATOM     12  C   UNL     1      51.185  10.061  13.335  0.00  0.00    +0.000 C 
ATOM     13  O   UNL     1      50.665  10.303  14.648  0.00  0.00    +0.000 OA
ATOM     14  C   UNL     1      49.241  10.470  14.623  0.00  0.00    +0.000 C 
ATOM     15  C   UNL     1      48.826  11.601  13.673  0.00  0.00    +0.000 C 
ENDBRANCH   9  10
ENDBRANCH   6   9
ENDBRANCH   2   3
BRANCH   2  16
ATOM     16  N   UNL     1      46.910   5.429  14.528  0.00  0.00    +0.000 N 
ATOM     17  C   UNL     1      47.343   4.204  14.963  0.00  0.00    +0.000 C 
ATOM     18  O   UNL     1      47.347   3.212  14.236  0.00  0.00    +0.000 OA
ATOM     19  H   UNL     1      46.785   6.180  15.198  0.00  0.00    +0.000 HD
BRANCH  17  20
ATOM     20  C   UNL     1      47.863   4.142  16.333  0.00  0.00    +0.000 A 
ATOM     21  C   UNL     1      47.381   3.182  17.212  0.00  0.00    +0.000 A 
ATOM     22  S   UNL     1      48.094   3.248  18.759  0.00  0.00    +0.000 S 
ATOM     23  C   UNL     1      49.036   4.599  18.327  0.00  0.00    +0.000 A 
ATOM     24  N   UNL     1      49.855   5.201  19.231  0.00  0.00    +0.000 NA
ATOM     25  C   UNL     1      50.482   6.233  18.779  0.00  0.00    +0.000 A 
ATOM     26  N   UNL     1      50.371   6.716  17.500  0.00  0.00    +0.000 N 
ATOM     27  C   UNL     1      49.594   6.112  16.540  0.00  0.00    +0.000 A 
ATOM     28  O   UNL     1      49.584   6.516  15.381  0.00  0.00    +0.000 OA
ATOM     29  C   UNL     1      48.838   4.967  17.007  0.00  0.00    +0.000 A 
ATOM     30  H   UNL     1      50.905   7.518  17.205  0.00  0.00    +0.000 HD
ENDBRANCH  17  20
ENDBRANCH   2  16
TORSDOF 5
ENDMDL
