MODEL 1
REMARK VINA RESULT:    -8.859      0.000      0.000
REMARK INTER + INTRA:         -13.284
REMARK INTER:                 -12.485
REMARK INTRA:                  -0.800
REMARK UNBOUND:                -0.800
REMARK  Name = 
REMARK  9 active torsions:
REMARK  status: ('A' for Active; 'I' for Inactive)
REMARK    1  A    between atoms: C_1  and  C_2
REMARK    2  A    between atoms: C_2  and  C_3
REMARK    3  A    between atoms: C_6  and  C_7
REMARK    4  A    between atoms: C_11  and  C_12
REMARK    5  A    between atoms: C_12  and  C_13
REMARK    6  A    between atoms: C_13  and  C_14
REMARK    7  A    between atoms: C_13  and  N_15
REMARK    8  A    between atoms: N_15  and  C_16
REMARK    9  A    between atoms: C_19  and  C_20
REMARK                            x       y       z     vdW  Elec       q    Type
REMARK                         _______ _______ _______ _____ _____    ______ ____
ROOT
ATOM      1  C   UNL     1      43.833   5.117  11.312  0.00  0.00    +0.000 C 
ATOM      2  C   UNL     1      42.480   5.099  12.037  0.00  0.00    +0.000 C 
ENDROOT
BRANCH   1   3
ATOM      3  N   UNL     1      43.658   4.781   9.873  0.00  0.00    +0.000 N 
ATOM      4  H   UNL     1      43.323   5.571   9.324  0.00  0.00    +0.000 HD
BRANCH   3   5
ATOM      5  C   UNL     1      44.639   4.049   9.190  0.00  0.00    +0.000 A 
ATOM      6  C   UNL     1      45.575   4.683   8.355  0.00  0.00    +0.000 A 
ATOM      7  N   UNL     1      46.530   4.059   7.610  0.00  0.00    +0.000 NA
ATOM      8  C   UNL     1      46.541   2.693   7.669  0.00  0.00    +0.000 A 
ATOM      9  C   UNL     1      45.634   1.969   8.427  0.00  0.00    +0.000 A 
ATOM     10  F   UNL     1      45.628   0.631   8.462  0.00  0.00    +0.000 F 
ATOM     11  C   UNL     1      44.682   2.655   9.173  0.00  0.00    +0.000 A 
BRANCH   8  12
ATOM     12  C   UNL     1      47.575   1.985   6.856  0.00  0.00    +0.000 C 
ATOM     13  N   UNL     1      48.642   2.749   6.461  0.00  0.00    +0.000 N 
ATOM     14  O   UNL     1      47.512   0.804   6.543  0.00  0.00    +0.000 OA
ATOM     15  H   UNL     1      48.684   3.733   6.713  0.00  0.00    +0.000 HD
ATOM     16  H   UNL     1      49.360   2.332   5.894  0.00  0.00    +0.000 HD
ENDBRANCH   8  12
ENDBRANCH   3   5
ENDBRANCH   1   3
BRANCH   1  17
ATOM     17  C   UNL     1      44.476   6.525  11.432  0.00  0.00    +0.000 C 
BRANCH  17  22
ATOM     18  C   UNL     1      47.449   5.891  13.807  0.00  0.00    +0.000 A 
ATOM     19  C   UNL     1      48.477   6.484  13.053  0.00  0.00    +0.000 A 
ATOM     20  C   UNL     1      48.211   7.154  11.859  0.00  0.00    +0.000 A 
ATOM     21  C   UNL     1      46.908   7.212  11.367  0.00  0.00    +0.000 A 
ATOM     22  C   UNL     1      45.863   6.575  12.045  0.00  0.00    +0.000 A 
ATOM     23  C   UNL     1      46.144   5.936  13.266  0.00  0.00    +0.000 A 
BRANCH  18  27
ATOM     24  C   UNL     1      48.285   4.045  17.483  0.00  0.00    +0.000 A 
ATOM     25  C   UNL     1      47.331   3.567  16.614  0.00  0.00    +0.000 A 
ATOM     26  N   UNL     1      47.032   4.147  15.437  0.00  0.00    +0.000 NA
ATOM     27  C   UNL     1      47.728   5.259  15.113  0.00  0.00    +0.000 A 
ATOM     28  N   UNL     1      48.689   5.800  15.885  0.00  0.00    +0.000 NA
ATOM     29  C   UNL     1      48.946   5.176  17.051  0.00  0.00    +0.000 A 
BRANCH  24  31
ATOM     30  C   UNL     1      48.752   4.376  19.918  0.00  0.00    +0.000 C 
ATOM     31  C   UNL     1      48.606   3.376  18.782  0.00  0.00    +0.000 C 
ENDBRANCH  24  31
ENDBRANCH  18  27
ENDBRANCH  17  22
ENDBRANCH   1  17
TORSDOF 7
ENDMDL
MODEL 2
REMARK VINA RESULT:    -7.897      3.207      8.152
REMARK INTER + INTRA:         -11.928
REMARK INTER:                 -10.956
REMARK INTRA:                  -0.972
REMARK UNBOUND:                -0.800
REMARK  Name = 
REMARK  9 active torsions:
REMARK  status: ('A' for Active; 'I' for Inactive)
REMARK    1  A    between atoms: C_1  and  C_2
REMARK    2  A    between atoms: C_2  and  C_3
REMARK    3  A    between atoms: C_6  and  C_7
REMARK    4  A    between atoms: C_11  and  C_12
REMARK    5  A    between atoms: C_12  and  C_13
REMARK    6  A    between atoms: C_13  and  C_14
REMARK    7  A    between atoms: C_13  and  N_15
REMARK    8  A    between atoms: N_15  and  C_16
REMARK    9  A    between atoms: C_19  and  C_20
REMARK                            x       y       z     vdW  Elec       q    Type
REMARK                         _______ _______ _______ _____ _____    ______ ____
ROOT
ATOM      1  C   UNL     1      47.129   7.683  12.561  0.00  0.00    +0.000 C 
ATOM      2  C   UNL     1      47.816   8.812  11.781  0.00  0.00    +0.000 C 
ENDROOT
BRANCH   1   3
ATOM      3  N   UNL     1      47.574   7.684  13.981  0.00  0.00    +0.000 N 
ATOM      4  H   UNL     1      47.082   8.376  14.545  0.00  0.00    +0.000 HD
BRANCH   3   5
ATOM      5  C   UNL     1      47.751   6.478  14.672  0.00  0.00    +0.000 A 
ATOM      6  C   UNL     1      47.180   5.280  14.211  0.00  0.00    +0.000 A 
ATOM      7  N   UNL     1      47.251   4.071  14.835  0.00  0.00    +0.000 NA
ATOM      8  C   UNL     1      47.912   4.050  16.032  0.00  0.00    +0.000 A 
ATOM      9  C   UNL     1      48.473   5.184  16.597  0.00  0.00    +0.000 A 
ATOM     10  F   UNL     1      49.096   5.169  17.782  0.00  0.00    +0.000 F 
ATOM     11  C   UNL     1      48.377   6.393  15.915  0.00  0.00    +0.000 A 
BRANCH   8  12
ATOM     12  C   UNL     1      47.997   2.738  16.739  0.00  0.00    +0.000 C 
ATOM     13  N   UNL     1      47.083   2.546  17.742  0.00  0.00    +0.000 N 
ATOM     14  O   UNL     1      48.812   1.865  16.472  0.00  0.00    +0.000 OA
ATOM     15  H   UNL     1      46.416   3.278  17.970  0.00  0.00    +0.000 HD
ATOM     16  H   UNL     1      47.105   1.689  18.268  0.00  0.00    +0.000 HD
ENDBRANCH   8  12
ENDBRANCH   3   5
ENDBRANCH   1   3
BRANCH   1  17
ATOM     17  C   UNL     1      45.589   7.868  12.510  0.00  0.00    +0.000 C 
BRANCH  17  22
ATOM     18  C   UNL     1      44.713   4.817  10.318  0.00  0.00    +0.000 A 
ATOM     19  C   UNL     1      43.415   4.557  10.793  0.00  0.00    +0.000 A 
ATOM     20  C   UNL     1      42.799   5.393  11.723  0.00  0.00    +0.000 A 
ATOM     21  C   UNL     1      43.484   6.494  12.234  0.00  0.00    +0.000 A 
ATOM     22  C   UNL     1      44.804   6.752  11.845  0.00  0.00    +0.000 A 
ATOM     23  C   UNL     1      45.396   5.920  10.879  0.00  0.00    +0.000 A 
BRANCH  18  27
ATOM     24  C   UNL     1      46.518   2.431   7.373  0.00  0.00    +0.000 A 
ATOM     25  C   UNL     1      46.566   3.807   7.344  0.00  0.00    +0.000 A 
ATOM     26  N   UNL     1      45.983   4.596   8.266  0.00  0.00    +0.000 NA
ATOM     27  C   UNL     1      45.325   3.976   9.269  0.00  0.00    +0.000 A 
ATOM     28  N   UNL     1      45.230   2.638   9.397  0.00  0.00    +0.000 NA
ATOM     29  C   UNL     1      45.833   1.899   8.446  0.00  0.00    +0.000 A 
BRANCH  24  31
ATOM     30  C   UNL     1      47.692   2.394   5.165  0.00  0.00    +0.000 C 
ATOM     31  C   UNL     1      47.182   1.576   6.341  0.00  0.00    +0.000 C 
ENDBRANCH  24  31
ENDBRANCH  18  27
ENDBRANCH  17  22
ENDBRANCH   1  17
TORSDOF 7
ENDMDL
MODEL 3
REMARK VINA RESULT:    -7.181      3.475      7.883
REMARK INTER + INTRA:         -10.919
REMARK INTER:                  -9.629
REMARK INTRA:                  -1.290
REMARK UNBOUND:                -0.800
REMARK  Name = 
REMARK  9 active torsions:
REMARK  status: ('A' for Active; 'I' for Inactive)
REMARK    1  A    between atoms: C_1  and  C_2
REMARK    2  A    between atoms: C_2  and  C_3
REMARK    3  A    between atoms: C_6  and  C_7
REMARK    4  A    between atoms: C_11  and  C_12
REMARK    5  A    between atoms: C_12  and  C_13
REMARK    6  A    between atoms: C_13  and  C_14
REMARK    7  A    between atoms: C_13  and  N_15
REMARK    8  A    between atoms: N_15  and  C_16
REMARK    9  A    between atoms: C_19  and  C_20
REMARK                            x       y       z     vdW  Elec       q    Type
REMARK                         _______ _______ _______ _____ _____    ______ ____
ROOT
ATOM      1  C   UNL     1      48.835   8.671  17.220  0.00  0.00    +0.000 C 
ATOM      2  C   UNL     1      48.999   9.840  18.201  0.00  0.00    +0.000 C 
ENDROOT
BRANCH   1   3
ATOM      3  N   UNL     1      48.065   7.565  17.851  0.00  0.00    +0.000 N 
ATOM      4  H   UNL     1      47.058   7.674  17.737  0.00  0.00    +0.000 HD
BRANCH   3   5
ATOM      5  C   UNL     1      48.467   6.233  17.684  0.00  0.00    +0.000 A 
ATOM      6  C   UNL     1      49.765   5.909  17.253  0.00  0.00    +0.000 A 
ATOM      7  N   UNL     1      50.235   4.654  17.013  0.00  0.00    +0.000 NA
ATOM      8  C   UNL     1      49.339   3.634  17.179  0.00  0.00    +0.000 A 
ATOM      9  C   UNL     1      48.023   3.848  17.558  0.00  0.00    +0.000 A 
ATOM     10  F   UNL     1      47.139   2.853  17.694  0.00  0.00    +0.000 F 
ATOM     11  C   UNL     1      47.596   5.150  17.796  0.00  0.00    +0.000 A 
BRANCH   8  12
ATOM     12  C   UNL     1      49.828   2.248  16.914  0.00  0.00    +0.000 C 
ATOM     13  N   UNL     1      50.739   1.760  17.815  0.00  0.00    +0.000 N 
ATOM     14  O   UNL     1      49.465   1.560  15.971  0.00  0.00    +0.000 OA
ATOM     15  H   UNL     1      51.048   2.340  18.591  0.00  0.00    +0.000 HD
ATOM     16  H   UNL     1      51.120   0.840  17.677  0.00  0.00    +0.000 HD
ENDBRANCH   8  12
ENDBRANCH   3   5
ENDBRANCH   1   3
BRANCH   1  17
ATOM     17  C   UNL     1      48.086   9.153  15.948  0.00  0.00    +0.000 C 
BRANCH  17  22
ATOM     18  C   UNL     1      47.708   6.884  12.851  0.00  0.00    +0.000 A 
ATOM     19  C   UNL     1      48.902   7.206  12.182  0.00  0.00    +0.000 A 
ATOM     20  C   UNL     1      49.850   8.056  12.752  0.00  0.00    +0.000 A 
ATOM     21  C   UNL     1      49.607   8.640  13.994  0.00  0.00    +0.000 A 
ATOM     22  C   UNL     1      48.401   8.406  14.665  0.00  0.00    +0.000 A 
ATOM     23  C   UNL     1      47.473   7.517  14.093  0.00  0.00    +0.000 A 
BRANCH  18  27
ATOM     24  C   UNL     1      44.931   4.166  11.263  0.00  0.00    +0.000 A 
ATOM     25  C   UNL     1      45.513   3.994  12.499  0.00  0.00    +0.000 A 
ATOM     26  N   UNL     1      46.417   4.841  13.025  0.00  0.00    +0.000 NA
ATOM     27  C   UNL     1      46.750   5.916  12.279  0.00  0.00    +0.000 A 
ATOM     28  N   UNL     1      46.230   6.184  11.066  0.00  0.00    +0.000 NA
ATOM     29  C   UNL     1      45.329   5.302  10.590  0.00  0.00    +0.000 A 
BRANCH  24  31
ATOM     30  C   UNL     1      44.463   2.441   9.514  0.00  0.00    +0.000 C 
ATOM     31  C   UNL     1      43.920   3.216  10.705  0.00  0.00    +0.000 C 
ENDBRANCH  24  31
ENDBRANCH  18  27
ENDBRANCH  17  22
ENDBRANCH   1  17
TORSDOF 7
ENDMDL
MODEL 4
REMARK VINA RESULT:    -7.096      3.148      7.782
REMARK INTER + INTRA:         -10.799
REMARK INTER:                  -9.509
REMARK INTRA:                  -1.290
REMARK UNBOUND:                -0.800
REMARK  Name = 
REMARK  9 active torsions:
REMARK  status: ('A' for Active; 'I' for Inactive)
REMARK    1  A    between atoms: C_1  and  C_2
REMARK    2  A    between atoms: C_2  and  C_3
REMARK    3  A    between atoms: C_6  and  C_7
REMARK    4  A    between atoms: C_11  and  C_12
REMARK    5  A    between atoms: C_12  and  C_13
REMARK    6  A    between atoms: C_13  and  C_14
REMARK    7  A    between atoms: C_13  and  N_15
REMARK    8  A    between atoms: N_15  and  C_16
REMARK    9  A    between atoms: C_19  and  C_20
REMARK                            x       y       z     vdW  Elec       q    Type
REMARK                         _______ _______ _______ _____ _____    ______ ____
ROOT
ATOM      1  C   UNL     1      50.083   8.059  13.267  0.00  0.00    +0.000 C 
ATOM      2  C   UNL     1      51.561   8.472  13.224  0.00  0.00    +0.000 C 
ENDROOT
BRANCH   1   3
ATOM      3  N   UNL     1      49.564   8.127  14.660  0.00  0.00    +0.000 N 
ATOM      4  H   UNL     1      48.986   8.951  14.823  0.00  0.00    +0.000 HD
BRANCH   3   5
ATOM      5  C   UNL     1      49.031   6.988  15.277  0.00  0.00    +0.000 A 
ATOM      6  C   UNL     1      49.570   6.484  16.473  0.00  0.00    +0.000 A 
ATOM      7  N   UNL     1      49.159   5.359  17.121  0.00  0.00    +0.000 NA
ATOM      8  C   UNL     1      48.153   4.652  16.521  0.00  0.00    +0.000 A 
ATOM      9  C   UNL     1      47.582   5.038  15.319  0.00  0.00    +0.000 A 
ATOM     10  F   UNL     1      46.617   4.332  14.718  0.00  0.00    +0.000 F 
ATOM     11  C   UNL     1      48.036   6.199  14.701  0.00  0.00    +0.000 A 
BRANCH   8  12
ATOM     12  C   UNL     1      47.689   3.411  17.209  0.00  0.00    +0.000 C 
ATOM     13  N   UNL     1      48.680   2.582  17.666  0.00  0.00    +0.000 N 
ATOM     14  O   UNL     1      46.513   3.117  17.375  0.00  0.00    +0.000 OA
ATOM     15  H   UNL     1      49.656   2.823  17.515  0.00  0.00    +0.000 HD
ATOM     16  H   UNL     1      48.428   1.721  18.119  0.00  0.00    +0.000 HD
ENDBRANCH   8  12
ENDBRANCH   3   5
ENDBRANCH   1   3
BRANCH   1  17
ATOM     17  C   UNL     1      49.246   9.005  12.364  0.00  0.00    +0.000 C 
BRANCH  17  22
ATOM     18  C   UNL     1      46.088   6.956  11.519  0.00  0.00    +0.000 A 
ATOM     19  C   UNL     1      45.105   7.835  12.009  0.00  0.00    +0.000 A 
ATOM     20  C   UNL     1      45.438   9.093  12.510  0.00  0.00    +0.000 A 
ATOM     21  C   UNL     1      46.773   9.489  12.572  0.00  0.00    +0.000 A 
ATOM     22  C   UNL     1      47.792   8.620  12.164  0.00  0.00    +0.000 A 
ATOM     23  C   UNL     1      47.435   7.370  11.627  0.00  0.00    +0.000 A 
BRANCH  18  27
ATOM     24  C   UNL     1      44.969   3.298   9.791  0.00  0.00    +0.000 A 
ATOM     25  C   UNL     1      44.884   3.535  11.145  0.00  0.00    +0.000 A 
ATOM     26  N   UNL     1      45.250   4.692  11.727  0.00  0.00    +0.000 NA
ATOM     27  C   UNL     1      45.719   5.661  10.911  0.00  0.00    +0.000 A 
ATOM     28  N   UNL     1      45.830   5.536   9.575  0.00  0.00    +0.000 NA
ATOM     29  C   UNL     1      45.448   4.356   9.048  0.00  0.00    +0.000 A 
BRANCH  24  31
ATOM     30  C   UNL     1      45.673   1.357   8.380  0.00  0.00    +0.000 C 
ATOM     31  C   UNL     1      44.546   2.006   9.168  0.00  0.00    +0.000 C 
ENDBRANCH  24  31
ENDBRANCH  18  27
ENDBRANCH  17  22
ENDBRANCH   1  17
TORSDOF 7
ENDMDL
MODEL 5
REMARK VINA RESULT:    -7.091      4.499      8.091
REMARK INTER + INTRA:         -10.793
REMARK INTER:                  -9.826
REMARK INTRA:                  -0.967
REMARK UNBOUND:                -0.800
REMARK  Name = 
REMARK  9 active torsions:
REMARK  status: ('A' for Active; 'I' for Inactive)
REMARK    1  A    between atoms: C_1  and  C_2
REMARK    2  A    between atoms: C_2  and  C_3
REMARK    3  A    between atoms: C_6  and  C_7
REMARK    4  A    between atoms: C_11  and  C_12
REMARK    5  A    between atoms: C_12  and  C_13
REMARK    6  A    between atoms: C_13  and  C_14
REMARK    7  A    between atoms: C_13  and  N_15
REMARK    8  A    between atoms: N_15  and  C_16
REMARK    9  A    between atoms: C_19  and  C_20
REMARK                            x       y       z     vdW  Elec       q    Type
REMARK                         _______ _______ _______ _____ _____    ______ ____
ROOT
ATOM      1  C   UNL     1      45.731   8.846  11.989  0.00  0.00    +0.000 C 
ATOM      2  C   UNL     1      44.443   9.645  11.750  0.00  0.00    +0.000 C 
ENDROOT
BRANCH   1   3
ATOM      3  N   UNL     1      46.740   9.682  12.695  0.00  0.00    +0.000 N 
ATOM      4  H   UNL     1      46.412  10.008  13.603  0.00  0.00    +0.000 HD
BRANCH   3   5
ATOM      5  C   UNL     1      48.084   9.291  12.737  0.00  0.00    +0.000 A 
ATOM      6  C   UNL     1      48.937   9.710  13.773  0.00  0.00    +0.000 A 
ATOM      7  N   UNL     1      50.265   9.428  13.876  0.00  0.00    +0.000 NA
ATOM      8  C   UNL     1      50.807   8.699  12.854  0.00  0.00    +0.000 A 
ATOM      9  C   UNL     1      50.064   8.274  11.764  0.00  0.00    +0.000 A 
ATOM     10  F   UNL     1      50.600   7.584  10.750  0.00  0.00    +0.000 F 
ATOM     11  C   UNL     1      48.709   8.584  11.710  0.00  0.00    +0.000 A 
BRANCH   8  12
ATOM     12  C   UNL     1      52.263   8.383  12.940  0.00  0.00    +0.000 C 
ATOM     13  N   UNL     1      52.673   7.797  14.110  0.00  0.00    +0.000 N 
ATOM     14  O   UNL     1      53.070   8.612  12.050  0.00  0.00    +0.000 OA
ATOM     15  H   UNL     1      52.002   7.619  14.852  0.00  0.00    +0.000 HD
ATOM     16  H   UNL     1      53.646   7.580  14.234  0.00  0.00    +0.000 HD
ENDBRANCH   8  12
ENDBRANCH   3   5
ENDBRANCH   1   3
BRANCH   1  17
ATOM     17  C   UNL     1      45.421   7.589  12.845  0.00  0.00    +0.000 C 
BRANCH  17  22
ATOM     18  C   UNL     1      44.649   4.612  10.517  0.00  0.00    +0.000 A 
ATOM     19  C   UNL     1      43.380   4.258  11.008  0.00  0.00    +0.000 A 
ATOM     20  C   UNL     1      42.745   5.012  11.994  0.00  0.00    +0.000 A 
ATOM     21  C   UNL     1      43.385   6.120  12.547  0.00  0.00    +0.000 A 
ATOM     22  C   UNL     1      44.679   6.468  12.142  0.00  0.00    +0.000 A 
ATOM     23  C   UNL     1      45.289   5.719  11.120  0.00  0.00    +0.000 A 
BRANCH  18  27
ATOM     24  C   UNL     1      46.499   2.479   7.411  0.00  0.00    +0.000 A 
ATOM     25  C   UNL     1      46.485   3.855   7.459  0.00  0.00    +0.000 A 
ATOM     26  N   UNL     1      45.886   4.563   8.434  0.00  0.00    +0.000 NA
ATOM     27  C   UNL     1      45.277   3.859   9.412  0.00  0.00    +0.000 A 
ATOM     28  N   UNL     1      45.245   2.513   9.465  0.00  0.00    +0.000 NA
ATOM     29  C   UNL     1      45.861   1.857   8.464  0.00  0.00    +0.000 A 
BRANCH  24  31
ATOM     30  C   UNL     1      47.579   2.611   5.159  0.00  0.00    +0.000 C 
ATOM     31  C   UNL     1      47.180   1.714   6.321  0.00  0.00    +0.000 C 
ENDBRANCH  24  31
ENDBRANCH  18  27
ENDBRANCH  17  22
ENDBRANCH   1  17
TORSDOF 7
ENDMDL
MODEL 6
REMARK VINA RESULT:    -6.770      4.690      7.954
REMARK INTER + INTRA:         -10.340
REMARK INTER:                  -9.253
REMARK INTRA:                  -1.087
REMARK UNBOUND:                -0.800
REMARK  Name = 
REMARK  9 active torsions:
REMARK  status: ('A' for Active; 'I' for Inactive)
REMARK    1  A    between atoms: C_1  and  C_2
REMARK    2  A    between atoms: C_2  and  C_3
REMARK    3  A    between atoms: C_6  and  C_7
REMARK    4  A    between atoms: C_11  and  C_12
REMARK    5  A    between atoms: C_12  and  C_13
REMARK    6  A    between atoms: C_13  and  C_14
REMARK    7  A    between atoms: C_13  and  N_15
REMARK    8  A    between atoms: N_15  and  C_16
REMARK    9  A    between atoms: C_19  and  C_20
REMARK                            x       y       z     vdW  Elec       q    Type
REMARK                         _______ _______ _______ _____ _____    ______ ____
ROOT
ATOM      1  C   UNL     1      47.384   8.535  12.110  0.00  0.00    +0.000 C 
ATOM      2  C   UNL     1      48.867   8.155  12.002  0.00  0.00    +0.000 C 
ENDROOT
BRANCH   1   3
ATOM      3  N   UNL     1      46.727   7.762  13.199  0.00  0.00    +0.000 N 
ATOM      4  H   UNL     1      46.237   8.360  13.863  0.00  0.00    +0.000 HD
BRANCH   3   5
ATOM      5  C   UNL     1      45.997   6.602  12.907  0.00  0.00    +0.000 A 
ATOM      6  C   UNL     1      46.316   5.369  13.501  0.00  0.00    +0.000 A 
ATOM      7  N   UNL     1      45.704   4.179  13.246  0.00  0.00    +0.000 NA
ATOM      8  C   UNL     1      44.716   4.201  12.301  0.00  0.00    +0.000 A 
ATOM      9  C   UNL     1      44.354   5.355  11.624  0.00  0.00    +0.000 A 
ATOM     10  F   UNL     1      43.406   5.372  10.679  0.00  0.00    +0.000 F 
ATOM     11  C   UNL     1      45.007   6.545  11.926  0.00  0.00    +0.000 A 
BRANCH   8  12
ATOM     12  C   UNL     1      44.033   2.908  11.998  0.00  0.00    +0.000 C 
ATOM     13  N   UNL     1      44.279   2.386  10.755  0.00  0.00    +0.000 N 
ATOM     14  O   UNL     1      43.299   2.320  12.780  0.00  0.00    +0.000 OA
ATOM     15  H   UNL     1      44.880   2.884  10.103  0.00  0.00    +0.000 HD
ATOM     16  H   UNL     1      43.830   1.527  10.487  0.00  0.00    +0.000 HD
ENDBRANCH   8  12
ENDBRANCH   3   5
ENDBRANCH   1   3
BRANCH   1  17
ATOM     17  C   UNL     1      47.249  10.052  12.409  0.00  0.00    +0.000 C 
BRANCH  17  22
ATOM     18  C   UNL     1      43.863  11.413  11.158  0.00  0.00    +0.000 A 
ATOM     19  C   UNL     1      44.325  12.365  10.232  0.00  0.00    +0.000 A 
ATOM     20  C   UNL     1      45.683  12.503   9.946  0.00  0.00    +0.000 A 
ATOM     21  C   UNL     1      46.620  11.715  10.611  0.00  0.00    +0.000 A 
ATOM     22  C   UNL     1      46.214  10.804  11.593  0.00  0.00    +0.000 A 
ATOM     23  C   UNL     1      44.839  10.652  11.843  0.00  0.00    +0.000 A 
BRANCH  18  27
ATOM     24  C   UNL     1      39.773  10.799  11.875  0.00  0.00    +0.000 A 
ATOM     25  C   UNL     1      40.507   9.995  11.031  0.00  0.00    +0.000 A 
ATOM     26  N   UNL     1      41.814  10.179  10.772  0.00  0.00    +0.000 NA
ATOM     27  C   UNL     1      42.418  11.215  11.393  0.00  0.00    +0.000 A 
ATOM     28  N   UNL     1      41.796  12.051  12.246  0.00  0.00    +0.000 NA
ATOM     29  C   UNL     1      40.488  11.819  12.468  0.00  0.00    +0.000 A 
BRANCH  24  31
ATOM     30  C   UNL     1      37.570  10.101  10.919  0.00  0.00    +0.000 C 
ATOM     31  C   UNL     1      38.322  10.568  12.155  0.00  0.00    +0.000 C 
ENDBRANCH  24  31
ENDBRANCH  18  27
ENDBRANCH  17  22
ENDBRANCH   1  17
TORSDOF 7
ENDMDL
MODEL 7
REMARK VINA RESULT:    -6.563      4.254      7.763
REMARK INTER + INTRA:         -10.049
REMARK INTER:                  -8.746
REMARK INTRA:                  -1.303
REMARK UNBOUND:                -0.800
REMARK  Name = 
REMARK  9 active torsions:
REMARK  status: ('A' for Active; 'I' for Inactive)
REMARK    1  A    between atoms: C_1  and  C_2
REMARK    2  A    between atoms: C_2  and  C_3
REMARK    3  A    between atoms: C_6  and  C_7
REMARK    4  A    between atoms: C_11  and  C_12
REMARK    5  A    between atoms: C_12  and  C_13
REMARK    6  A    between atoms: C_13  and  C_14
REMARK    7  A    between atoms: C_13  and  N_15
REMARK    8  A    between atoms: N_15  and  C_16
REMARK    9  A    between atoms: C_19  and  C_20
REMARK                            x       y       z     vdW  Elec       q    Type
REMARK                         _______ _______ _______ _____ _____    ______ ____
ROOT
ATOM      1  C   UNL     1      48.933   7.888  12.217  0.00  0.00    +0.000 C 
ATOM      2  C   UNL     1      50.464   7.925  12.303  0.00  0.00    +0.000 C 
ENDROOT
BRANCH   1   3
ATOM      3  N   UNL     1      48.405   6.646  12.844  0.00  0.00    +0.000 N 
ATOM      4  H   UNL     1      48.594   6.601  13.845  0.00  0.00    +0.000 HD
BRANCH   3   5
ATOM      5  C   UNL     1      47.119   6.184  12.536  0.00  0.00    +0.000 A 
ATOM      6  C   UNL     1      46.486   6.531  11.330  0.00  0.00    +0.000 A 
ATOM      7  N   UNL     1      45.224   6.177  10.962  0.00  0.00    +0.000 NA
ATOM      8  C   UNL     1      44.513   5.447  11.875  0.00  0.00    +0.000 A 
ATOM      9  C   UNL     1      45.028   5.090  13.110  0.00  0.00    +0.000 A 
ATOM     10  F   UNL     1      44.322   4.399  14.014  0.00  0.00    +0.000 F 
ATOM     11  C   UNL     1      46.325   5.472  13.435  0.00  0.00    +0.000 A 
BRANCH   8  12
ATOM     12  C   UNL     1      43.123   5.052  11.497  0.00  0.00    +0.000 C 
ATOM     13  N   UNL     1      42.166   6.018  11.669  0.00  0.00    +0.000 N 
ATOM     14  O   UNL     1      42.817   3.952  11.058  0.00  0.00    +0.000 OA
ATOM     15  H   UNL     1      42.422   6.927  12.045  0.00  0.00    +0.000 HD
ATOM     16  H   UNL     1      41.209   5.804  11.450  0.00  0.00    +0.000 HD
ENDBRANCH   8  12
ENDBRANCH   3   5
ENDBRANCH   1   3
BRANCH   1  17
ATOM     17  C   UNL     1      48.334   9.120  12.946  0.00  0.00    +0.000 C 
BRANCH  17  22
ATOM     18  C   UNL     1      45.291  10.890  11.367  0.00  0.00    +0.000 A 
ATOM     19  C   UNL     1      45.953  11.935  10.698  0.00  0.00    +0.000 A 
ATOM     20  C   UNL     1      47.345  12.016  10.674  0.00  0.00    +0.000 A 
ATOM     21  C   UNL     1      48.112  11.073  11.355  0.00  0.00    +0.000 A 
ATOM     22  C   UNL     1      47.496  10.057  12.095  0.00  0.00    +0.000 A 
ATOM     23  C   UNL     1      46.093   9.969  12.078  0.00  0.00    +0.000 A 
BRANCH  18  27
ATOM     24  C   UNL     1      41.111  10.568  11.160  0.00  0.00    +0.000 A 
ATOM     25  C   UNL     1      41.744  11.670  11.690  0.00  0.00    +0.000 A 
ATOM     26  N   UNL     1      43.081  11.793  11.782  0.00  0.00    +0.000 NA
ATOM     27  C   UNL     1      43.820  10.763  11.316  0.00  0.00    +0.000 A 
ATOM     28  N   UNL     1      43.300   9.647  10.769  0.00  0.00    +0.000 NA
ATOM     29  C   UNL     1      41.957   9.580  10.701  0.00  0.00    +0.000 A 
BRANCH  24  31
ATOM     30  C   UNL     1      38.939  11.806  11.248  0.00  0.00    +0.000 C 
ATOM     31  C   UNL     1      39.622  10.460  11.059  0.00  0.00    +0.000 C 
ENDBRANCH  24  31
ENDBRANCH  18  27
ENDBRANCH  17  22
ENDBRANCH   1  17
TORSDOF 7
ENDMDL
MODEL 8
REMARK VINA RESULT:    -6.508      3.696      6.236
REMARK INTER + INTRA:          -9.972
REMARK INTER:                  -9.157
REMARK INTRA:                  -0.814
REMARK UNBOUND:                -0.800
REMARK  Name = 
REMARK  9 active torsions:
REMARK  status: ('A' for Active; 'I' for Inactive)
REMARK    1  A    between atoms: C_1  and  C_2
REMARK    2  A    between atoms: C_2  and  C_3
REMARK    3  A    between atoms: C_6  and  C_7
REMARK    4  A    between atoms: C_11  and  C_12
REMARK    5  A    between atoms: C_12  and  C_13
REMARK    6  A    between atoms: C_13  and  C_14
REMARK    7  A    between atoms: C_13  and  N_15
REMARK    8  A    between atoms: N_15  and  C_16
REMARK    9  A    between atoms: C_19  and  C_20
REMARK                            x       y       z     vdW  Elec       q    Type
REMARK                         _______ _______ _______ _____ _____    ______ ____
ROOT
ATOM      1  C   UNL     1      48.530   7.308  14.955  0.00  0.00    +0.000 C 
ATOM      2  C   UNL     1      49.866   7.886  14.468  0.00  0.00    +0.000 C 
ENDROOT
BRANCH   1   3
ATOM      3  N   UNL     1      48.191   6.072  14.199  0.00  0.00    +0.000 N 
ATOM      4  H   UNL     1      48.356   5.224  14.740  0.00  0.00    +0.000 HD
BRANCH   3   5
ATOM      5  C   UNL     1      47.005   5.994  13.458  0.00  0.00    +0.000 A 
ATOM      6  C   UNL     1      46.672   6.972  12.505  0.00  0.00    +0.000 A 
ATOM      7  N   UNL     1      45.524   7.014  11.773  0.00  0.00    +0.000 NA
ATOM      8  C   UNL     1      44.612   6.026  12.027  0.00  0.00    +0.000 A 
ATOM      9  C   UNL     1      44.823   5.040  12.976  0.00  0.00    +0.000 A 
ATOM     10  F   UNL     1      43.920   4.089  13.244  0.00  0.00    +0.000 F 
ATOM     11  C   UNL     1      46.015   5.039  13.693  0.00  0.00    +0.000 A 
BRANCH   8  12
ATOM     12  C   UNL     1      43.342   6.054  11.242  0.00  0.00    +0.000 C 
ATOM     13  N   UNL     1      42.717   7.272  11.172  0.00  0.00    +0.000 N 
ATOM     14  O   UNL     1      42.859   5.080  10.682  0.00  0.00    +0.000 OA
ATOM     15  H   UNL     1      43.114   8.077  11.648  0.00  0.00    +0.000 HD
ATOM     16  H   UNL     1      41.847   7.348  10.674  0.00  0.00    +0.000 HD
ENDBRANCH   8  12
ENDBRANCH   3   5
ENDBRANCH   1   3
BRANCH   1  17
ATOM     17  C   UNL     1      48.621   6.972  16.467  0.00  0.00    +0.000 C 
BRANCH  17  22
ATOM     18  C   UNL     1      49.821   3.443  17.462  0.00  0.00    +0.000 A 
ATOM     19  C   UNL     1      48.575   2.835  17.704  0.00  0.00    +0.000 A 
ATOM     20  C   UNL     1      47.378   3.509  17.464  0.00  0.00    +0.000 A 
ATOM     21  C   UNL     1      47.397   4.827  17.012  0.00  0.00    +0.000 A 
ATOM     22  C   UNL     1      48.612   5.497  16.825  0.00  0.00    +0.000 A 
ATOM     23  C   UNL     1      49.809   4.790  17.037  0.00  0.00    +0.000 A 
BRANCH  18  27
ATOM     24  C   UNL     1      53.386   1.302  18.031  0.00  0.00    +0.000 A 
ATOM     25  C   UNL     1      53.256   2.629  18.373  0.00  0.00    +0.000 A 
ATOM     26  N   UNL     1      52.130   3.342  18.188  0.00  0.00    +0.000 NA
ATOM     27  C   UNL     1      51.082   2.693  17.637  0.00  0.00    +0.000 A 
ATOM     28  N   UNL     1      51.101   1.395  17.279  0.00  0.00    +0.000 NA
ATOM     29  C   UNL     1      52.254   0.730  17.489  0.00  0.00    +0.000 A 
BRANCH  24  31
ATOM     30  C   UNL     1      54.369  -0.940  18.546  0.00  0.00    +0.000 C 
ATOM     31  C   UNL     1      54.645   0.527  18.256  0.00  0.00    +0.000 C 
ENDBRANCH  24  31
ENDBRANCH  18  27
ENDBRANCH  17  22
ENDBRANCH   1  17
TORSDOF 7
ENDMDL
MODEL 9
REMARK VINA RESULT:    -6.489      3.091      5.360
REMARK INTER + INTRA:          -9.944
REMARK INTER:                  -9.250
REMARK INTRA:                  -0.694
REMARK UNBOUND:                -0.800
REMARK  Name = 
REMARK  9 active torsions:
REMARK  status: ('A' for Active; 'I' for Inactive)
REMARK    1  A    between atoms: C_1  and  C_2
REMARK    2  A    between atoms: C_2  and  C_3
REMARK    3  A    between atoms: C_6  and  C_7
REMARK    4  A    between atoms: C_11  and  C_12
REMARK    5  A    between atoms: C_12  and  C_13
REMARK    6  A    between atoms: C_13  and  C_14
REMARK    7  A    between atoms: C_13  and  N_15
REMARK    8  A    between atoms: N_15  and  C_16
REMARK    9  A    between atoms: C_19  and  C_20
REMARK                            x       y       z     vdW  Elec       q    Type
REMARK                         _______ _______ _______ _____ _____    ______ ____
ROOT
ATOM      1  C   UNL     1      48.433   7.779  13.797  0.00  0.00    +0.000 C 
ATOM      2  C   UNL     1      49.415   7.254  12.742  0.00  0.00    +0.000 C 
ENDROOT
BRANCH   1   3
ATOM      3  N   UNL     1      47.532   6.689  14.260  0.00  0.00    +0.000 N 
ATOM      4  H   UNL     1      47.059   6.915  15.134  0.00  0.00    +0.000 HD
BRANCH   3   5
ATOM      5  C   UNL     1      46.678   6.041  13.358  0.00  0.00    +0.000 A 
ATOM      6  C   UNL     1      45.858   6.767  12.476  0.00  0.00    +0.000 A 
ATOM      7  N   UNL     1      44.960   6.235  11.602  0.00  0.00    +0.000 NA
ATOM      8  C   UNL     1      44.835   4.872  11.622  0.00  0.00    +0.000 A 
ATOM      9  C   UNL     1      45.564   4.068  12.483  0.00  0.00    +0.000 A 
ATOM     10  F   UNL     1      45.421   2.737  12.522  0.00  0.00    +0.000 F 
ATOM     11  C   UNL     1      46.472   4.662  13.353  0.00  0.00    +0.000 A 
BRANCH   8  12
ATOM     12  C   UNL     1      43.852   4.265  10.677  0.00  0.00    +0.000 C 
ATOM     13  N   UNL     1      44.034   4.575   9.354  0.00  0.00    +0.000 N 
ATOM     14  O   UNL     1      42.933   3.534  11.019  0.00  0.00    +0.000 OA
ATOM     15  H   UNL     1      44.791   5.193   9.075  0.00  0.00    +0.000 HD
ATOM     16  H   UNL     1      43.390   4.211   8.673  0.00  0.00    +0.000 HD
ENDBRANCH   8  12
ENDBRANCH   3   5
ENDBRANCH   1   3
BRANCH   1  17
ATOM     17  C   UNL     1      49.217   8.342  15.013  0.00  0.00    +0.000 C 
BRANCH  17  22
ATOM     18  C   UNL     1      49.930   5.550  17.577  0.00  0.00    +0.000 A 
ATOM     19  C   UNL     1      49.271   6.090  18.696  0.00  0.00    +0.000 A 
ATOM     20  C   UNL     1      48.536   7.272  18.607  0.00  0.00    +0.000 A 
ATOM     21  C   UNL     1      48.476   7.968  17.401  0.00  0.00    +0.000 A 
ATOM     22  C   UNL     1      49.175   7.507  16.279  0.00  0.00    +0.000 A 
ATOM     23  C   UNL     1      49.880   6.294  16.377  0.00  0.00    +0.000 A 
BRANCH  18  27
ATOM     24  C   UNL     1      51.960   1.879  17.743  0.00  0.00    +0.000 A 
ATOM     25  C   UNL     1      50.754   2.031  17.096  0.00  0.00    +0.000 A 
ATOM     26  N   UNL     1      50.075   3.191  17.040  0.00  0.00    +0.000 NA
ATOM     27  C   UNL     1      50.634   4.254  17.659  0.00  0.00    +0.000 A 
ATOM     28  N   UNL     1      51.814   4.215  18.308  0.00  0.00    +0.000 NA
ATOM     29  C   UNL     1      52.450   3.028  18.330  0.00  0.00    +0.000 A 
BRANCH  24  31
ATOM     30  C   UNL     1      54.001   0.642  16.995  0.00  0.00    +0.000 C 
ATOM     31  C   UNL     1      52.701   0.581  17.781  0.00  0.00    +0.000 C 
ENDBRANCH  24  31
ENDBRANCH  18  27
ENDBRANCH  17  22
ENDBRANCH   1  17
TORSDOF 7
ENDMDL
