MODEL 1
REMARK VINA RESULT:    -7.882      0.000      0.000
REMARK INTER + INTRA:         -13.537
REMARK INTER:                 -12.028
REMARK INTRA:                  -1.509
REMARK UNBOUND:                -1.509
REMARK  Name = 
REMARK  11 active torsions:
REMARK  status: ('A' for Active; 'I' for Inactive)
REMARK    1  A    between atoms: C_1  and  O_2
REMARK    2  A    between atoms: O_2  and  C_3
REMARK    3  A    between atoms: C_8  and  C_9
REMARK    4  A    between atoms: C_9  and  N_10
REMARK    5  A    between atoms: N_10  and  C_11
REMARK    6  A    between atoms: C_11  and  C_12
REMARK    7  A    between atoms: C_15  and  C_16
REMARK    8  A    between atoms: C_16  and  N_17
REMARK    9  A    between atoms: C_18  and  C_20
REMARK   10  A    between atoms: C_27  and  O_28
REMARK   11  A    between atoms: O_28  and  C_29
REMARK                            x       y       z     vdW  Elec       q    Type
REMARK                         _______ _______ _______ _____ _____    ______ ____
ROOT
ATOM      1  C   UNL     1      44.456   4.592  11.399  0.00  0.00    +0.000 A 
ATOM      2  C   UNL     1      44.219   5.032  12.710  0.00  0.00    +0.000 A 
ATOM      3  C   UNL     1      44.918   6.123  13.235  0.00  0.00    +0.000 A 
ATOM      4  C   UNL     1      45.860   6.806  12.457  0.00  0.00    +0.000 A 
ATOM      5  C   UNL     1      46.103   6.361  11.150  0.00  0.00    +0.000 A 
ATOM      6  C   UNL     1      45.413   5.262  10.629  0.00  0.00    +0.000 A 
ENDROOT
BRANCH   1   7
ATOM      7  C   UNL     1      43.672   3.435  10.820  0.00  0.00    +0.000 C 
BRANCH   7   8
ATOM      8  N   UNL     1      43.889   3.249   9.383  0.00  0.00    +0.000 NA
ATOM      9  H   UNL     1      42.985   3.163   8.921  0.00  0.00    +0.000 HD
BRANCH   8  10
ATOM     10  C   UNL     1      44.646   2.022   9.097  0.00  0.00    +0.000 C 
BRANCH  10  16
ATOM     11  C   UNL     1      46.660   1.267   7.711  0.00  0.00    +0.000 A 
ATOM     12  C   UNL     1      47.695   1.581   6.819  0.00  0.00    +0.000 A 
ATOM     13  C   UNL     1      47.819   2.868   6.293  0.00  0.00    +0.000 A 
ATOM     14  C   UNL     1      46.901   3.853   6.636  0.00  0.00    +0.000 A 
ATOM     15  C   UNL     1      45.866   3.552   7.518  0.00  0.00    +0.000 A 
ATOM     16  C   UNL     1      45.730   2.262   8.066  0.00  0.00    +0.000 A 
BRANCH  11  18
ATOM     17  C   UNL     1      46.646  -1.091   7.394  0.00  0.00    +0.000 C 
ATOM     18  O   UNL     1      46.469   0.025   8.259  0.00  0.00    +0.000 OA
ENDBRANCH  11  18
ENDBRANCH  10  16
ENDBRANCH   8  10
ENDBRANCH   7   8
ENDBRANCH   1   7
BRANCH   4  19
ATOM     19  C   UNL     1      46.633   7.969  13.023  0.00  0.00    +0.000 C 
BRANCH  19  20
ATOM     20  N   UNL     1      47.325   7.592  14.229  0.00  0.00    +0.000 N 
ATOM     21  C   UNL     1      48.443   6.800  14.202  0.00  0.00    +0.000 C 
ATOM     22  O   UNL     1      48.976   6.463  13.149  0.00  0.00    +0.000 OA
ATOM     23  H   UNL     1      46.833   7.694  15.107  0.00  0.00    +0.000 HD
BRANCH  21  24
ATOM     24  C   UNL     1      49.011   6.436  15.507  0.00  0.00    +0.000 A 
ATOM     25  C   UNL     1      50.129   7.120  15.966  0.00  0.00    +0.000 A 
ATOM     26  S   UNL     1      50.626   6.649  17.522  0.00  0.00    +0.000 S 
ATOM     27  C   UNL     1      49.401   5.474  17.610  0.00  0.00    +0.000 A 
ATOM     28  N   UNL     1      49.303   4.712  18.719  0.00  0.00    +0.000 NA
ATOM     29  C   UNL     1      48.321   3.800  18.679  0.00  0.00    +0.000 A 
ATOM     30  C   UNL     1      47.462   3.604  17.618  0.00  0.00    +0.000 A 
ATOM     31  C   UNL     1      47.588   4.411  16.485  0.00  0.00    +0.000 A 
ATOM     32  C   UNL     1      48.598   5.418  16.473  0.00  0.00    +0.000 A 
BRANCH  31  33
ATOM     33  O   UNL     1      46.801   4.279  15.371  0.00  0.00    +0.000 OA
ATOM     34  C   UNL     1      47.260   3.428  14.328  0.00  0.00    +0.000 C 
ENDBRANCH  31  33
ENDBRANCH  21  24
ENDBRANCH  19  20
ENDBRANCH   4  19
TORSDOF 9
ENDMDL
MODEL 2
REMARK VINA RESULT:    -7.423      2.202      2.885
REMARK INTER + INTRA:         -12.837
REMARK INTER:                 -11.298
REMARK INTRA:                  -1.539
REMARK UNBOUND:                -1.509
REMARK  Name = 
REMARK  11 active torsions:
REMARK  status: ('A' for Active; 'I' for Inactive)
REMARK    1  A    between atoms: C_1  and  O_2
REMARK    2  A    between atoms: O_2  and  C_3
REMARK    3  A    between atoms: C_8  and  C_9
REMARK    4  A    between atoms: C_9  and  N_10
REMARK    5  A    between atoms: N_10  and  C_11
REMARK    6  A    between atoms: C_11  and  C_12
REMARK    7  A    between atoms: C_15  and  C_16
REMARK    8  A    between atoms: C_16  and  N_17
REMARK    9  A    between atoms: C_18  and  C_20
REMARK   10  A    between atoms: C_27  and  O_28
REMARK   11  A    between atoms: O_28  and  C_29
REMARK                            x       y       z     vdW  Elec       q    Type
REMARK                         _______ _______ _______ _____ _____    ______ ____
ROOT
ATOM      1  C   UNL     1      44.586   4.551  11.829  0.00  0.00    +0.000 A 
ATOM      2  C   UNL     1      45.152   5.719  11.297  0.00  0.00    +0.000 A 
ATOM      3  C   UNL     1      46.256   6.321  11.909  0.00  0.00    +0.000 A 
ATOM      4  C   UNL     1      46.825   5.762  13.058  0.00  0.00    +0.000 A 
ATOM      5  C   UNL     1      46.254   4.600  13.595  0.00  0.00    +0.000 A 
ATOM      6  C   UNL     1      45.143   4.004  12.991  0.00  0.00    +0.000 A 
ENDROOT
BRANCH   1   7
ATOM      7  C   UNL     1      43.416   3.880  11.145  0.00  0.00    +0.000 C 
BRANCH   7   8
ATOM      8  N   UNL     1      43.652   3.608   9.724  0.00  0.00    +0.000 NA
ATOM      9  H   UNL     1      42.758   3.417   9.272  0.00  0.00    +0.000 HD
BRANCH   8  10
ATOM     10  C   UNL     1      44.504   2.427   9.527  0.00  0.00    +0.000 C 
BRANCH  10  16
ATOM     11  C   UNL     1      46.359   1.636   7.950  0.00  0.00    +0.000 A 
ATOM     12  C   UNL     1      47.387   1.946   7.049  0.00  0.00    +0.000 A 
ATOM     13  C   UNL     1      47.640   3.267   6.680  0.00  0.00    +0.000 A 
ATOM     14  C   UNL     1      46.859   4.296   7.192  0.00  0.00    +0.000 A 
ATOM     15  C   UNL     1      45.831   4.002   8.084  0.00  0.00    +0.000 A 
ATOM     16  C   UNL     1      45.567   2.675   8.476  0.00  0.00    +0.000 A 
BRANCH  11  18
ATOM     17  C   UNL     1      46.641  -0.703   7.621  0.00  0.00    +0.000 C 
ATOM     18  O   UNL     1      46.045   0.363   8.350  0.00  0.00    +0.000 OA
ENDBRANCH  11  18
ENDBRANCH  10  16
ENDBRANCH   8  10
ENDBRANCH   7   8
ENDBRANCH   1   7
BRANCH   4  19
ATOM     19  C   UNL     1      48.001   6.417  13.735  0.00  0.00    +0.000 C 
BRANCH  19  20
ATOM     20  N   UNL     1      47.862   6.376  15.169  0.00  0.00    +0.000 N 
ATOM     21  C   UNL     1      48.951   6.351  15.999  0.00  0.00    +0.000 C 
ATOM     22  O   UNL     1      50.097   6.474  15.574  0.00  0.00    +0.000 OA
ATOM     23  H   UNL     1      46.965   6.101  15.548  0.00  0.00    +0.000 HD
BRANCH  21  24
ATOM     24  C   UNL     1      48.669   6.242  17.437  0.00  0.00    +0.000 A 
ATOM     25  C   UNL     1      48.846   5.016  18.064  0.00  0.00    +0.000 A 
ATOM     26  S   UNL     1      48.562   5.059  19.739  0.00  0.00    +0.000 S 
ATOM     27  C   UNL     1      48.134   6.702  19.673  0.00  0.00    +0.000 A 
ATOM     28  N   UNL     1      47.772   7.331  20.811  0.00  0.00    +0.000 NA
ATOM     29  C   UNL     1      47.430   8.617  20.648  0.00  0.00    +0.000 A 
ATOM     30  C   UNL     1      47.419   9.289  19.444  0.00  0.00    +0.000 A 
ATOM     31  C   UNL     1      47.801   8.610  18.284  0.00  0.00    +0.000 A 
ATOM     32  C   UNL     1      48.200   7.246  18.393  0.00  0.00    +0.000 A 
BRANCH  31  33
ATOM     33  O   UNL     1      47.800   9.182  17.038  0.00  0.00    +0.000 OA
ATOM     34  C   UNL     1      48.884  10.037  16.698  0.00  0.00    +0.000 C 
ENDBRANCH  31  33
ENDBRANCH  21  24
ENDBRANCH  19  20
ENDBRANCH   4  19
TORSDOF 9
ENDMDL
MODEL 3
REMARK VINA RESULT:    -6.886      1.353      2.085
REMARK INTER + INTRA:         -12.017
REMARK INTER:                 -10.980
REMARK INTRA:                  -1.038
REMARK UNBOUND:                -1.509
REMARK  Name = 
REMARK  11 active torsions:
REMARK  status: ('A' for Active; 'I' for Inactive)
REMARK    1  A    between atoms: C_1  and  O_2
REMARK    2  A    between atoms: O_2  and  C_3
REMARK    3  A    between atoms: C_8  and  C_9
REMARK    4  A    between atoms: C_9  and  N_10
REMARK    5  A    between atoms: N_10  and  C_11
REMARK    6  A    between atoms: C_11  and  C_12
REMARK    7  A    between atoms: C_15  and  C_16
REMARK    8  A    between atoms: C_16  and  N_17
REMARK    9  A    between atoms: C_18  and  C_20
REMARK   10  A    between atoms: C_27  and  O_28
REMARK   11  A    between atoms: O_28  and  C_29
REMARK                            x       y       z     vdW  Elec       q    Type
REMARK                         _______ _______ _______ _____ _____    ______ ____
ROOT
ATOM      1  C   UNL     1      45.614   6.615  11.209  0.00  0.00    +0.000 A 
ATOM      2  C   UNL     1      47.013   6.535  11.156  0.00  0.00    +0.000 A 
ATOM      3  C   UNL     1      47.803   7.200  12.098  0.00  0.00    +0.000 A 
ATOM      4  C   UNL     1      47.212   7.950  13.121  0.00  0.00    +0.000 A 
ATOM      5  C   UNL     1      45.814   8.038  13.169  0.00  0.00    +0.000 A 
ATOM      6  C   UNL     1      45.023   7.382  12.220  0.00  0.00    +0.000 A 
ENDROOT
BRANCH   1   7
ATOM      7  C   UNL     1      44.759   5.864  10.213  0.00  0.00    +0.000 C 
BRANCH   7   8
ATOM      8  N   UNL     1      45.512   5.373   9.056  0.00  0.00    +0.000 NA
ATOM      9  H   UNL     1      45.674   6.149   8.415  0.00  0.00    +0.000 HD
BRANCH   8  10
ATOM     10  C   UNL     1      44.770   4.342   8.316  0.00  0.00    +0.000 C 
BRANCH  10  16
ATOM     11  C   UNL     1      45.558   1.907   8.374  0.00  0.00    +0.000 A 
ATOM     12  C   UNL     1      46.488   0.932   7.987  0.00  0.00    +0.000 A 
ATOM     13  C   UNL     1      47.533   1.247   7.119  0.00  0.00    +0.000 A 
ATOM     14  C   UNL     1      47.654   2.535   6.611  0.00  0.00    +0.000 A 
ATOM     15  C   UNL     1      46.735   3.511   6.984  0.00  0.00    +0.000 A 
ATOM     16  C   UNL     1      45.679   3.215   7.867  0.00  0.00    +0.000 A 
BRANCH  11  18
ATOM     17  C   UNL     1      44.562   2.262  10.506  0.00  0.00    +0.000 C 
ATOM     18  O   UNL     1      44.500   1.670   9.214  0.00  0.00    +0.000 OA
ENDBRANCH  11  18
ENDBRANCH  10  16
ENDBRANCH   8  10
ENDBRANCH   7   8
ENDBRANCH   1   7
BRANCH   4  19
ATOM     19  C   UNL     1      48.058   8.687  14.126  0.00  0.00    +0.000 C 
BRANCH  19  20
ATOM     20  N   UNL     1      48.398   7.837  15.239  0.00  0.00    +0.000 N 
ATOM     21  C   UNL     1      49.627   7.240  15.340  0.00  0.00    +0.000 C 
ATOM     22  O   UNL     1      50.537   7.483  14.552  0.00  0.00    +0.000 OA
ATOM     23  H   UNL     1      47.642   7.474  15.804  0.00  0.00    +0.000 HD
BRANCH  21  24
ATOM     24  C   UNL     1      49.820   6.344  16.490  0.00  0.00    +0.000 A 
ATOM     25  C   UNL     1      50.926   6.533  17.308  0.00  0.00    +0.000 A 
ATOM     26  S   UNL     1      50.975   5.480  18.641  0.00  0.00    +0.000 S 
ATOM     27  C   UNL     1      49.554   4.697  18.137  0.00  0.00    +0.000 A 
ATOM     28  N   UNL     1      49.072   3.674  18.873  0.00  0.00    +0.000 NA
ATOM     29  C   UNL     1      47.962   3.109  18.377  0.00  0.00    +0.000 A 
ATOM     30  C   UNL     1      47.329   3.491  17.213  0.00  0.00    +0.000 A 
ATOM     31  C   UNL     1      47.851   4.555  16.474  0.00  0.00    +0.000 A 
ATOM     32  C   UNL     1      49.017   5.216  16.960  0.00  0.00    +0.000 A 
BRANCH  31  33
ATOM     33  O   UNL     1      47.310   4.993  15.294  0.00  0.00    +0.000 OA
ATOM     34  C   UNL     1      47.052   4.028  14.281  0.00  0.00    +0.000 C 
ENDBRANCH  31  33
ENDBRANCH  21  24
ENDBRANCH  19  20
ENDBRANCH   4  19
TORSDOF 9
ENDMDL
MODEL 4
REMARK VINA RESULT:    -6.761      3.101      5.444
REMARK INTER + INTRA:         -11.827
REMARK INTER:                 -10.347
REMARK INTRA:                  -1.480
REMARK UNBOUND:                -1.509
REMARK  Name = 
REMARK  11 active torsions:
REMARK  status: ('A' for Active; 'I' for Inactive)
REMARK    1  A    between atoms: C_1  and  O_2
REMARK    2  A    between atoms: O_2  and  C_3
REMARK    3  A    between atoms: C_8  and  C_9
REMARK    4  A    between atoms: C_9  and  N_10
REMARK    5  A    between atoms: N_10  and  C_11
REMARK    6  A    between atoms: C_11  and  C_12
REMARK    7  A    between atoms: C_15  and  C_16
REMARK    8  A    between atoms: C_16  and  N_17
REMARK    9  A    between atoms: C_18  and  C_20
REMARK   10  A    between atoms: C_27  and  O_28
REMARK   11  A    between atoms: O_28  and  C_29
REMARK                            x       y       z     vdW  Elec       q    Type
REMARK                         _______ _______ _______ _____ _____    ______ ____
ROOT
ATOM      1  C   UNL     1      47.480   5.866  13.685  0.00  0.00    +0.000 A 
ATOM      2  C   UNL     1      46.981   4.555  13.685  0.00  0.00    +0.000 A 
ATOM      3  C   UNL     1      47.092   3.748  14.821  0.00  0.00    +0.000 A 
ATOM      4  C   UNL     1      47.692   4.238  15.987  0.00  0.00    +0.000 A 
ATOM      5  C   UNL     1      48.198   5.545  15.984  0.00  0.00    +0.000 A 
ATOM      6  C   UNL     1      48.099   6.348  14.845  0.00  0.00    +0.000 A 
ENDROOT
BRANCH   1   7
ATOM      7  C   UNL     1      47.327   6.751  12.468  0.00  0.00    +0.000 C 
BRANCH   7   8
ATOM      8  N   UNL     1      45.987   7.331  12.337  0.00  0.00    +0.000 NA
ATOM      9  H   UNL     1      45.418   7.026  13.126  0.00  0.00    +0.000 HD
BRANCH   8  10
ATOM     10  C   UNL     1      45.314   6.883  11.110  0.00  0.00    +0.000 C 
BRANCH  10  16
ATOM     11  C   UNL     1      44.738   4.528  10.291  0.00  0.00    +0.000 A 
ATOM     12  C   UNL     1      44.050   3.321  10.481  0.00  0.00    +0.000 A 
ATOM     13  C   UNL     1      43.300   3.100  11.637  0.00  0.00    +0.000 A 
ATOM     14  C   UNL     1      43.241   4.073  12.626  0.00  0.00    +0.000 A 
ATOM     15  C   UNL     1      43.923   5.275  12.452  0.00  0.00    +0.000 A 
ATOM     16  C   UNL     1      44.677   5.520  11.289  0.00  0.00    +0.000 A 
BRANCH  11  18
ATOM     17  C   UNL     1      45.554   3.818   8.172  0.00  0.00    +0.000 C 
ATOM     18  O   UNL     1      45.502   4.812   9.189  0.00  0.00    +0.000 OA
ENDBRANCH  11  18
ENDBRANCH  10  16
ENDBRANCH   8  10
ENDBRANCH   7   8
ENDBRANCH   1   7
BRANCH   4  19
ATOM     19  C   UNL     1      47.833   3.367  17.207  0.00  0.00    +0.000 C 
BRANCH  19  20
ATOM     20  N   UNL     1      49.220   3.185  17.556  0.00  0.00    +0.000 N 
ATOM     21  C   UNL     1      50.009   2.266  16.917  0.00  0.00    +0.000 C 
ATOM     22  O   UNL     1      49.611   1.629  15.945  0.00  0.00    +0.000 OA
ATOM     23  H   UNL     1      49.534   3.549  18.445  0.00  0.00    +0.000 HD
BRANCH  21  24
ATOM     24  C   UNL     1      51.386   2.135  17.416  0.00  0.00    +0.000 A 
ATOM     25  C   UNL     1      51.908   0.864  17.614  0.00  0.00    +0.000 A 
ATOM     26  S   UNL     1      53.533   0.865  18.113  0.00  0.00    +0.000 S 
ATOM     27  C   UNL     1      53.575   2.564  18.138  0.00  0.00    +0.000 A 
ATOM     28  N   UNL     1      54.716   3.186  18.501  0.00  0.00    +0.000 NA
ATOM     29  C   UNL     1      54.636   4.525  18.513  0.00  0.00    +0.000 A 
ATOM     30  C   UNL     1      53.510   5.256  18.200  0.00  0.00    +0.000 A 
ATOM     31  C   UNL     1      52.345   4.582  17.826  0.00  0.00    +0.000 A 
ATOM     32  C   UNL     1      52.369   3.158  17.770  0.00  0.00    +0.000 A 
BRANCH  31  33
ATOM     33  O   UNL     1      51.169   5.217  17.522  0.00  0.00    +0.000 OA
ATOM     34  C   UNL     1      51.100   6.623  17.722  0.00  0.00    +0.000 C 
ENDBRANCH  31  33
ENDBRANCH  21  24
ENDBRANCH  19  20
ENDBRANCH   4  19
TORSDOF 9
ENDMDL
MODEL 5
REMARK VINA RESULT:    -6.693      5.167      9.587
REMARK INTER + INTRA:         -11.723
REMARK INTER:                 -10.473
REMARK INTRA:                  -1.250
REMARK UNBOUND:                -1.509
REMARK  Name = 
REMARK  11 active torsions:
REMARK  status: ('A' for Active; 'I' for Inactive)
REMARK    1  A    between atoms: C_1  and  O_2
REMARK    2  A    between atoms: O_2  and  C_3
REMARK    3  A    between atoms: C_8  and  C_9
REMARK    4  A    between atoms: C_9  and  N_10
REMARK    5  A    between atoms: N_10  and  C_11
REMARK    6  A    between atoms: C_11  and  C_12
REMARK    7  A    between atoms: C_15  and  C_16
REMARK    8  A    between atoms: C_16  and  N_17
REMARK    9  A    between atoms: C_18  and  C_20
REMARK   10  A    between atoms: C_27  and  O_28
REMARK   11  A    between atoms: O_28  and  C_29
REMARK                            x       y       z     vdW  Elec       q    Type
REMARK                         _______ _______ _______ _____ _____    ______ ____
ROOT
ATOM      1  C   UNL     1      51.390   3.019  17.783  0.00  0.00    +0.000 A 
ATOM      2  C   UNL     1      50.724   1.958  17.152  0.00  0.00    +0.000 A 
ATOM      3  C   UNL     1      49.362   2.049  16.848  0.00  0.00    +0.000 A 
ATOM      4  C   UNL     1      48.640   3.208  17.157  0.00  0.00    +0.000 A 
ATOM      5  C   UNL     1      49.303   4.264  17.795  0.00  0.00    +0.000 A 
ATOM      6  C   UNL     1      50.662   4.169  18.111  0.00  0.00    +0.000 A 
ENDROOT
BRANCH   1   7
ATOM      7  C   UNL     1      52.871   2.935  18.077  0.00  0.00    +0.000 C 
BRANCH   7   8
ATOM      8  N   UNL     1      53.273   1.657  18.671  0.00  0.00    +0.000 NA
ATOM      9  H   UNL     1      53.254   1.745  19.687  0.00  0.00    +0.000 HD
BRANCH   8  10
ATOM     10  C   UNL     1      54.642   1.282  18.289  0.00  0.00    +0.000 C 
BRANCH  10  16
ATOM     11  C   UNL     1      54.714  -1.247  18.677  0.00  0.00    +0.000 A 
ATOM     12  C   UNL     1      54.873  -2.541  18.161  0.00  0.00    +0.000 A 
ATOM     13  C   UNL     1      55.038  -2.749  16.791  0.00  0.00    +0.000 A 
ATOM     14  C   UNL     1      55.030  -1.669  15.916  0.00  0.00    +0.000 A 
ATOM     15  C   UNL     1      54.869  -0.379  16.415  0.00  0.00    +0.000 A 
ATOM     16  C   UNL     1      54.710  -0.149  17.795  0.00  0.00    +0.000 A 
BRANCH  11  18
ATOM     17  C   UNL     1      54.825  -2.013  20.926  0.00  0.00    +0.000 C 
ATOM     18  O   UNL     1      54.536  -0.967  20.007  0.00  0.00    +0.000 OA
ENDBRANCH  11  18
ENDBRANCH  10  16
ENDBRANCH   8  10
ENDBRANCH   7   8
ENDBRANCH   1   7
BRANCH   4  19
ATOM     19  C   UNL     1      47.167   3.304  16.852  0.00  0.00    +0.000 C 
BRANCH  19  20
ATOM     20  N   UNL     1      46.896   4.392  15.947  0.00  0.00    +0.000 N 
ATOM     21  C   UNL     1      47.025   4.250  14.590  0.00  0.00    +0.000 C 
ATOM     22  O   UNL     1      47.268   3.165  14.069  0.00  0.00    +0.000 OA
ATOM     23  H   UNL     1      46.868   5.328  16.329  0.00  0.00    +0.000 HD
BRANCH  21  24
ATOM     24  C   UNL     1      46.783   5.457  13.786  0.00  0.00    +0.000 A 
ATOM     25  C   UNL     1      47.747   6.456  13.772  0.00  0.00    +0.000 A 
ATOM     26  S   UNL     1      47.370   7.751  12.737  0.00  0.00    +0.000 S 
ATOM     27  C   UNL     1      45.880   7.049  12.321  0.00  0.00    +0.000 A 
ATOM     28  N   UNL     1      45.070   7.695  11.456  0.00  0.00    +0.000 NA
ATOM     29  C   UNL     1      43.909   7.069  11.214  0.00  0.00    +0.000 A 
ATOM     30  C   UNL     1      43.518   5.873  11.778  0.00  0.00    +0.000 A 
ATOM     31  C   UNL     1      44.380   5.229  12.667  0.00  0.00    +0.000 A 
ATOM     32  C   UNL     1      45.642   5.829  12.950  0.00  0.00    +0.000 A 
BRANCH  31  33
ATOM     33  O   UNL     1      44.073   4.051  13.298  0.00  0.00    +0.000 OA
ATOM     34  C   UNL     1      43.678   2.948  12.493  0.00  0.00    +0.000 C 
ENDBRANCH  31  33
ENDBRANCH  21  24
ENDBRANCH  19  20
ENDBRANCH   4  19
TORSDOF 9
ENDMDL
MODEL 6
REMARK VINA RESULT:    -6.580      2.111      3.339
REMARK INTER + INTRA:         -11.551
REMARK INTER:                 -10.335
REMARK INTRA:                  -1.216
REMARK UNBOUND:                -1.509
REMARK  Name = 
REMARK  11 active torsions:
REMARK  status: ('A' for Active; 'I' for Inactive)
REMARK    1  A    between atoms: C_1  and  O_2
REMARK    2  A    between atoms: O_2  and  C_3
REMARK    3  A    between atoms: C_8  and  C_9
REMARK    4  A    between atoms: C_9  and  N_10
REMARK    5  A    between atoms: N_10  and  C_11
REMARK    6  A    between atoms: C_11  and  C_12
REMARK    7  A    between atoms: C_15  and  C_16
REMARK    8  A    between atoms: C_16  and  N_17
REMARK    9  A    between atoms: C_18  and  C_20
REMARK   10  A    between atoms: C_27  and  O_28
REMARK   11  A    between atoms: O_28  and  C_29
REMARK                            x       y       z     vdW  Elec       q    Type
REMARK                         _______ _______ _______ _____ _____    ______ ____
ROOT
ATOM      1  C   UNL     1      46.127   7.387  12.518  0.00  0.00    +0.000 A 
ATOM      2  C   UNL     1      47.077   6.364  12.388  0.00  0.00    +0.000 A 
ATOM      3  C   UNL     1      48.358   6.505  12.931  0.00  0.00    +0.000 A 
ATOM      4  C   UNL     1      48.713   7.667  13.626  0.00  0.00    +0.000 A 
ATOM      5  C   UNL     1      47.766   8.693  13.748  0.00  0.00    +0.000 A 
ATOM      6  C   UNL     1      46.489   8.558  13.195  0.00  0.00    +0.000 A 
ENDROOT
BRANCH   1   7
ATOM      7  C   UNL     1      44.729   7.218  11.964  0.00  0.00    +0.000 C 
BRANCH   7   8
ATOM      8  N   UNL     1      44.703   6.601  10.635  0.00  0.00    +0.000 NA
ATOM      9  H   UNL     1      44.323   7.271   9.968  0.00  0.00    +0.000 HD
BRANCH   8  10
ATOM     10  C   UNL     1      43.842   5.410  10.601  0.00  0.00    +0.000 C 
BRANCH  10  16
ATOM     11  C   UNL     1      44.177   2.947   9.995  0.00  0.00    +0.000 A 
ATOM     12  C   UNL     1      44.841   1.972   9.237  0.00  0.00    +0.000 A 
ATOM     13  C   UNL     1      45.769   2.336   8.261  0.00  0.00    +0.000 A 
ATOM     14  C   UNL     1      46.035   3.678   8.017  0.00  0.00    +0.000 A 
ATOM     15  C   UNL     1      45.380   4.656   8.761  0.00  0.00    +0.000 A 
ATOM     16  C   UNL     1      44.447   4.308   9.756  0.00  0.00    +0.000 A 
BRANCH  11  18
ATOM     17  C   UNL     1      43.715   2.600  12.303  0.00  0.00    +0.000 C 
ATOM     18  O   UNL     1      43.247   2.666  10.962  0.00  0.00    +0.000 OA
ENDBRANCH  11  18
ENDBRANCH  10  16
ENDBRANCH   8  10
ENDBRANCH   7   8
ENDBRANCH   1   7
BRANCH   4  19
ATOM     19  C   UNL     1      50.098   7.835  14.194  0.00  0.00    +0.000 C 
BRANCH  19  20
ATOM     20  N   UNL     1      50.141   7.437  15.579  0.00  0.00    +0.000 N 
ATOM     21  C   UNL     1      51.293   6.983  16.163  0.00  0.00    +0.000 C 
ATOM     22  O   UNL     1      52.371   6.995  15.574  0.00  0.00    +0.000 OA
ATOM     23  H   UNL     1      49.262   7.245  16.042  0.00  0.00    +0.000 HD
BRANCH  21  24
ATOM     24  C   UNL     1      51.183   6.546  17.562  0.00  0.00    +0.000 A 
ATOM     25  C   UNL     1      52.129   6.988  18.478  0.00  0.00    +0.000 A 
ATOM     26  S   UNL     1      51.829   6.472  20.069  0.00  0.00    +0.000 S 
ATOM     27  C   UNL     1      50.461   5.592  19.578  0.00  0.00    +0.000 A 
ATOM     28  N   UNL     1      49.757   4.905  20.502  0.00  0.00    +0.000 NA
ATOM     29  C   UNL     1      48.712   4.225  20.009  0.00  0.00    +0.000 A 
ATOM     30  C   UNL     1      48.347   4.185  18.680  0.00  0.00    +0.000 A 
ATOM     31  C   UNL     1      49.095   4.909  17.748  0.00  0.00    +0.000 A 
ATOM     32  C   UNL     1      50.205   5.673  18.211  0.00  0.00    +0.000 A 
BRANCH  31  33
ATOM     33  O   UNL     1      48.828   4.914  16.404  0.00  0.00    +0.000 OA
ATOM     34  C   UNL     1      47.516   4.557  15.984  0.00  0.00    +0.000 C 
ENDBRANCH  31  33
ENDBRANCH  21  24
ENDBRANCH  19  20
ENDBRANCH   4  19
TORSDOF 9
ENDMDL
MODEL 7
REMARK VINA RESULT:    -6.448      2.094      2.943
REMARK INTER + INTRA:         -11.349
REMARK INTER:                 -10.715
REMARK INTRA:                  -0.634
REMARK UNBOUND:                -1.509
REMARK  Name = 
REMARK  11 active torsions:
REMARK  status: ('A' for Active; 'I' for Inactive)
REMARK    1  A    between atoms: C_1  and  O_2
REMARK    2  A    between atoms: O_2  and  C_3
REMARK    3  A    between atoms: C_8  and  C_9
REMARK    4  A    between atoms: C_9  and  N_10
REMARK    5  A    between atoms: N_10  and  C_11
REMARK    6  A    between atoms: C_11  and  C_12
REMARK    7  A    between atoms: C_15  and  C_16
REMARK    8  A    between atoms: C_16  and  N_17
REMARK    9  A    between atoms: C_18  and  C_20
REMARK   10  A    between atoms: C_27  and  O_28
REMARK   11  A    between atoms: O_28  and  C_29
REMARK                            x       y       z     vdW  Elec       q    Type
REMARK                         _______ _______ _______ _____ _____    ______ ____
ROOT
ATOM      1  C   UNL     1      45.574   6.562  11.404  0.00  0.00    +0.000 A 
ATOM      2  C   UNL     1      46.859   6.146  11.783  0.00  0.00    +0.000 A 
ATOM      3  C   UNL     1      47.602   6.880  12.713  0.00  0.00    +0.000 A 
ATOM      4  C   UNL     1      47.072   8.037  13.293  0.00  0.00    +0.000 A 
ATOM      5  C   UNL     1      45.792   8.458  12.908  0.00  0.00    +0.000 A 
ATOM      6  C   UNL     1      45.053   7.732  11.969  0.00  0.00    +0.000 A 
ENDROOT
BRANCH   1   7
ATOM      7  C   UNL     1      44.756   5.747  10.426  0.00  0.00    +0.000 C 
BRANCH   7   8
ATOM      8  N   UNL     1      45.488   5.400   9.205  0.00  0.00    +0.000 NA
ATOM      9  H   UNL     1      45.599   6.239   8.637  0.00  0.00    +0.000 HD
BRANCH   8  10
ATOM     10  C   UNL     1      44.763   4.413   8.393  0.00  0.00    +0.000 C 
BRANCH  10  16
ATOM     11  C   UNL     1      45.519   1.968   8.383  0.00  0.00    +0.000 A 
ATOM     12  C   UNL     1      46.450   0.997   7.990  0.00  0.00    +0.000 A 
ATOM     13  C   UNL     1      47.529   1.331   7.171  0.00  0.00    +0.000 A 
ATOM     14  C   UNL     1      47.683   2.636   6.718  0.00  0.00    +0.000 A 
ATOM     15  C   UNL     1      46.762   3.609   7.098  0.00  0.00    +0.000 A 
ATOM     16  C   UNL     1      45.673   3.293   7.931  0.00  0.00    +0.000 A 
BRANCH  11  18
ATOM     17  C   UNL     1      44.468   2.226  10.501  0.00  0.00    +0.000 C 
ATOM     18  O   UNL     1      44.430   1.712   9.175  0.00  0.00    +0.000 OA
ENDBRANCH  11  18
ENDBRANCH  10  16
ENDBRANCH   8  10
ENDBRANCH   7   8
ENDBRANCH   1   7
BRANCH   4  19
ATOM     19  C   UNL     1      47.876   8.844  14.280  0.00  0.00    +0.000 C 
BRANCH  19  20
ATOM     20  N   UNL     1      48.070   8.115  15.508  0.00  0.00    +0.000 N 
ATOM     21  C   UNL     1      48.376   8.750  16.682  0.00  0.00    +0.000 C 
ATOM     22  O   UNL     1      48.390   9.975  16.776  0.00  0.00    +0.000 OA
ATOM     23  H   UNL     1      48.240   7.120  15.444  0.00  0.00    +0.000 HD
BRANCH  21  24
ATOM     24  C   UNL     1      48.615   7.884  17.845  0.00  0.00    +0.000 A 
ATOM     25  C   UNL     1      48.023   8.212  19.058  0.00  0.00    +0.000 A 
ATOM     26  S   UNL     1      48.319   7.078  20.289  0.00  0.00    +0.000 S 
ATOM     27  C   UNL     1      49.297   6.144  19.261  0.00  0.00    +0.000 A 
ATOM     28  N   UNL     1      49.867   5.019  19.742  0.00  0.00    +0.000 NA
ATOM     29  C   UNL     1      50.639   4.369  18.859  0.00  0.00    +0.000 A 
ATOM     30  C   UNL     1      50.875   4.772  17.561  0.00  0.00    +0.000 A 
ATOM     31  C   UNL     1      50.268   5.940  17.093  0.00  0.00    +0.000 A 
ATOM     32  C   UNL     1      49.415   6.666  17.975  0.00  0.00    +0.000 A 
BRANCH  31  33
ATOM     33  O   UNL     1      50.459   6.437  15.830  0.00  0.00    +0.000 OA
ATOM     34  C   UNL     1      51.565   7.306  15.617  0.00  0.00    +0.000 C 
ENDBRANCH  31  33
ENDBRANCH  21  24
ENDBRANCH  19  20
ENDBRANCH   4  19
TORSDOF 9
ENDMDL
MODEL 8
REMARK VINA RESULT:    -6.427      4.193      9.820
REMARK INTER + INTRA:         -11.318
REMARK INTER:                  -8.586
REMARK INTRA:                  -2.731
REMARK UNBOUND:                -1.509
REMARK  Name = 
REMARK  11 active torsions:
REMARK  status: ('A' for Active; 'I' for Inactive)
REMARK    1  A    between atoms: C_1  and  O_2
REMARK    2  A    between atoms: O_2  and  C_3
REMARK    3  A    between atoms: C_8  and  C_9
REMARK    4  A    between atoms: C_9  and  N_10
REMARK    5  A    between atoms: N_10  and  C_11
REMARK    6  A    between atoms: C_11  and  C_12
REMARK    7  A    between atoms: C_15  and  C_16
REMARK    8  A    between atoms: C_16  and  N_17
REMARK    9  A    between atoms: C_18  and  C_20
REMARK   10  A    between atoms: C_27  and  O_28
REMARK   11  A    between atoms: O_28  and  C_29
REMARK                            x       y       z     vdW  Elec       q    Type
REMARK                         _______ _______ _______ _____ _____    ______ ____
ROOT
ATOM      1  C   UNL     1      47.973   5.732  20.565  0.00  0.00    +0.000 A 
ATOM      2  C   UNL     1      49.011   4.871  20.179  0.00  0.00    +0.000 A 
ATOM      3  C   UNL     1      49.015   4.279  18.913  0.00  0.00    +0.000 A 
ATOM      4  C   UNL     1      47.987   4.544  18.000  0.00  0.00    +0.000 A 
ATOM      5  C   UNL     1      46.945   5.396  18.389  0.00  0.00    +0.000 A 
ATOM      6  C   UNL     1      46.934   5.980  19.659  0.00  0.00    +0.000 A 
ENDROOT
BRANCH   1   7
ATOM      7  C   UNL     1      47.989   6.402  21.922  0.00  0.00    +0.000 C 
BRANCH   7   8
ATOM      8  N   UNL     1      47.638   7.823  21.871  0.00  0.00    +0.000 NA
ATOM      9  H   UNL     1      46.896   7.955  21.184  0.00  0.00    +0.000 HD
BRANCH   8  10
ATOM     10  C   UNL     1      48.775   8.654  21.452  0.00  0.00    +0.000 C 
BRANCH  10  16
ATOM     11  C   UNL     1      47.713   9.436  19.259  0.00  0.00    +0.000 A 
ATOM     12  C   UNL     1      47.755   9.513  17.860  0.00  0.00    +0.000 A 
ATOM     13  C   UNL     1      48.848   9.014  17.150  0.00  0.00    +0.000 A 
ATOM     14  C   UNL     1      49.920   8.448  17.827  0.00  0.00    +0.000 A 
ATOM     15  C   UNL     1      49.893   8.370  19.218  0.00  0.00    +0.000 A 
ATOM     16  C   UNL     1      48.795   8.859  19.951  0.00  0.00    +0.000 A 
BRANCH  11  18
ATOM     17  C   UNL     1      46.422  11.310  19.954  0.00  0.00    +0.000 C 
ATOM     18  O   UNL     1      46.680   9.913  20.024  0.00  0.00    +0.000 OA
ENDBRANCH  11  18
ENDBRANCH  10  16
ENDBRANCH   8  10
ENDBRANCH   7   8
ENDBRANCH   1   7
BRANCH   4  19
ATOM     19  C   UNL     1      47.974   3.892  16.642  0.00  0.00    +0.000 C 
BRANCH  19  20
ATOM     20  N   UNL     1      47.140   4.626  15.724  0.00  0.00    +0.000 N 
ATOM     21  C   UNL     1      46.918   4.189  14.445  0.00  0.00    +0.000 C 
ATOM     22  O   UNL     1      47.324   3.100  14.049  0.00  0.00    +0.000 OA
ATOM     23  H   UNL     1      46.935   5.592  15.941  0.00  0.00    +0.000 HD
BRANCH  21  24
ATOM     24  C   UNL     1      46.103   5.066  13.592  0.00  0.00    +0.000 A 
ATOM     25  C   UNL     1      44.992   4.533  12.952  0.00  0.00    +0.000 A 
ATOM     26  S   UNL     1      44.100   5.679  12.068  0.00  0.00    +0.000 S 
ATOM     27  C   UNL     1      45.201   6.912  12.462  0.00  0.00    +0.000 A 
ATOM     28  N   UNL     1      44.990   8.157  11.986  0.00  0.00    +0.000 NA
ATOM     29  C   UNL     1      45.928   9.049  12.333  0.00  0.00    +0.000 A 
ATOM     30  C   UNL     1      47.041   8.773  13.099  0.00  0.00    +0.000 A 
ATOM     31  C   UNL     1      47.231   7.476  13.578  0.00  0.00    +0.000 A 
ATOM     32  C   UNL     1      46.256   6.483  13.265  0.00  0.00    +0.000 A 
BRANCH  31  33
ATOM     33  O   UNL     1      48.316   7.096  14.326  0.00  0.00    +0.000 OA
ATOM     34  C   UNL     1      49.611   7.374  13.808  0.00  0.00    +0.000 C 
ENDBRANCH  31  33
ENDBRANCH  21  24
ENDBRANCH  19  20
ENDBRANCH   4  19
TORSDOF 9
ENDMDL
MODEL 9
REMARK VINA RESULT:    -6.335      3.851      9.297
REMARK INTER + INTRA:         -11.177
REMARK INTER:                  -8.754
REMARK INTRA:                  -2.423
REMARK UNBOUND:                -1.509
REMARK  Name = 
REMARK  11 active torsions:
REMARK  status: ('A' for Active; 'I' for Inactive)
REMARK    1  A    between atoms: C_1  and  O_2
REMARK    2  A    between atoms: O_2  and  C_3
REMARK    3  A    between atoms: C_8  and  C_9
REMARK    4  A    between atoms: C_9  and  N_10
REMARK    5  A    between atoms: N_10  and  C_11
REMARK    6  A    between atoms: C_11  and  C_12
REMARK    7  A    between atoms: C_15  and  C_16
REMARK    8  A    between atoms: C_16  and  N_17
REMARK    9  A    between atoms: C_18  and  C_20
REMARK   10  A    between atoms: C_27  and  O_28
REMARK   11  A    between atoms: O_28  and  C_29
REMARK                            x       y       z     vdW  Elec       q    Type
REMARK                         _______ _______ _______ _____ _____    ______ ____
ROOT
ATOM      1  C   UNL     1      50.595   4.653  19.158  0.00  0.00    +0.000 A 
ATOM      2  C   UNL     1      50.850   3.712  18.149  0.00  0.00    +0.000 A 
ATOM      3  C   UNL     1      49.826   3.281  17.300  0.00  0.00    +0.000 A 
ATOM      4  C   UNL     1      48.529   3.789  17.433  0.00  0.00    +0.000 A 
ATOM      5  C   UNL     1      48.273   4.722  18.447  0.00  0.00    +0.000 A 
ATOM      6  C   UNL     1      49.293   5.145  19.304  0.00  0.00    +0.000 A 
ENDROOT
BRANCH   1   7
ATOM      7  C   UNL     1      51.711   5.147  20.052  0.00  0.00    +0.000 C 
BRANCH   7   8
ATOM      8  N   UNL     1      51.866   6.604  20.035  0.00  0.00    +0.000 NA
ATOM      9  H   UNL     1      50.946   7.034  20.133  0.00  0.00    +0.000 HD
BRANCH   8  10
ATOM     10  C   UNL     1      52.440   7.079  18.769  0.00  0.00    +0.000 C 
BRANCH  10  16
ATOM     11  C   UNL     1      50.332   8.396  18.159  0.00  0.00    +0.000 A 
ATOM     12  C   UNL     1      49.314   8.681  17.238  0.00  0.00    +0.000 A 
ATOM     13  C   UNL     1      49.306   8.088  15.975  0.00  0.00    +0.000 A 
ATOM     14  C   UNL     1      50.323   7.216  15.608  0.00  0.00    +0.000 A 
ATOM     15  C   UNL     1      51.343   6.928  16.511  0.00  0.00    +0.000 A 
ATOM     16  C   UNL     1      51.363   7.509  17.794  0.00  0.00    +0.000 A 
BRANCH  11  18
ATOM     17  C   UNL     1      49.193   9.076  20.133  0.00  0.00    +0.000 C 
ATOM     18  O   UNL     1      50.411   8.947  19.411  0.00  0.00    +0.000 OA
ENDBRANCH  11  18
ENDBRANCH  10  16
ENDBRANCH   8  10
ENDBRANCH   7   8
ENDBRANCH   1   7
BRANCH   4  19
ATOM     19  C   UNL     1      47.417   3.312  16.535  0.00  0.00    +0.000 C 
BRANCH  19  20
ATOM     20  N   UNL     1      46.946   4.376  15.685  0.00  0.00    +0.000 N 
ATOM     21  C   UNL     1      46.893   4.241  14.323  0.00  0.00    +0.000 C 
ATOM     22  O   UNL     1      47.137   3.174  13.764  0.00  0.00    +0.000 OA
ATOM     23  H   UNL     1      46.906   5.309  16.075  0.00  0.00    +0.000 HD
BRANCH  21  24
ATOM     24  C   UNL     1      46.457   5.425  13.570  0.00  0.00    +0.000 A 
ATOM     25  C   UNL     1      47.301   6.525  13.503  0.00  0.00    +0.000 A 
ATOM     26  S   UNL     1      46.703   7.786  12.533  0.00  0.00    +0.000 S 
ATOM     27  C   UNL     1      45.270   6.929  12.218  0.00  0.00    +0.000 A 
ATOM     28  N   UNL     1      44.326   7.495  11.436  0.00  0.00    +0.000 NA
ATOM     29  C   UNL     1      43.225   6.748  11.271  0.00  0.00    +0.000 A 
ATOM     30  C   UNL     1      43.014   5.508  11.835  0.00  0.00    +0.000 A 
ATOM     31  C   UNL     1      44.010   4.949  12.638  0.00  0.00    +0.000 A 
ATOM     32  C   UNL     1      45.218   5.681  12.835  0.00  0.00    +0.000 A 
BRANCH  31  33
ATOM     33  O   UNL     1      43.886   3.735  13.263  0.00  0.00    +0.000 OA
ATOM     34  C   UNL     1      43.640   2.592  12.453  0.00  0.00    +0.000 C 
ENDBRANCH  31  33
ENDBRANCH  21  24
ENDBRANCH  19  20
ENDBRANCH   4  19
TORSDOF 9
ENDMDL
