MODEL 1
REMARK VINA RESULT:    -8.253      0.000      0.000
REMARK INTER + INTRA:         -13.020
REMARK INTER:                 -11.872
REMARK INTRA:                  -1.149
REMARK UNBOUND:                -1.149
REMARK  Name = 
REMARK  9 active torsions:
REMARK  status: ('A' for Active; 'I' for Inactive)
REMARK    1  A    between atoms: C_1  and  C_2
REMARK    2  A    between atoms: C_6  and  C_7
REMARK    3  A    between atoms: C_7  and  N_8
REMARK    4  A    between atoms: N_8  and  C_9
REMARK    5  A    between atoms: C_9  and  C_10
REMARK    6  A    between atoms: C_13  and  C_14
REMARK    7  A    between atoms: C_14  and  N_15
REMARK    8  A    between atoms: C_16  and  C_18
REMARK    9  A    between atoms: C_25  and  O_26
REMARK                            x       y       z     vdW  Elec       q    Type
REMARK                         _______ _______ _______ _____ _____    ______ ____
ROOT
ATOM      1  C   UNL     1      44.674   5.591  11.782  0.00  0.00    +0.000 A 
ATOM      2  C   UNL     1      44.931   4.981  13.018  0.00  0.00    +0.000 A 
ATOM      3  C   UNL     1      46.095   5.279  13.732  0.00  0.00    +0.000 A 
ATOM      4  C   UNL     1      47.023   6.198  13.226  0.00  0.00    +0.000 A 
ATOM      5  C   UNL     1      46.783   6.782  11.974  0.00  0.00    +0.000 A 
ATOM      6  C   UNL     1      45.620   6.484  11.261  0.00  0.00    +0.000 A 
ENDROOT
BRANCH   1   7
ATOM      7  C   UNL     1      43.385   5.316  11.041  0.00  0.00    +0.000 C 
BRANCH   7   8
ATOM      8  N   UNL     1      43.590   4.646   9.756  0.00  0.00    +0.000 NA
ATOM      9  H   UNL     1      42.688   4.545   9.288  0.00  0.00    +0.000 HD
BRANCH   8  10
ATOM     10  C   UNL     1      44.133   3.289   9.921  0.00  0.00    +0.000 C 
BRANCH  10  16
ATOM     11  C   UNL     1      46.853  -0.040   7.621  0.00  0.00    +0.000 C 
ATOM     12  C   UNL     1      46.464   1.400   7.757  0.00  0.00    +0.000 A 
ATOM     13  C   UNL     1      47.040   2.377   6.951  0.00  0.00    +0.000 A 
ATOM     14  C   UNL     1      46.654   3.702   7.122  0.00  0.00    +0.000 A 
ATOM     15  C   UNL     1      45.710   4.014   8.092  0.00  0.00    +0.000 A 
ATOM     16  C   UNL     1      45.183   2.988   8.871  0.00  0.00    +0.000 A 
ATOM     17  N   UNL     1      45.541   1.688   8.706  0.00  0.00    +0.000 NA
ENDBRANCH  10  16
ENDBRANCH   8  10
ENDBRANCH   7   8
ENDBRANCH   1   7
BRANCH   4  18
ATOM     18  C   UNL     1      48.266   6.545  14.002  0.00  0.00    +0.000 C 
BRANCH  18  19
ATOM     19  N   UNL     1      48.069   6.374  15.417  0.00  0.00    +0.000 N 
ATOM     20  C   UNL     1      49.131   6.206  16.265  0.00  0.00    +0.000 C 
ATOM     21  O   UNL     1      50.294   6.245  15.868  0.00  0.00    +0.000 OA
ATOM     22  H   UNL     1      47.143   6.131  15.751  0.00  0.00    +0.000 HD
BRANCH  20  23
ATOM     23  C   UNL     1      48.807   6.049  17.687  0.00  0.00    +0.000 A 
ATOM     24  C   UNL     1      49.037   4.823  18.300  0.00  0.00    +0.000 A 
ATOM     25  S   UNL     1      48.674   4.815  19.961  0.00  0.00    +0.000 S 
ATOM     26  C   UNL     1      48.142   6.428  19.904  0.00  0.00    +0.000 A 
ATOM     27  N   UNL     1      47.677   7.013  21.028  0.00  0.00    +0.000 NA
ATOM     28  C   UNL     1      47.267   8.283  20.867  0.00  0.00    +0.000 A 
ATOM     29  C   UNL     1      47.293   8.984  19.680  0.00  0.00    +0.000 A 
ATOM     30  C   UNL     1      47.787   8.339  18.550  0.00  0.00    +0.000 A 
ATOM     31  C   UNL     1      48.249   6.999  18.636  0.00  0.00    +0.000 A 
BRANCH  30  32
ATOM     32  O   UNL     1      47.824   9.014  17.355  0.00  0.00    +0.000 OA
ATOM     33  H   UNL     1      48.752   9.176  17.105  0.00  0.00    +0.000 HD
ENDBRANCH  30  32
ENDBRANCH  20  23
ENDBRANCH  18  19
ENDBRANCH   4  18
TORSDOF 8
ENDMDL
MODEL 2
REMARK VINA RESULT:    -8.115      2.158      2.506
REMARK INTER + INTRA:         -12.821
REMARK INTER:                 -11.846
REMARK INTRA:                  -0.975
REMARK UNBOUND:                -1.149
REMARK  Name = 
REMARK  9 active torsions:
REMARK  status: ('A' for Active; 'I' for Inactive)
REMARK    1  A    between atoms: C_1  and  C_2
REMARK    2  A    between atoms: C_6  and  C_7
REMARK    3  A    between atoms: C_7  and  N_8
REMARK    4  A    between atoms: N_8  and  C_9
REMARK    5  A    between atoms: C_9  and  C_10
REMARK    6  A    between atoms: C_13  and  C_14
REMARK    7  A    between atoms: C_14  and  N_15
REMARK    8  A    between atoms: C_16  and  C_18
REMARK    9  A    between atoms: C_25  and  O_26
REMARK                            x       y       z     vdW  Elec       q    Type
REMARK                         _______ _______ _______ _____ _____    ______ ____
ROOT
ATOM      1  C   UNL     1      44.588   6.060  11.397  0.00  0.00    +0.000 A 
ATOM      2  C   UNL     1      45.776   5.482  11.866  0.00  0.00    +0.000 A 
ATOM      3  C   UNL     1      46.700   6.239  12.591  0.00  0.00    +0.000 A 
ATOM      4  C   UNL     1      46.451   7.590  12.865  0.00  0.00    +0.000 A 
ATOM      5  C   UNL     1      45.280   8.177  12.365  0.00  0.00    +0.000 A 
ATOM      6  C   UNL     1      44.357   7.419  11.642  0.00  0.00    +0.000 A 
ENDROOT
BRANCH   1   7
ATOM      7  C   UNL     1      43.560   5.223  10.668  0.00  0.00    +0.000 C 
BRANCH   7   8
ATOM      8  N   UNL     1      44.070   4.631   9.431  0.00  0.00    +0.000 NA
ATOM      9  H   UNL     1      43.368   4.742   8.697  0.00  0.00    +0.000 HD
BRANCH   8  10
ATOM     10  C   UNL     1      44.312   3.187   9.568  0.00  0.00    +0.000 C 
BRANCH  10  16
ATOM     11  C   UNL     1      46.857  -0.524   7.692  0.00  0.00    +0.000 C 
ATOM     12  C   UNL     1      46.596   0.950   7.706  0.00  0.00    +0.000 A 
ATOM     13  C   UNL     1      47.313   1.813   6.883  0.00  0.00    +0.000 A 
ATOM     14  C   UNL     1      47.042   3.175   6.940  0.00  0.00    +0.000 A 
ATOM     15  C   UNL     1      46.068   3.638   7.816  0.00  0.00    +0.000 A 
ATOM     16  C   UNL     1      45.397   2.720   8.619  0.00  0.00    +0.000 A 
ATOM     17  N   UNL     1      45.641   1.385   8.564  0.00  0.00    +0.000 NA
ENDBRANCH  10  16
ENDBRANCH   8  10
ENDBRANCH   7   8
ENDBRANCH   1   7
BRANCH   4  18
ATOM     18  C   UNL     1      47.429   8.406  13.668  0.00  0.00    +0.000 C 
BRANCH  18  19
ATOM     19  N   UNL     1      47.898   7.683  14.820  0.00  0.00    +0.000 N 
ATOM     20  C   UNL     1      49.177   7.197  14.881  0.00  0.00    +0.000 C 
ATOM     21  O   UNL     1      49.993   7.399  13.984  0.00  0.00    +0.000 OA
ATOM     22  H   UNL     1      47.214   7.322  15.476  0.00  0.00    +0.000 HD
BRANCH  20  23
ATOM     23  C   UNL     1      49.542   6.485  16.110  0.00  0.00    +0.000 A 
ATOM     24  C   UNL     1      50.695   6.861  16.789  0.00  0.00    +0.000 A 
ATOM     25  S   UNL     1      50.951   5.990  18.227  0.00  0.00    +0.000 S 
ATOM     26  C   UNL     1      49.566   5.042  17.959  0.00  0.00    +0.000 A 
ATOM     27  N   UNL     1      49.242   4.077  18.844  0.00  0.00    +0.000 NA
ATOM     28  C   UNL     1      48.139   3.378  18.527  0.00  0.00    +0.000 A 
ATOM     29  C   UNL     1      47.362   3.580  17.405  0.00  0.00    +0.000 A 
ATOM     30  C   UNL     1      47.735   4.591  16.526  0.00  0.00    +0.000 A 
ATOM     31  C   UNL     1      48.883   5.383  16.791  0.00  0.00    +0.000 A 
BRANCH  30  32
ATOM     32  O   UNL     1      46.979   4.814  15.401  0.00  0.00    +0.000 OA
ATOM     33  H   UNL     1      46.038   4.858  15.650  0.00  0.00    +0.000 HD
ENDBRANCH  30  32
ENDBRANCH  20  23
ENDBRANCH  18  19
ENDBRANCH   4  18
TORSDOF 8
ENDMDL
MODEL 3
REMARK VINA RESULT:    -8.101      1.218      2.075
REMARK INTER + INTRA:         -12.801
REMARK INTER:                 -11.638
REMARK INTRA:                  -1.163
REMARK UNBOUND:                -1.149
REMARK  Name = 
REMARK  9 active torsions:
REMARK  status: ('A' for Active; 'I' for Inactive)
REMARK    1  A    between atoms: C_1  and  C_2
REMARK    2  A    between atoms: C_6  and  C_7
REMARK    3  A    between atoms: C_7  and  N_8
REMARK    4  A    between atoms: N_8  and  C_9
REMARK    5  A    between atoms: C_9  and  C_10
REMARK    6  A    between atoms: C_13  and  C_14
REMARK    7  A    between atoms: C_14  and  N_15
REMARK    8  A    between atoms: C_16  and  C_18
REMARK    9  A    between atoms: C_25  and  O_26
REMARK                            x       y       z     vdW  Elec       q    Type
REMARK                         _______ _______ _______ _____ _____    ______ ____
ROOT
ATOM      1  C   UNL     1      44.627   5.666  11.670  0.00  0.00    +0.000 A 
ATOM      2  C   UNL     1      45.636   6.466  11.114  0.00  0.00    +0.000 A 
ATOM      3  C   UNL     1      46.813   6.722  11.822  0.00  0.00    +0.000 A 
ATOM      4  C   UNL     1      47.008   6.179  13.098  0.00  0.00    +0.000 A 
ATOM      5  C   UNL     1      45.985   5.408  13.668  0.00  0.00    +0.000 A 
ATOM      6  C   UNL     1      44.809   5.151  12.960  0.00  0.00    +0.000 A 
ENDROOT
BRANCH   1   7
ATOM      7  C   UNL     1      43.381   5.337  10.877  0.00  0.00    +0.000 C 
BRANCH   7   8
ATOM      8  N   UNL     1      43.664   4.637   9.623  0.00  0.00    +0.000 NA
ATOM      9  H   UNL     1      42.794   4.540   9.096  0.00  0.00    +0.000 HD
BRANCH   8  10
ATOM     10  C   UNL     1      44.174   3.277   9.851  0.00  0.00    +0.000 C 
BRANCH  10  16
ATOM     11  C   UNL     1      46.778  -0.213   7.659  0.00  0.00    +0.000 C 
ATOM     12  C   UNL     1      46.458   1.246   7.768  0.00  0.00    +0.000 A 
ATOM     13  C   UNL     1      47.101   2.182   6.963  0.00  0.00    +0.000 A 
ATOM     14  C   UNL     1      46.777   3.527   7.109  0.00  0.00    +0.000 A 
ATOM     15  C   UNL     1      45.827   3.899   8.051  0.00  0.00    +0.000 A 
ATOM     16  C   UNL     1      45.232   2.910   8.830  0.00  0.00    +0.000 A 
ATOM     17  N   UNL     1      45.528   1.592   8.690  0.00  0.00    +0.000 NA
ENDBRANCH  10  16
ENDBRANCH   8  10
ENDBRANCH   7   8
ENDBRANCH   1   7
BRANCH   4  18
ATOM     18  C   UNL     1      48.285   6.428  13.855  0.00  0.00    +0.000 C 
BRANCH  18  19
ATOM     19  N   UNL     1      48.025   6.814  15.216  0.00  0.00    +0.000 N 
ATOM     20  C   UNL     1      48.875   6.455  16.229  0.00  0.00    +0.000 C 
ATOM     21  O   UNL     1      49.916   5.838  16.018  0.00  0.00    +0.000 OA
ATOM     22  H   UNL     1      47.094   7.135  15.459  0.00  0.00    +0.000 HD
BRANCH  20  23
ATOM     23  C   UNL     1      48.510   6.914  17.574  0.00  0.00    +0.000 A 
ATOM     24  C   UNL     1      48.132   8.239  17.754  0.00  0.00    +0.000 A 
ATOM     25  S   UNL     1      47.676   8.604  19.351  0.00  0.00    +0.000 S 
ATOM     26  C   UNL     1      48.025   7.022  19.866  0.00  0.00    +0.000 A 
ATOM     27  N   UNL     1      47.856   6.695  21.164  0.00  0.00    +0.000 NA
ATOM     28  C   UNL     1      48.177   5.425  21.465  0.00  0.00    +0.000 A 
ATOM     29  C   UNL     1      48.646   4.488  20.569  0.00  0.00    +0.000 A 
ATOM     30  C   UNL     1      48.797   4.872  19.240  0.00  0.00    +0.000 A 
ATOM     31  C   UNL     1      48.472   6.194  18.836  0.00  0.00    +0.000 A 
BRANCH  30  32
ATOM     32  O   UNL     1      49.262   3.958  18.327  0.00  0.00    +0.000 OA
ATOM     33  H   UNL     1      49.974   4.364  17.800  0.00  0.00    +0.000 HD
ENDBRANCH  30  32
ENDBRANCH  20  23
ENDBRANCH  18  19
ENDBRANCH   4  18
TORSDOF 8
ENDMDL
MODEL 4
REMARK VINA RESULT:    -7.267      2.039      2.799
REMARK INTER + INTRA:         -11.601
REMARK INTER:                 -11.184
REMARK INTRA:                  -0.417
REMARK UNBOUND:                -1.149
REMARK  Name = 
REMARK  9 active torsions:
REMARK  status: ('A' for Active; 'I' for Inactive)
REMARK    1  A    between atoms: C_1  and  C_2
REMARK    2  A    between atoms: C_6  and  C_7
REMARK    3  A    between atoms: C_7  and  N_8
REMARK    4  A    between atoms: N_8  and  C_9
REMARK    5  A    between atoms: C_9  and  C_10
REMARK    6  A    between atoms: C_13  and  C_14
REMARK    7  A    between atoms: C_14  and  N_15
REMARK    8  A    between atoms: C_16  and  C_18
REMARK    9  A    between atoms: C_25  and  O_26
REMARK                            x       y       z     vdW  Elec       q    Type
REMARK                         _______ _______ _______ _____ _____    ______ ____
ROOT
ATOM      1  C   UNL     1      44.358   5.916  11.568  0.00  0.00    +0.000 A 
ATOM      2  C   UNL     1      44.360   7.314  11.682  0.00  0.00    +0.000 A 
ATOM      3  C   UNL     1      45.426   7.977  12.296  0.00  0.00    +0.000 A 
ATOM      4  C   UNL     1      46.513   7.255  12.805  0.00  0.00    +0.000 A 
ATOM      5  C   UNL     1      46.494   5.856  12.723  0.00  0.00    +0.000 A 
ATOM      6  C   UNL     1      45.429   5.194  12.108  0.00  0.00    +0.000 A 
ENDROOT
BRANCH   1   7
ATOM      7  C   UNL     1      43.235   5.205  10.846  0.00  0.00    +0.000 C 
BRANCH   7   8
ATOM      8  N   UNL     1      43.604   4.760   9.501  0.00  0.00    +0.000 NA
ATOM      9  H   UNL     1      43.368   3.771   9.404  0.00  0.00    +0.000 HD
BRANCH   8  10
ATOM     10  C   UNL     1      45.050   4.874   9.260  0.00  0.00    +0.000 C 
BRANCH  10  16
ATOM     11  C   UNL     1      47.331   3.071   5.345  0.00  0.00    +0.000 C 
ATOM     12  C   UNL     1      46.687   2.800   6.670  0.00  0.00    +0.000 A 
ATOM     13  C   UNL     1      46.604   1.506   7.174  0.00  0.00    +0.000 A 
ATOM     14  C   UNL     1      45.987   1.303   8.404  0.00  0.00    +0.000 A 
ATOM     15  C   UNL     1      45.471   2.393   9.093  0.00  0.00    +0.000 A 
ATOM     16  C   UNL     1      45.580   3.659   8.524  0.00  0.00    +0.000 A 
ATOM     17  N   UNL     1      46.191   3.874   7.330  0.00  0.00    +0.000 NA
ENDBRANCH  10  16
ENDBRANCH   8  10
ENDBRANCH   7   8
ENDBRANCH   1   7
BRANCH   4  18
ATOM     18  C   UNL     1      47.677   7.964  13.444  0.00  0.00    +0.000 C 
BRANCH  18  19
ATOM     19  N   UNL     1      47.988   7.412  14.736  0.00  0.00    +0.000 N 
ATOM     20  C   UNL     1      49.277   7.111  15.086  0.00  0.00    +0.000 C 
ATOM     21  O   UNL     1      50.226   7.345  14.341  0.00  0.00    +0.000 OA
ATOM     22  H   UNL     1      47.234   7.017  15.287  0.00  0.00    +0.000 HD
BRANCH  20  23
ATOM     23  C   UNL     1      49.471   6.560  16.432  0.00  0.00    +0.000 A 
ATOM     24  C   UNL     1      50.263   7.257  17.337  0.00  0.00    +0.000 A 
ATOM     25  S   UNL     1      50.340   6.530  18.872  0.00  0.00    +0.000 S 
ATOM     26  C   UNL     1      49.370   5.231  18.362  0.00  0.00    +0.000 A 
ATOM     27  N   UNL     1      49.080   4.239  19.229  0.00  0.00    +0.000 NA
ATOM     28  C   UNL     1      48.321   3.255  18.718  0.00  0.00    +0.000 A 
ATOM     29  C   UNL     1      47.849   3.205  17.423  0.00  0.00    +0.000 A 
ATOM     30  C   UNL     1      48.169   4.255  16.569  0.00  0.00    +0.000 A 
ATOM     31  C   UNL     1      48.960   5.339  17.033  0.00  0.00    +0.000 A 
BRANCH  30  32
ATOM     32  O   UNL     1      47.711   4.230  15.275  0.00  0.00    +0.000 OA
ATOM     33  H   UNL     1      48.114   4.965  14.777  0.00  0.00    +0.000 HD
ENDBRANCH  30  32
ENDBRANCH  20  23
ENDBRANCH  18  19
ENDBRANCH   4  18
TORSDOF 8
ENDMDL
MODEL 5
REMARK VINA RESULT:    -7.214      1.115      1.351
REMARK INTER + INTRA:         -11.525
REMARK INTER:                 -10.607
REMARK INTRA:                  -0.919
REMARK UNBOUND:                -1.149
REMARK  Name = 
REMARK  9 active torsions:
REMARK  status: ('A' for Active; 'I' for Inactive)
REMARK    1  A    between atoms: C_1  and  C_2
REMARK    2  A    between atoms: C_6  and  C_7
REMARK    3  A    between atoms: C_7  and  N_8
REMARK    4  A    between atoms: N_8  and  C_9
REMARK    5  A    between atoms: C_9  and  C_10
REMARK    6  A    between atoms: C_13  and  C_14
REMARK    7  A    between atoms: C_14  and  N_15
REMARK    8  A    between atoms: C_16  and  C_18
REMARK    9  A    between atoms: C_25  and  O_26
REMARK                            x       y       z     vdW  Elec       q    Type
REMARK                         _______ _______ _______ _____ _____    ______ ____
ROOT
ATOM      1  C   UNL     1      44.848   6.199  11.523  0.00  0.00    +0.000 A 
ATOM      2  C   UNL     1      44.637   7.559  11.789  0.00  0.00    +0.000 A 
ATOM      3  C   UNL     1      45.586   8.303  12.496  0.00  0.00    +0.000 A 
ATOM      4  C   UNL     1      46.768   7.702  12.946  0.00  0.00    +0.000 A 
ATOM      5  C   UNL     1      46.963   6.334  12.712  0.00  0.00    +0.000 A 
ATOM      6  C   UNL     1      46.015   5.591  12.005  0.00  0.00    +0.000 A 
ENDROOT
BRANCH   1   7
ATOM      7  C   UNL     1      43.851   5.410  10.704  0.00  0.00    +0.000 C 
BRANCH   7   8
ATOM      8  N   UNL     1      44.435   4.819   9.499  0.00  0.00    +0.000 NA
ATOM      9  H   UNL     1      43.822   5.013   8.705  0.00  0.00    +0.000 HD
BRANCH   8  10
ATOM     10  C   UNL     1      44.545   3.356   9.599  0.00  0.00    +0.000 C 
BRANCH  10  16
ATOM     11  C   UNL     1      46.828  -0.517   7.712  0.00  0.00    +0.000 C 
ATOM     12  C   UNL     1      46.580   0.959   7.651  0.00  0.00    +0.000 A 
ATOM     13  C   UNL     1      47.202   1.750   6.689  0.00  0.00    +0.000 A 
ATOM     14  C   UNL     1      46.948   3.117   6.679  0.00  0.00    +0.000 A 
ATOM     15  C   UNL     1      46.086   3.655   7.627  0.00  0.00    +0.000 A 
ATOM     16  C   UNL     1      45.508   2.806   8.566  0.00  0.00    +0.000 A 
ATOM     17  N   UNL     1      45.736   1.467   8.580  0.00  0.00    +0.000 NA
ENDBRANCH  10  16
ENDBRANCH   8  10
ENDBRANCH   7   8
ENDBRANCH   1   7
BRANCH   4  18
ATOM     18  C   UNL     1      47.806   8.504  13.685  0.00  0.00    +0.000 C 
BRANCH  18  19
ATOM     19  N   UNL     1      47.813   8.194  15.090  0.00  0.00    +0.000 N 
ATOM     20  C   UNL     1      48.863   7.528  15.664  0.00  0.00    +0.000 C 
ATOM     21  O   UNL     1      49.864   7.214  15.023  0.00  0.00    +0.000 OA
ATOM     22  H   UNL     1      46.938   8.247  15.601  0.00  0.00    +0.000 HD
BRANCH  20  23
ATOM     23  C   UNL     1      48.760   7.276  17.105  0.00  0.00    +0.000 A 
ATOM     24  C   UNL     1      49.128   6.030  17.599  0.00  0.00    +0.000 A 
ATOM     25  S   UNL     1      49.017   5.910  19.291  0.00  0.00    +0.000 S 
ATOM     26  C   UNL     1      48.418   7.495  19.415  0.00  0.00    +0.000 A 
ATOM     27  N   UNL     1      48.101   7.992  20.629  0.00  0.00    +0.000 NA
ATOM     28  C   UNL     1      47.622   9.247  20.611  0.00  0.00    +0.000 A 
ATOM     29  C   UNL     1      47.442  10.015  19.479  0.00  0.00    +0.000 A 
ATOM     30  C   UNL     1      47.789   9.460  18.251  0.00  0.00    +0.000 A 
ATOM     31  C   UNL     1      48.311   8.142  18.183  0.00  0.00    +0.000 A 
BRANCH  30  32
ATOM     32  O   UNL     1      47.620  10.203  17.108  0.00  0.00    +0.000 OA
ATOM     33  H   UNL     1      46.685  10.165  16.835  0.00  0.00    +0.000 HD
ENDBRANCH  30  32
ENDBRANCH  20  23
ENDBRANCH  18  19
ENDBRANCH   4  18
TORSDOF 8
ENDMDL
MODEL 6
REMARK VINA RESULT:    -7.095      2.022      2.916
REMARK INTER + INTRA:         -11.355
REMARK INTER:                 -10.009
REMARK INTRA:                  -1.346
REMARK UNBOUND:                -1.149
REMARK  Name = 
REMARK  9 active torsions:
REMARK  status: ('A' for Active; 'I' for Inactive)
REMARK    1  A    between atoms: C_1  and  C_2
REMARK    2  A    between atoms: C_6  and  C_7
REMARK    3  A    between atoms: C_7  and  N_8
REMARK    4  A    between atoms: N_8  and  C_9
REMARK    5  A    between atoms: C_9  and  C_10
REMARK    6  A    between atoms: C_13  and  C_14
REMARK    7  A    between atoms: C_14  and  N_15
REMARK    8  A    between atoms: C_16  and  C_18
REMARK    9  A    between atoms: C_25  and  O_26
REMARK                            x       y       z     vdW  Elec       q    Type
REMARK                         _______ _______ _______ _____ _____    ______ ____
ROOT
ATOM      1  C   UNL     1      44.826   4.991  12.573  0.00  0.00    +0.000 A 
ATOM      2  C   UNL     1      45.802   4.573  13.487  0.00  0.00    +0.000 A 
ATOM      3  C   UNL     1      46.957   5.332  13.695  0.00  0.00    +0.000 A 
ATOM      4  C   UNL     1      47.156   6.528  12.994  0.00  0.00    +0.000 A 
ATOM      5  C   UNL     1      46.196   6.929  12.053  0.00  0.00    +0.000 A 
ATOM      6  C   UNL     1      45.042   6.170  11.848  0.00  0.00    +0.000 A 
ENDROOT
BRANCH   1   7
ATOM      7  C   UNL     1      43.547   4.202  12.396  0.00  0.00    +0.000 C 
BRANCH   7   8
ATOM      8  N   UNL     1      43.279   3.843  11.003  0.00  0.00    +0.000 NA
ATOM      9  H   UNL     1      42.275   3.692  10.888  0.00  0.00    +0.000 HD
BRANCH   8  10
ATOM     10  C   UNL     1      43.941   2.588  10.618  0.00  0.00    +0.000 C 
BRANCH  10  16
ATOM     11  C   UNL     1      47.018   0.650   7.371  0.00  0.00    +0.000 C 
ATOM     12  C   UNL     1      46.352   1.881   7.903  0.00  0.00    +0.000 A 
ATOM     13  C   UNL     1      46.611   3.131   7.350  0.00  0.00    +0.000 A 
ATOM     14  C   UNL     1      45.977   4.247   7.886  0.00  0.00    +0.000 A 
ATOM     15  C   UNL     1      45.106   4.084   8.957  0.00  0.00    +0.000 A 
ATOM     16  C   UNL     1      44.902   2.805   9.467  0.00  0.00    +0.000 A 
ATOM     17  N   UNL     1      45.504   1.705   8.945  0.00  0.00    +0.000 NA
ENDBRANCH  10  16
ENDBRANCH   8  10
ENDBRANCH   7   8
ENDBRANCH   1   7
BRANCH   4  18
ATOM     18  C   UNL     1      48.384   7.365  13.232  0.00  0.00    +0.000 C 
BRANCH  18  19
ATOM     19  N   UNL     1      49.032   7.012  14.467  0.00  0.00    +0.000 N 
ATOM     20  C   UNL     1      48.918   7.804  15.579  0.00  0.00    +0.000 C 
ATOM     21  O   UNL     1      48.221   8.816  15.589  0.00  0.00    +0.000 OA
ATOM     22  H   UNL     1      49.769   6.316  14.445  0.00  0.00    +0.000 HD
BRANCH  20  23
ATOM     23  C   UNL     1      49.617   7.337  16.781  0.00  0.00    +0.000 A 
ATOM     24  C   UNL     1      48.908   7.225  17.971  0.00  0.00    +0.000 A 
ATOM     25  S   UNL     1      49.833   6.610  19.258  0.00  0.00    +0.000 S 
ATOM     26  C   UNL     1      51.225   6.532  18.287  0.00  0.00    +0.000 A 
ATOM     27  N   UNL     1      52.384   6.096  18.822  0.00  0.00    +0.000 NA
ATOM     28  C   UNL     1      53.424   6.090  17.971  0.00  0.00    +0.000 A 
ATOM     29  C   UNL     1      53.376   6.486  16.651  0.00  0.00    +0.000 A 
ATOM     30  C   UNL     1      52.156   6.921  16.144  0.00  0.00    +0.000 A 
ATOM     31  C   UNL     1      51.005   6.951  16.974  0.00  0.00    +0.000 A 
BRANCH  30  32
ATOM     32  O   UNL     1      52.080   7.321  14.832  0.00  0.00    +0.000 OA
ATOM     33  H   UNL     1      52.921   7.739  14.574  0.00  0.00    +0.000 HD
ENDBRANCH  30  32
ENDBRANCH  20  23
ENDBRANCH  18  19
ENDBRANCH   4  18
TORSDOF 8
ENDMDL
MODEL 7
REMARK VINA RESULT:    -6.796      4.462      6.351
REMARK INTER + INTRA:         -10.925
REMARK INTER:                  -9.698
REMARK INTRA:                  -1.227
REMARK UNBOUND:                -1.149
REMARK  Name = 
REMARK  9 active torsions:
REMARK  status: ('A' for Active; 'I' for Inactive)
REMARK    1  A    between atoms: C_1  and  C_2
REMARK    2  A    between atoms: C_6  and  C_7
REMARK    3  A    between atoms: C_7  and  N_8
REMARK    4  A    between atoms: N_8  and  C_9
REMARK    5  A    between atoms: C_9  and  C_10
REMARK    6  A    between atoms: C_13  and  C_14
REMARK    7  A    between atoms: C_14  and  N_15
REMARK    8  A    between atoms: C_16  and  C_18
REMARK    9  A    between atoms: C_25  and  O_26
REMARK                            x       y       z     vdW  Elec       q    Type
REMARK                         _______ _______ _______ _____ _____    ______ ____
ROOT
ATOM      1  C   UNL     1      44.951   5.271  12.758  0.00  0.00    +0.000 A 
ATOM      2  C   UNL     1      46.011   4.595  13.378  0.00  0.00    +0.000 A 
ATOM      3  C   UNL     1      47.173   5.278  13.748  0.00  0.00    +0.000 A 
ATOM      4  C   UNL     1      47.296   6.653  13.508  0.00  0.00    +0.000 A 
ATOM      5  C   UNL     1      46.250   7.321  12.855  0.00  0.00    +0.000 A 
ATOM      6  C   UNL     1      45.089   6.638  12.488  0.00  0.00    +0.000 A 
ENDROOT
BRANCH   1   7
ATOM      7  C   UNL     1      43.669   4.544  12.417  0.00  0.00    +0.000 C 
BRANCH   7   8
ATOM      8  N   UNL     1      43.521   4.277  10.985  0.00  0.00    +0.000 NA
ATOM      9  H   UNL     1      42.537   4.373  10.731  0.00  0.00    +0.000 HD
BRANCH   8  10
ATOM     10  C   UNL     1      43.915   2.904  10.636  0.00  0.00    +0.000 C 
BRANCH  10  16
ATOM     11  C   UNL     1      46.782   0.313   7.662  0.00  0.00    +0.000 C 
ATOM     12  C   UNL     1      46.243   1.657   8.045  0.00  0.00    +0.000 A 
ATOM     13  C   UNL     1      46.628   2.805   7.358  0.00  0.00    +0.000 A 
ATOM     14  C   UNL     1      46.108   4.031   7.758  0.00  0.00    +0.000 A 
ATOM     15  C   UNL     1      45.226   4.079   8.830  0.00  0.00    +0.000 A 
ATOM     16  C   UNL     1      44.894   2.892   9.478  0.00  0.00    +0.000 A 
ATOM     17  N   UNL     1      45.382   1.686   9.091  0.00  0.00    +0.000 NA
ENDBRANCH  10  16
ENDBRANCH   8  10
ENDBRANCH   7   8
ENDBRANCH   1   7
BRANCH   4  18
ATOM     18  C   UNL     1      48.533   7.400  13.927  0.00  0.00    +0.000 C 
BRANCH  18  19
ATOM     19  N   UNL     1      48.723   8.591  13.142  0.00  0.00    +0.000 N 
ATOM     20  C   UNL     1      49.529   8.588  12.034  0.00  0.00    +0.000 C 
ATOM     21  O   UNL     1      50.081   7.566  11.633  0.00  0.00    +0.000 OA
ATOM     22  H   UNL     1      48.461   9.484  13.545  0.00  0.00    +0.000 HD
BRANCH  20  23
ATOM     23  C   UNL     1      49.638   9.859  11.310  0.00  0.00    +0.000 A 
ATOM     24  C   UNL     1      48.512  10.665  11.190  0.00  0.00    +0.000 A 
ATOM     25  S   UNL     1      48.810  12.132  10.382  0.00  0.00    +0.000 S 
ATOM     26  C   UNL     1      50.434  11.712  10.113  0.00  0.00    +0.000 A 
ATOM     27  N   UNL     1      51.236  12.563   9.438  0.00  0.00    +0.000 NA
ATOM     28  C   UNL     1      52.495  12.126   9.267  0.00  0.00    +0.000 A 
ATOM     29  C   UNL     1      52.987  10.918   9.717  0.00  0.00    +0.000 A 
ATOM     30  C   UNL     1      52.123  10.079  10.413  0.00  0.00    +0.000 A 
ATOM     31  C   UNL     1      50.778  10.469  10.645  0.00  0.00    +0.000 A 
BRANCH  30  32
ATOM     32  O   UNL     1      52.587   8.871  10.872  0.00  0.00    +0.000 OA
ATOM     33  H   UNL     1      53.130   9.017  11.669  0.00  0.00    +0.000 HD
ENDBRANCH  30  32
ENDBRANCH  20  23
ENDBRANCH  18  19
ENDBRANCH   4  18
TORSDOF 8
ENDMDL
MODEL 8
REMARK VINA RESULT:    -6.624      2.570      3.420
REMARK INTER + INTRA:         -10.677
REMARK INTER:                  -9.582
REMARK INTRA:                  -1.095
REMARK UNBOUND:                -1.149
REMARK  Name = 
REMARK  9 active torsions:
REMARK  status: ('A' for Active; 'I' for Inactive)
REMARK    1  A    between atoms: C_1  and  C_2
REMARK    2  A    between atoms: C_6  and  C_7
REMARK    3  A    between atoms: C_7  and  N_8
REMARK    4  A    between atoms: N_8  and  C_9
REMARK    5  A    between atoms: C_9  and  C_10
REMARK    6  A    between atoms: C_13  and  C_14
REMARK    7  A    between atoms: C_14  and  N_15
REMARK    8  A    between atoms: C_16  and  C_18
REMARK    9  A    between atoms: C_25  and  O_26
REMARK                            x       y       z     vdW  Elec       q    Type
REMARK                         _______ _______ _______ _____ _____    ______ ____
ROOT
ATOM      1  C   UNL     1      44.695   6.446  11.666  0.00  0.00    +0.000 A 
ATOM      2  C   UNL     1      44.537   7.833  11.544  0.00  0.00    +0.000 A 
ATOM      3  C   UNL     1      45.596   8.700  11.828  0.00  0.00    +0.000 A 
ATOM      4  C   UNL     1      46.838   8.194  12.234  0.00  0.00    +0.000 A 
ATOM      5  C   UNL     1      46.986   6.808  12.390  0.00  0.00    +0.000 A 
ATOM      6  C   UNL     1      45.927   5.944  12.105  0.00  0.00    +0.000 A 
ENDROOT
BRANCH   1   7
ATOM      7  C   UNL     1      43.568   5.507  11.297  0.00  0.00    +0.000 C 
BRANCH   7   8
ATOM      8  N   UNL     1      43.683   4.972   9.939  0.00  0.00    +0.000 NA
ATOM      9  H   UNL     1      42.784   5.075   9.466  0.00  0.00    +0.000 HD
BRANCH   8  10
ATOM     10  C   UNL     1      44.000   3.537   9.936  0.00  0.00    +0.000 C 
BRANCH  10  16
ATOM     11  C   UNL     1      46.723   0.159   7.711  0.00  0.00    +0.000 C 
ATOM     12  C   UNL     1      46.371   1.608   7.851  0.00  0.00    +0.000 A 
ATOM     13  C   UNL     1      47.012   2.578   7.087  0.00  0.00    +0.000 A 
ATOM     14  C   UNL     1      46.658   3.912   7.260  0.00  0.00    +0.000 A 
ATOM     15  C   UNL     1      45.680   4.239   8.191  0.00  0.00    +0.000 A 
ATOM     16  C   UNL     1      45.088   3.218   8.930  0.00  0.00    +0.000 A 
ATOM     17  N   UNL     1      45.414   1.910   8.761  0.00  0.00    +0.000 NA
ENDBRANCH  10  16
ENDBRANCH   8  10
ENDBRANCH   7   8
ENDBRANCH   1   7
BRANCH   4  18
ATOM     18  C   UNL     1      47.992   9.119  12.515  0.00  0.00    +0.000 C 
BRANCH  18  19
ATOM     19  N   UNL     1      48.547   8.889  13.822  0.00  0.00    +0.000 N 
ATOM     20  C   UNL     1      49.123   9.906  14.536  0.00  0.00    +0.000 C 
ATOM     21  O   UNL     1      49.147  11.062  14.120  0.00  0.00    +0.000 OA
ATOM     22  H   UNL     1      48.732   7.934  14.108  0.00  0.00    +0.000 HD
BRANCH  20  23
ATOM     23  C   UNL     1      49.647   9.553  15.860  0.00  0.00    +0.000 A 
ATOM     24  C   UNL     1      49.206  10.263  16.970  0.00  0.00    +0.000 A 
ATOM     25  S   UNL     1      49.850   9.697  18.439  0.00  0.00    +0.000 S 
ATOM     26  C   UNL     1      50.783   8.525  17.636  0.00  0.00    +0.000 A 
ATOM     27  N   UNL     1      51.588   7.713  18.353  0.00  0.00    +0.000 NA
ATOM     28  C   UNL     1      52.292   6.836  17.618  0.00  0.00    +0.000 A 
ATOM     29  C   UNL     1      52.243   6.727  16.244  0.00  0.00    +0.000 A 
ATOM     30  C   UNL     1      51.393   7.583  15.550  0.00  0.00    +0.000 A 
ATOM     31  C   UNL     1      50.607   8.534  16.252  0.00  0.00    +0.000 A 
BRANCH  30  32
ATOM     32  O   UNL     1      51.325   7.495  14.182  0.00  0.00    +0.000 OA
ATOM     33  H   UNL     1      51.705   8.303  13.789  0.00  0.00    +0.000 HD
ENDBRANCH  30  32
ENDBRANCH  20  23
ENDBRANCH  18  19
ENDBRANCH   4  18
TORSDOF 8
ENDMDL
MODEL 9
REMARK VINA RESULT:    -6.296      3.869      5.266
REMARK INTER + INTRA:         -10.205
REMARK INTER:                  -9.118
REMARK INTRA:                  -1.087
REMARK UNBOUND:                -1.149
REMARK  Name = 
REMARK  9 active torsions:
REMARK  status: ('A' for Active; 'I' for Inactive)
REMARK    1  A    between atoms: C_1  and  C_2
REMARK    2  A    between atoms: C_6  and  C_7
REMARK    3  A    between atoms: C_7  and  N_8
REMARK    4  A    between atoms: N_8  and  C_9
REMARK    5  A    between atoms: C_9  and  C_10
REMARK    6  A    between atoms: C_13  and  C_14
REMARK    7  A    between atoms: C_14  and  N_15
REMARK    8  A    between atoms: C_16  and  C_18
REMARK    9  A    between atoms: C_25  and  O_26
REMARK                            x       y       z     vdW  Elec       q    Type
REMARK                         _______ _______ _______ _____ _____    ______ ____
ROOT
ATOM      1  C   UNL     1      44.705   6.586  11.748  0.00  0.00    +0.000 A 
ATOM      2  C   UNL     1      44.340   7.930  11.582  0.00  0.00    +0.000 A 
ATOM      3  C   UNL     1      45.275   8.951  11.772  0.00  0.00    +0.000 A 
ATOM      4  C   UNL     1      46.595   8.648  12.128  0.00  0.00    +0.000 A 
ATOM      5  C   UNL     1      46.951   7.307  12.328  0.00  0.00    +0.000 A 
ATOM      6  C   UNL     1      46.017   6.287  12.137  0.00  0.00    +0.000 A 
ENDROOT
BRANCH   1   7
ATOM      7  C   UNL     1      43.710   5.479  11.480  0.00  0.00    +0.000 C 
BRANCH   7   8
ATOM      8  N   UNL     1      43.792   4.947  10.118  0.00  0.00    +0.000 NA
ATOM      9  H   UNL     1      42.880   5.043   9.671  0.00  0.00    +0.000 HD
BRANCH   8  10
ATOM     10  C   UNL     1      44.122   3.514  10.104  0.00  0.00    +0.000 C 
BRANCH  10  16
ATOM     11  C   UNL     1      46.732   0.148   7.731  0.00  0.00    +0.000 C 
ATOM     12  C   UNL     1      46.388   1.596   7.897  0.00  0.00    +0.000 A 
ATOM     13  C   UNL     1      46.991   2.570   7.107  0.00  0.00    +0.000 A 
ATOM     14  C   UNL     1      46.647   3.903   7.305  0.00  0.00    +0.000 A 
ATOM     15  C   UNL     1      45.715   4.226   8.284  0.00  0.00    +0.000 A 
ATOM     16  C   UNL     1      45.159   3.201   9.045  0.00  0.00    +0.000 A 
ATOM     17  N   UNL     1      45.476   1.894   8.853  0.00  0.00    +0.000 NA
ENDBRANCH  10  16
ENDBRANCH   8  10
ENDBRANCH   7   8
ENDBRANCH   1   7
BRANCH   4  18
ATOM     18  C   UNL     1      47.614   9.742  12.308  0.00  0.00    +0.000 C 
BRANCH  18  19
ATOM     19  N   UNL     1      48.902   9.210  12.666  0.00  0.00    +0.000 N 
ATOM     20  C   UNL     1      49.745   9.894  13.500  0.00  0.00    +0.000 C 
ATOM     21  O   UNL     1      49.423  10.961  14.019  0.00  0.00    +0.000 OA
ATOM     22  H   UNL     1      49.285   8.453  12.109  0.00  0.00    +0.000 HD
BRANCH  20  23
ATOM     23  C   UNL     1      51.028   9.248  13.799  0.00  0.00    +0.000 A 
ATOM     24  C   UNL     1      51.339   8.949  15.120  0.00  0.00    +0.000 A 
ATOM     25  S   UNL     1      52.826   8.144  15.302  0.00  0.00    +0.000 S 
ATOM     26  C   UNL     1      53.130   8.222  13.632  0.00  0.00    +0.000 A 
ATOM     27  N   UNL     1      54.279   7.712  13.143  0.00  0.00    +0.000 NA
ATOM     28  C   UNL     1      54.426   7.841  11.813  0.00  0.00    +0.000 A 
ATOM     29  C   UNL     1      53.515   8.438  10.966  0.00  0.00    +0.000 A 
ATOM     30  C   UNL     1      52.343   8.944  11.518  0.00  0.00    +0.000 A 
ATOM     31  C   UNL     1      52.106   8.840  12.914  0.00  0.00    +0.000 A 
BRANCH  30  32
ATOM     32  O   UNL     1      51.419   9.543  10.697  0.00  0.00    +0.000 OA
ATOM     33  H   UNL     1      51.077  10.346  11.130  0.00  0.00    +0.000 HD
ENDBRANCH  30  32
ENDBRANCH  20  23
ENDBRANCH  18  19
ENDBRANCH   4  18
TORSDOF 8
ENDMDL
