MODEL 1
REMARK VINA RESULT:    -7.785      0.000      0.000
REMARK INTER + INTRA:         -10.239
REMARK INTER:                  -9.605
REMARK INTRA:                  -0.634
REMARK UNBOUND:                -0.634
REMARK  Name = 
REMARK  6 active torsions:
REMARK  status: ('A' for Active; 'I' for Inactive)
REMARK    1  A    between atoms: C_1  and  C_2
REMARK    2  A    between atoms: N_4  and  C_5
REMARK    3  A    between atoms: C_9  and  C_10
REMARK    4  A    between atoms: C_10  and  N_11
REMARK    5  A    between atoms: C_15  and  C_16
REMARK    6  A    between atoms: C_23  and  C_24
REMARK                            x       y       z     vdW  Elec       q    Type
REMARK                         _______ _______ _______ _____ _____    ______ ____
ROOT
ATOM      1  C   UNL     1      47.185   6.167  12.809  0.00  0.00    +0.000 A 
ATOM      2  C   UNL     1      46.958   5.421  13.972  0.00  0.00    +0.000 A 
ATOM      3  N   UNL     1      45.912   4.587  14.196  0.00  0.00    +0.000 NA
ATOM      4  C   UNL     1      45.015   4.474  13.199  0.00  0.00    +0.000 A 
ATOM      5  C   UNL     1      45.124   5.140  11.986  0.00  0.00    +0.000 A 
ATOM      6  C   UNL     1      46.217   6.002  11.811  0.00  0.00    +0.000 A 
ENDROOT
BRANCH   1  10
ATOM      7  C   UNL     1      47.070  10.001  12.195  0.00  0.00    +0.000 C 
ATOM      8  C   UNL     1      48.454   9.406  11.926  0.00  0.00    +0.000 C 
ATOM      9  C   UNL     1      48.380   7.919  11.492  0.00  0.00    +0.000 C 
ATOM     10  N   UNL     1      48.264   7.012  12.642  0.00  0.00    +0.000 N 
ATOM     11  C   UNL     1      49.251   7.220  13.710  0.00  0.00    +0.000 C 
ATOM     12  C   UNL     1      49.294   8.710  14.151  0.00  0.00    +0.000 C 
ATOM     13  C   UNL     1      48.144   9.061  15.099  0.00  0.00    +0.000 C 
ATOM     14  N   UNL     1      49.410   9.673  13.030  0.00  0.00    +0.000 NA
ATOM     15  H   UNL     1      50.345   9.549  12.638  0.00  0.00    +0.000 HD
ENDBRANCH   1  10
BRANCH   5  16
ATOM     16  C   UNL     1      44.118   4.905  10.898  0.00  0.00    +0.000 C 
BRANCH  16  17
ATOM     17  N   UNL     1      44.068   3.495  10.526  0.00  0.00    +0.000 N 
ATOM     18  C   UNL     1      44.913   3.203   9.440  0.00  0.00    +0.000 A 
ATOM     19  C   UNL     1      44.994   1.893   8.973  0.00  0.00    +0.000 A 
ATOM     20  C   UNL     1      45.838   1.600   7.898  0.00  0.00    +0.000 A 
ATOM     21  C   UNL     1      46.588   2.618   7.307  0.00  0.00    +0.000 A 
ATOM     22  C   UNL     1      46.457   3.885   7.843  0.00  0.00    +0.000 A 
ATOM     23  N   UNL     1      45.649   4.188   8.887  0.00  0.00    +0.000 NA
ATOM     24  H   UNL     1      43.125   3.190  10.304  0.00  0.00    +0.000 HD
BRANCH  21  25
ATOM     25  C   UNL     1      47.467   2.315   6.156  0.00  0.00    +0.000 C 
ATOM     26  N   UNL     1      47.429   3.123   5.056  0.00  0.00    +0.000 N 
ATOM     27  O   UNL     1      48.220   1.346   6.176  0.00  0.00    +0.000 OA
ATOM     28  H   UNL     1      46.865   3.949   4.939  0.00  0.00    +0.000 HD
ATOM     29  H   UNL     1      48.048   2.870   4.291  0.00  0.00    +0.000 HD
ENDBRANCH  21  25
ENDBRANCH  16  17
ENDBRANCH   5  16
TORSDOF 4
ENDMDL
MODEL 2
REMARK VINA RESULT:    -7.264      3.555      7.729
REMARK INTER + INTRA:          -9.597
REMARK INTER:                  -9.049
REMARK INTRA:                  -0.548
REMARK UNBOUND:                -0.634
REMARK  Name = 
REMARK  6 active torsions:
REMARK  status: ('A' for Active; 'I' for Inactive)
REMARK    1  A    between atoms: C_1  and  C_2
REMARK    2  A    between atoms: N_4  and  C_5
REMARK    3  A    between atoms: C_9  and  C_10
REMARK    4  A    between atoms: C_10  and  N_11
REMARK    5  A    between atoms: C_15  and  C_16
REMARK    6  A    between atoms: C_23  and  C_24
REMARK                            x       y       z     vdW  Elec       q    Type
REMARK                         _______ _______ _______ _____ _____    ______ ____
ROOT
ATOM      1  C   UNL     1      45.444   7.040  11.532  0.00  0.00    +0.000 A 
ATOM      2  C   UNL     1      45.028   8.353  11.783  0.00  0.00    +0.000 A 
ATOM      3  N   UNL     1      45.763   9.326  12.377  0.00  0.00    +0.000 NA
ATOM      4  C   UNL     1      47.008   8.985  12.757  0.00  0.00    +0.000 A 
ATOM      5  C   UNL     1      47.557   7.726  12.555  0.00  0.00    +0.000 A 
ATOM      6  C   UNL     1      46.750   6.752  11.950  0.00  0.00    +0.000 A 
ENDROOT
BRANCH   1  10
ATOM      7  C   UNL     1      45.479   3.214  12.206  0.00  0.00    +0.000 C 
ATOM      8  C   UNL     1      44.687   3.580  10.948  0.00  0.00    +0.000 C 
ATOM      9  C   UNL     1      45.202   4.888  10.291  0.00  0.00    +0.000 C 
ATOM     10  N   UNL     1      44.646   6.086  10.934  0.00  0.00    +0.000 N 
ATOM     11  C   UNL     1      43.185   6.094  11.095  0.00  0.00    +0.000 C 
ATOM     12  C   UNL     1      42.689   4.789  11.779  0.00  0.00    +0.000 C 
ATOM     13  C   UNL     1      42.892   4.823  13.296  0.00  0.00    +0.000 C 
ATOM     14  N   UNL     1      43.220   3.544  11.171  0.00  0.00    +0.000 NA
ATOM     15  H   UNL     1      42.790   3.468  10.248  0.00  0.00    +0.000 HD
ENDBRANCH   1  10
BRANCH   5  16
ATOM     16  C   UNL     1      48.978   7.446  12.945  0.00  0.00    +0.000 C 
BRANCH  16  17
ATOM     17  N   UNL     1      49.208   7.761  14.351  0.00  0.00    +0.000 N 
ATOM     18  C   UNL     1      48.758   6.737  15.204  0.00  0.00    +0.000 A 
ATOM     19  C   UNL     1      48.922   6.877  16.580  0.00  0.00    +0.000 A 
ATOM     20  C   UNL     1      48.481   5.857  17.429  0.00  0.00    +0.000 A 
ATOM     21  C   UNL     1      47.884   4.716  16.891  0.00  0.00    +0.000 A 
ATOM     22  C   UNL     1      47.775   4.656  15.514  0.00  0.00    +0.000 A 
ATOM     23  N   UNL     1      48.200   5.629  14.675  0.00  0.00    +0.000 NA
ATOM     24  H   UNL     1      48.772   8.637  14.624  0.00  0.00    +0.000 HD
BRANCH  21  25
ATOM     25  C   UNL     1      47.398   3.644  17.788  0.00  0.00    +0.000 C 
ATOM     26  N   UNL     1      47.985   3.477  19.009  0.00  0.00    +0.000 N 
ATOM     27  O   UNL     1      46.483   2.902  17.443  0.00  0.00    +0.000 OA
ATOM     28  H   UNL     1      48.727   4.036  19.398  0.00  0.00    +0.000 HD
ATOM     29  H   UNL     1      47.618   2.726  19.585  0.00  0.00    +0.000 HD
ENDBRANCH  21  25
ENDBRANCH  16  17
ENDBRANCH   5  16
TORSDOF 4
ENDMDL
MODEL 3
REMARK VINA RESULT:    -7.214      4.514      7.979
REMARK INTER + INTRA:          -9.535
REMARK INTER:                  -8.840
REMARK INTRA:                  -0.695
REMARK UNBOUND:                -0.634
REMARK  Name = 
REMARK  6 active torsions:
REMARK  status: ('A' for Active; 'I' for Inactive)
REMARK    1  A    between atoms: C_1  and  C_2
REMARK    2  A    between atoms: N_4  and  C_5
REMARK    3  A    between atoms: C_9  and  C_10
REMARK    4  A    between atoms: C_10  and  N_11
REMARK    5  A    between atoms: C_15  and  C_16
REMARK    6  A    between atoms: C_23  and  C_24
REMARK                            x       y       z     vdW  Elec       q    Type
REMARK                         _______ _______ _______ _____ _____    ______ ____
ROOT
ATOM      1  C   UNL     1      46.466   6.373  12.406  0.00  0.00    +0.000 A 
ATOM      2  C   UNL     1      47.560   7.246  12.435  0.00  0.00    +0.000 A 
ATOM      3  N   UNL     1      48.496   7.324  13.414  0.00  0.00    +0.000 NA
ATOM      4  C   UNL     1      48.348   6.478  14.450  0.00  0.00    +0.000 A 
ATOM      5  C   UNL     1      47.322   5.549  14.544  0.00  0.00    +0.000 A 
ATOM      6  C   UNL     1      46.372   5.519  13.512  0.00  0.00    +0.000 A 
ENDROOT
BRANCH   1  10
ATOM      7  C   UNL     1      44.741   3.233  10.903  0.00  0.00    +0.000 C 
ATOM      8  C   UNL     1      44.537   4.482  10.043  0.00  0.00    +0.000 C 
ATOM      9  C   UNL     1      45.698   5.498  10.198  0.00  0.00    +0.000 C 
ATOM     10  N   UNL     1      45.536   6.347  11.387  0.00  0.00    +0.000 N 
ATOM     11  C   UNL     1      44.224   6.993  11.525  0.00  0.00    +0.000 C 
ATOM     12  C   UNL     1      43.072   5.957  11.393  0.00  0.00    +0.000 C 
ATOM     13  C   UNL     1      42.859   5.168  12.688  0.00  0.00    +0.000 C 
ATOM     14  N   UNL     1      43.184   5.070  10.210  0.00  0.00    +0.000 NA
ATOM     15  H   UNL     1      43.023   5.661   9.391  0.00  0.00    +0.000 HD
ENDBRANCH   1  10
BRANCH   5  16
ATOM     16  C   UNL     1      47.267   4.593  15.698  0.00  0.00    +0.000 C 
BRANCH  16  17
ATOM     17  N   UNL     1      48.202   4.984  16.748  0.00  0.00    +0.000 N 
ATOM     18  C   UNL     1      49.166   3.991  16.997  0.00  0.00    +0.000 A 
ATOM     19  C   UNL     1      50.146   4.219  17.961  0.00  0.00    +0.000 A 
ATOM     20  C   UNL     1      51.109   3.236  18.205  0.00  0.00    +0.000 A 
ATOM     21  C   UNL     1      51.079   2.042  17.484  0.00  0.00    +0.000 A 
ATOM     22  C   UNL     1      50.081   1.906  16.537  0.00  0.00    +0.000 A 
ATOM     23  N   UNL     1      49.143   2.848  16.283  0.00  0.00    +0.000 NA
ATOM     24  H   UNL     1      47.729   5.213  17.617  0.00  0.00    +0.000 HD
BRANCH  21  25
ATOM     25  C   UNL     1      52.085   0.990  17.754  0.00  0.00    +0.000 C 
ATOM     26  N   UNL     1      51.687  -0.184  18.324  0.00  0.00    +0.000 N 
ATOM     27  O   UNL     1      53.269   1.165  17.479  0.00  0.00    +0.000 OA
ATOM     28  H   UNL     1      50.745  -0.439  18.574  0.00  0.00    +0.000 HD
ATOM     29  H   UNL     1      52.415  -0.872  18.493  0.00  0.00    +0.000 HD
ENDBRANCH  21  25
ENDBRANCH  16  17
ENDBRANCH   5  16
TORSDOF 4
ENDMDL
MODEL 4
REMARK VINA RESULT:    -6.860      3.608      5.788
REMARK INTER + INTRA:          -9.099
REMARK INTER:                  -8.364
REMARK INTRA:                  -0.735
REMARK UNBOUND:                -0.634
REMARK  Name = 
REMARK  6 active torsions:
REMARK  status: ('A' for Active; 'I' for Inactive)
REMARK    1  A    between atoms: C_1  and  C_2
REMARK    2  A    between atoms: N_4  and  C_5
REMARK    3  A    between atoms: C_9  and  C_10
REMARK    4  A    between atoms: C_10  and  N_11
REMARK    5  A    between atoms: C_15  and  C_16
REMARK    6  A    between atoms: C_23  and  C_24
REMARK                            x       y       z     vdW  Elec       q    Type
REMARK                         _______ _______ _______ _____ _____    ______ ____
ROOT
ATOM      1  C   UNL     1      49.928   6.148  16.655  0.00  0.00    +0.000 A 
ATOM      2  C   UNL     1      50.973   6.975  16.226  0.00  0.00    +0.000 A 
ATOM      3  N   UNL     1      50.976   7.750  15.113  0.00  0.00    +0.000 NA
ATOM      4  C   UNL     1      49.863   7.711  14.357  0.00  0.00    +0.000 A 
ATOM      5  C   UNL     1      48.746   6.951  14.670  0.00  0.00    +0.000 A 
ATOM      6  C   UNL     1      48.800   6.157  15.825  0.00  0.00    +0.000 A 
ENDROOT
BRANCH   1  10
ATOM      7  C   UNL     1      47.252   5.916  19.461  0.00  0.00    +0.000 C 
ATOM      8  C   UNL     1      48.584   5.283  19.868  0.00  0.00    +0.000 C 
ATOM      9  C   UNL     1      49.789   5.930  19.137  0.00  0.00    +0.000 C 
ATOM     10  N   UNL     1      49.987   5.370  17.793  0.00  0.00    +0.000 N 
ATOM     11  C   UNL     1      50.029   3.903  17.722  0.00  0.00    +0.000 C 
ATOM     12  C   UNL     1      48.801   3.272  18.436  0.00  0.00    +0.000 C 
ATOM     13  C   UNL     1      47.544   3.313  17.562  0.00  0.00    +0.000 C 
ATOM     14  N   UNL     1      48.552   3.801  19.799  0.00  0.00    +0.000 NA
ATOM     15  H   UNL     1      49.321   3.468  20.383  0.00  0.00    +0.000 HD
ENDBRANCH   1  10
BRANCH   5  16
ATOM     16  C   UNL     1      47.517   7.018  13.812  0.00  0.00    +0.000 C 
BRANCH  16  17
ATOM     17  N   UNL     1      46.585   5.946  14.146  0.00  0.00    +0.000 N 
ATOM     18  C   UNL     1      46.021   5.358  13.000  0.00  0.00    +0.000 A 
ATOM     19  C   UNL     1      45.122   4.304  13.148  0.00  0.00    +0.000 A 
ATOM     20  C   UNL     1      44.565   3.713  12.010  0.00  0.00    +0.000 A 
ATOM     21  C   UNL     1      44.914   4.184  10.743  0.00  0.00    +0.000 A 
ATOM     22  C   UNL     1      45.823   5.224  10.690  0.00  0.00    +0.000 A 
ATOM     23  N   UNL     1      46.377   5.805  11.779  0.00  0.00    +0.000 NA
ATOM     24  H   UNL     1      45.839   6.264  14.758  0.00  0.00    +0.000 HD
BRANCH  21  25
ATOM     25  C   UNL     1      44.311   3.575   9.537  0.00  0.00    +0.000 C 
ATOM     26  N   UNL     1      44.158   4.332   8.412  0.00  0.00    +0.000 N 
ATOM     27  O   UNL     1      43.942   2.404   9.540  0.00  0.00    +0.000 OA
ATOM     28  H   UNL     1      44.439   5.292   8.294  0.00  0.00    +0.000 HD
ATOM     29  H   UNL     1      43.735   3.870   7.613  0.00  0.00    +0.000 HD
ENDBRANCH  21  25
ENDBRANCH  16  17
ENDBRANCH   5  16
TORSDOF 4
ENDMDL
MODEL 5
REMARK VINA RESULT:    -6.789      4.719      8.681
REMARK INTER + INTRA:          -9.011
REMARK INTER:                  -8.369
REMARK INTRA:                  -0.643
REMARK UNBOUND:                -0.634
REMARK  Name = 
REMARK  6 active torsions:
REMARK  status: ('A' for Active; 'I' for Inactive)
REMARK    1  A    between atoms: C_1  and  C_2
REMARK    2  A    between atoms: N_4  and  C_5
REMARK    3  A    between atoms: C_9  and  C_10
REMARK    4  A    between atoms: C_10  and  N_11
REMARK    5  A    between atoms: C_15  and  C_16
REMARK    6  A    between atoms: C_23  and  C_24
REMARK                            x       y       z     vdW  Elec       q    Type
REMARK                         _______ _______ _______ _____ _____    ______ ____
ROOT
ATOM      1  C   UNL     1      46.459   6.279  12.335  0.00  0.00    +0.000 A 
ATOM      2  C   UNL     1      47.490   7.218  12.465  0.00  0.00    +0.000 A 
ATOM      3  N   UNL     1      48.406   7.266  13.464  0.00  0.00    +0.000 NA
ATOM      4  C   UNL     1      48.304   6.318  14.414  0.00  0.00    +0.000 A 
ATOM      5  C   UNL     1      47.343   5.317  14.402  0.00  0.00    +0.000 A 
ATOM      6  C   UNL     1      46.410   5.321  13.355  0.00  0.00    +0.000 A 
ENDROOT
BRANCH   1  10
ATOM      7  C   UNL     1      44.722   3.195  10.735  0.00  0.00    +0.000 C 
ATOM      8  C   UNL     1      44.546   4.465   9.900  0.00  0.00    +0.000 C 
ATOM      9  C   UNL     1      45.717   5.463  10.096  0.00  0.00    +0.000 C 
ATOM     10  N   UNL     1      45.546   6.287  11.300  0.00  0.00    +0.000 N 
ATOM     11  C   UNL     1      44.239   6.946  11.431  0.00  0.00    +0.000 C 
ATOM     12  C   UNL     1      43.078   5.927  11.258  0.00  0.00    +0.000 C 
ATOM     13  C   UNL     1      42.834   5.113  12.532  0.00  0.00    +0.000 C 
ATOM     14  N   UNL     1      43.198   5.066  10.058  0.00  0.00    +0.000 NA
ATOM     15  H   UNL     1      43.058   5.676   9.250  0.00  0.00    +0.000 HD
ENDBRANCH   1  10
BRANCH   5  16
ATOM     16  C   UNL     1      47.340   4.255  15.462  0.00  0.00    +0.000 C 
BRANCH  16  17
ATOM     17  N   UNL     1      47.158   4.838  16.787  0.00  0.00    +0.000 N 
ATOM     18  C   UNL     1      48.327   4.762  17.565  0.00  0.00    +0.000 A 
ATOM     19  C   UNL     1      48.325   5.291  18.853  0.00  0.00    +0.000 A 
ATOM     20  C   UNL     1      49.488   5.223  19.625  0.00  0.00    +0.000 A 
ATOM     21  C   UNL     1      50.635   4.626  19.099  0.00  0.00    +0.000 A 
ATOM     22  C   UNL     1      50.552   4.139  17.808  0.00  0.00    +0.000 A 
ATOM     23  N   UNL     1      49.437   4.201  17.043  0.00  0.00    +0.000 NA
ATOM     24  H   UNL     1      46.393   4.404  17.295  0.00  0.00    +0.000 HD
BRANCH  21  25
ATOM     25  C   UNL     1      51.862   4.533  19.921  0.00  0.00    +0.000 C 
ATOM     26  N   UNL     1      51.757   4.542  21.281  0.00  0.00    +0.000 N 
ATOM     27  O   UNL     1      52.968   4.456  19.394  0.00  0.00    +0.000 OA
ATOM     28  H   UNL     1      50.905   4.584  21.816  0.00  0.00    +0.000 HD
ATOM     29  H   UNL     1      52.628   4.480  21.800  0.00  0.00    +0.000 HD
ENDBRANCH  21  25
ENDBRANCH  16  17
ENDBRANCH   5  16
TORSDOF 4
ENDMDL
MODEL 6
REMARK VINA RESULT:    -6.762      4.631      6.412
REMARK INTER + INTRA:          -8.978
REMARK INTER:                  -8.278
REMARK INTRA:                  -0.700
REMARK UNBOUND:                -0.634
REMARK  Name = 
REMARK  6 active torsions:
REMARK  status: ('A' for Active; 'I' for Inactive)
REMARK    1  A    between atoms: C_1  and  C_2
REMARK    2  A    between atoms: N_4  and  C_5
REMARK    3  A    between atoms: C_9  and  C_10
REMARK    4  A    between atoms: C_10  and  N_11
REMARK    5  A    between atoms: C_15  and  C_16
REMARK    6  A    between atoms: C_23  and  C_24
REMARK                            x       y       z     vdW  Elec       q    Type
REMARK                         _______ _______ _______ _____ _____    ______ ____
ROOT
ATOM      1  C   UNL     1      50.458   3.469  17.773  0.00  0.00    +0.000 A 
ATOM      2  C   UNL     1      50.608   2.215  17.170  0.00  0.00    +0.000 A 
ATOM      3  N   UNL     1      49.721   1.616  16.337  0.00  0.00    +0.000 NA
ATOM      4  C   UNL     1      48.593   2.302  16.073  0.00  0.00    +0.000 A 
ATOM      5  C   UNL     1      48.321   3.562  16.587  0.00  0.00    +0.000 A 
ATOM      6  C   UNL     1      49.265   4.130  17.456  0.00  0.00    +0.000 A 
ENDROOT
BRANCH   1  10
ATOM      7  C   UNL     1      53.346   5.884  16.813  0.00  0.00    +0.000 C 
ATOM      8  C   UNL     1      53.500   5.318  18.227  0.00  0.00    +0.000 C 
ATOM      9  C   UNL     1      52.836   3.925  18.378  0.00  0.00    +0.000 C 
ATOM     10  N   UNL     1      51.391   4.024  18.625  0.00  0.00    +0.000 N 
ATOM     11  C   UNL     1      50.999   4.936  19.709  0.00  0.00    +0.000 C 
ATOM     12  C   UNL     1      51.652   6.335  19.528  0.00  0.00    +0.000 C 
ATOM     13  C   UNL     1      50.908   7.187  18.496  0.00  0.00    +0.000 C 
ATOM     14  N   UNL     1      53.112   6.296  19.274  0.00  0.00    +0.000 NA
ATOM     15  H   UNL     1      53.548   5.978  20.142  0.00  0.00    +0.000 HD
ENDBRANCH   1  10
BRANCH   5  16
ATOM     16  C   UNL     1      47.072   4.290  16.188  0.00  0.00    +0.000 C 
BRANCH  16  17
ATOM     17  N   UNL     1      47.373   5.381  15.266  0.00  0.00    +0.000 N 
ATOM     18  C   UNL     1      46.726   5.222  14.028  0.00  0.00    +0.000 A 
ATOM     19  C   UNL     1      46.896   6.191  13.041  0.00  0.00    +0.000 A 
ATOM     20  C   UNL     1      46.249   6.038  11.812  0.00  0.00    +0.000 A 
ATOM     21  C   UNL     1      45.442   4.922  11.587  0.00  0.00    +0.000 A 
ATOM     22  C   UNL     1      45.319   4.018  12.626  0.00  0.00    +0.000 A 
ATOM     23  N   UNL     1      45.933   4.151  13.825  0.00  0.00    +0.000 NA
ATOM     24  H   UNL     1      48.371   5.486  15.109  0.00  0.00    +0.000 HD
BRANCH  21  25
ATOM     25  C   UNL     1      44.772   4.746  10.280  0.00  0.00    +0.000 C 
ATOM     26  N   UNL     1      45.443   5.069   9.136  0.00  0.00    +0.000 N 
ATOM     27  O   UNL     1      43.621   4.323  10.214  0.00  0.00    +0.000 OA
ATOM     28  H   UNL     1      46.390   5.406   9.072  0.00  0.00    +0.000 HD
ATOM     29  H   UNL     1      44.938   4.934   8.265  0.00  0.00    +0.000 HD
ENDBRANCH  21  25
ENDBRANCH  16  17
ENDBRANCH   5  16
TORSDOF 4
ENDMDL
MODEL 7
REMARK VINA RESULT:    -6.637      3.709      6.292
REMARK INTER + INTRA:          -8.823
REMARK INTER:                  -8.006
REMARK INTRA:                  -0.817
REMARK UNBOUND:                -0.634
REMARK  Name = 
REMARK  6 active torsions:
REMARK  status: ('A' for Active; 'I' for Inactive)
REMARK    1  A    between atoms: C_1  and  C_2
REMARK    2  A    between atoms: N_4  and  C_5
REMARK    3  A    between atoms: C_9  and  C_10
REMARK    4  A    between atoms: C_10  and  N_11
REMARK    5  A    between atoms: C_15  and  C_16
REMARK    6  A    between atoms: C_23  and  C_24
REMARK                            x       y       z     vdW  Elec       q    Type
REMARK                         _______ _______ _______ _____ _____    ______ ____
ROOT
ATOM      1  C   UNL     1      48.633   6.920  17.074  0.00  0.00    +0.000 A 
ATOM      2  C   UNL     1      48.499   8.297  17.288  0.00  0.00    +0.000 A 
ATOM      3  N   UNL     1      48.512   9.260  16.333  0.00  0.00    +0.000 NA
ATOM      4  C   UNL     1      48.671   8.840  15.064  0.00  0.00    +0.000 A 
ATOM      5  C   UNL     1      48.799   7.505  14.705  0.00  0.00    +0.000 A 
ATOM      6  C   UNL     1      48.793   6.550  15.733  0.00  0.00    +0.000 A 
ENDROOT
BRANCH   1  10
ATOM      7  C   UNL     1      48.164   3.081  16.705  0.00  0.00    +0.000 C 
ATOM      8  C   UNL     1      48.031   3.551  18.155  0.00  0.00    +0.000 C 
ATOM      9  C   UNL     1      47.533   5.016  18.254  0.00  0.00    +0.000 C 
ATOM     10  N   UNL     1      48.625   5.985  18.089  0.00  0.00    +0.000 N 
ATOM     11  C   UNL     1      49.806   5.752  18.932  0.00  0.00    +0.000 C 
ATOM     12  C   UNL     1      50.308   4.286  18.800  0.00  0.00    +0.000 C 
ATOM     13  C   UNL     1      51.132   4.074  17.526  0.00  0.00    +0.000 C 
ATOM     14  N   UNL     1      49.247   3.263  18.957  0.00  0.00    +0.000 NA
ATOM     15  H   UNL     1      48.959   3.294  19.937  0.00  0.00    +0.000 HD
ENDBRANCH   1  10
BRANCH   5  16
ATOM     16  C   UNL     1      48.902   7.114  13.261  0.00  0.00    +0.000 C 
BRANCH  16  17
ATOM     17  N   UNL     1      47.749   7.592  12.504  0.00  0.00    +0.000 N 
ATOM     18  C   UNL     1      46.757   6.605  12.369  0.00  0.00    +0.000 A 
ATOM     19  C   UNL     1      45.581   6.910  11.686  0.00  0.00    +0.000 A 
ATOM     20  C   UNL     1      44.591   5.932  11.556  0.00  0.00    +0.000 A 
ATOM     21  C   UNL     1      44.790   4.666  12.109  0.00  0.00    +0.000 A 
ATOM     22  C   UNL     1      45.980   4.455  12.780  0.00  0.00    +0.000 A 
ATOM     23  N   UNL     1      46.948   5.390  12.922  0.00  0.00    +0.000 NA
ATOM     24  H   UNL     1      48.009   7.931  11.583  0.00  0.00    +0.000 HD
BRANCH  21  25
ATOM     25  C   UNL     1      43.753   3.622  11.955  0.00  0.00    +0.000 C 
ATOM     26  N   UNL     1      43.897   2.435  12.614  0.00  0.00    +0.000 N 
ATOM     27  O   UNL     1      42.773   3.808  11.239  0.00  0.00    +0.000 OA
ATOM     28  H   UNL     1      44.647   2.184  13.237  0.00  0.00    +0.000 HD
ATOM     29  H   UNL     1      43.160   1.750  12.473  0.00  0.00    +0.000 HD
ENDBRANCH  21  25
ENDBRANCH  16  17
ENDBRANCH   5  16
TORSDOF 4
ENDMDL
MODEL 8
REMARK VINA RESULT:    -6.494      3.604      5.480
REMARK INTER + INTRA:          -8.647
REMARK INTER:                  -7.937
REMARK INTRA:                  -0.710
REMARK UNBOUND:                -0.634
REMARK  Name = 
REMARK  6 active torsions:
REMARK  status: ('A' for Active; 'I' for Inactive)
REMARK    1  A    between atoms: C_1  and  C_2
REMARK    2  A    between atoms: N_4  and  C_5
REMARK    3  A    between atoms: C_9  and  C_10
REMARK    4  A    between atoms: C_10  and  N_11
REMARK    5  A    between atoms: C_15  and  C_16
REMARK    6  A    between atoms: C_23  and  C_24
REMARK                            x       y       z     vdW  Elec       q    Type
REMARK                         _______ _______ _______ _____ _____    ______ ____
ROOT
ATOM      1  C   UNL     1      49.745   6.148  17.950  0.00  0.00    +0.000 A 
ATOM      2  C   UNL     1      50.440   5.036  18.441  0.00  0.00    +0.000 A 
ATOM      3  N   UNL     1      50.176   3.737  18.154  0.00  0.00    +0.000 NA
ATOM      4  C   UNL     1      49.146   3.508  17.319  0.00  0.00    +0.000 A 
ATOM      5  C   UNL     1      48.382   4.514  16.745  0.00  0.00    +0.000 A 
ATOM      6  C   UNL     1      48.687   5.840  17.086  0.00  0.00    +0.000 A 
ENDROOT
BRANCH   1  10
ATOM      7  C   UNL     1      48.308   9.376  16.335  0.00  0.00    +0.000 C 
ATOM      8  C   UNL     1      49.528   9.654  17.216  0.00  0.00    +0.000 C 
ATOM      9  C   UNL     1      50.488   8.438  17.291  0.00  0.00    +0.000 C 
ATOM     10  N   UNL     1      50.052   7.450  18.288  0.00  0.00    +0.000 N 
ATOM     11  C   UNL     1      49.750   7.992  19.620  0.00  0.00    +0.000 C 
ATOM     12  C   UNL     1      48.768   9.193  19.529  0.00  0.00    +0.000 C 
ATOM     13  C   UNL     1      47.317   8.736  19.348  0.00  0.00    +0.000 C 
ATOM     14  N   UNL     1      49.157  10.223  18.535  0.00  0.00    +0.000 NA
ATOM     15  H   UNL     1      49.998  10.674  18.902  0.00  0.00    +0.000 HD
ENDBRANCH   1  10
BRANCH   5  16
ATOM     16  C   UNL     1      47.295   4.178  15.768  0.00  0.00    +0.000 C 
BRANCH  16  17
ATOM     17  N   UNL     1      46.986   5.320  14.913  0.00  0.00    +0.000 N 
ATOM     18  C   UNL     1      46.314   4.937  13.739  0.00  0.00    +0.000 A 
ATOM     19  C   UNL     1      45.931   5.915  12.824  0.00  0.00    +0.000 A 
ATOM     20  C   UNL     1      45.257   5.538  11.659  0.00  0.00    +0.000 A 
ATOM     21  C   UNL     1      44.977   4.190  11.425  0.00  0.00    +0.000 A 
ATOM     22  C   UNL     1      45.381   3.289  12.393  0.00  0.00    +0.000 A 
ATOM     23  N   UNL     1      46.030   3.636  13.530  0.00  0.00    +0.000 NA
ATOM     24  H   UNL     1      47.817   5.848  14.664  0.00  0.00    +0.000 HD
BRANCH  21  25
ATOM     25  C   UNL     1      44.282   3.784  10.184  0.00  0.00    +0.000 C 
ATOM     26  N   UNL     1      44.099   4.702   9.190  0.00  0.00    +0.000 N 
ATOM     27  O   UNL     1      43.865   2.638  10.041  0.00  0.00    +0.000 OA
ATOM     28  H   UNL     1      44.414   5.659   9.194  0.00  0.00    +0.000 HD
ATOM     29  H   UNL     1      43.613   4.376   8.360  0.00  0.00    +0.000 HD
ENDBRANCH  21  25
ENDBRANCH  16  17
ENDBRANCH   5  16
TORSDOF 4
ENDMDL
MODEL 9
REMARK VINA RESULT:    -6.249      3.685      5.564
REMARK INTER + INTRA:          -8.345
REMARK INTER:                  -7.690
REMARK INTRA:                  -0.655
REMARK UNBOUND:                -0.634
REMARK  Name = 
REMARK  6 active torsions:
REMARK  status: ('A' for Active; 'I' for Inactive)
REMARK    1  A    between atoms: C_1  and  C_2
REMARK    2  A    between atoms: N_4  and  C_5
REMARK    3  A    between atoms: C_9  and  C_10
REMARK    4  A    between atoms: C_10  and  N_11
REMARK    5  A    between atoms: C_15  and  C_16
REMARK    6  A    between atoms: C_23  and  C_24
REMARK                            x       y       z     vdW  Elec       q    Type
REMARK                         _______ _______ _______ _____ _____    ______ ____
ROOT
ATOM      1  C   UNL     1      49.356   5.994  18.083  0.00  0.00    +0.000 A 
ATOM      2  C   UNL     1      49.376   5.021  19.089  0.00  0.00    +0.000 A 
ATOM      3  N   UNL     1      48.753   3.817  19.051  0.00  0.00    +0.000 NA
ATOM      4  C   UNL     1      48.052   3.543  17.935  0.00  0.00    +0.000 A 
ATOM      5  C   UNL     1      47.960   4.407  16.853  0.00  0.00    +0.000 A 
ATOM      6  C   UNL     1      48.611   5.645  16.949  0.00  0.00    +0.000 A 
ENDROOT
BRANCH   1  10
ATOM      7  C   UNL     1      53.122   6.697  17.438  0.00  0.00    +0.000 C 
ATOM      8  C   UNL     1      52.420   7.862  18.140  0.00  0.00    +0.000 C 
ATOM      9  C   UNL     1      51.212   7.391  18.993  0.00  0.00    +0.000 C 
ATOM     10  N   UNL     1      50.000   7.210  18.183  0.00  0.00    +0.000 N 
ATOM     11  C   UNL     1      49.648   8.342  17.315  0.00  0.00    +0.000 C 
ATOM     12  C   UNL     1      50.861   8.784  16.449  0.00  0.00    +0.000 C 
ATOM     13  C   UNL     1      51.062   7.872  15.236  0.00  0.00    +0.000 C 
ATOM     14  N   UNL     1      52.115   8.982  17.215  0.00  0.00    +0.000 NA
ATOM     15  H   UNL     1      51.969   9.807  17.799  0.00  0.00    +0.000 HD
ENDBRANCH   1  10
BRANCH   5  16
ATOM     16  C   UNL     1      47.216   3.997  15.616  0.00  0.00    +0.000 C 
BRANCH  16  17
ATOM     17  N   UNL     1      46.943   5.149  14.763  0.00  0.00    +0.000 N 
ATOM     18  C   UNL     1      46.276   4.786  13.579  0.00  0.00    +0.000 A 
ATOM     19  C   UNL     1      45.925   5.775  12.664  0.00  0.00    +0.000 A 
ATOM     20  C   UNL     1      45.257   5.417  11.490  0.00  0.00    +0.000 A 
ATOM     21  C   UNL     1      44.950   4.077  11.248  0.00  0.00    +0.000 A 
ATOM     22  C   UNL     1      45.323   3.164  12.216  0.00  0.00    +0.000 A 
ATOM     23  N   UNL     1      45.966   3.492  13.362  0.00  0.00    +0.000 NA
ATOM     24  H   UNL     1      47.788   5.659  14.525  0.00  0.00    +0.000 HD
BRANCH  21  25
ATOM     25  C   UNL     1      44.261   3.692   9.996  0.00  0.00    +0.000 C 
ATOM     26  N   UNL     1      43.907   4.661   9.103  0.00  0.00    +0.000 N 
ATOM     27  O   UNL     1      43.998   2.516   9.759  0.00  0.00    +0.000 OA
ATOM     28  H   UNL     1      44.087   5.648   9.188  0.00  0.00    +0.000 HD
ATOM     29  H   UNL     1      43.433   4.346   8.262  0.00  0.00    +0.000 HD
ENDBRANCH  21  25
ENDBRANCH  16  17
ENDBRANCH   5  16
TORSDOF 4
ENDMDL
