MODEL 1
REMARK VINA RESULT:    -8.450      0.000      0.000
REMARK INTER + INTRA:         -12.370
REMARK INTER:                 -11.414
REMARK INTRA:                  -0.955
REMARK UNBOUND:                -0.955
REMARK  Name = 
REMARK  7 active torsions:
REMARK  status: ('A' for Active; 'I' for Inactive)
REMARK    1  A    between atoms: C_1  and  C_2
REMARK    2  A    between atoms: C_5  and  N_6
REMARK    3  A    between atoms: C_13  and  C_14
REMARK    4  A    between atoms: C_14  and  C_15
REMARK    5  A    between atoms: C_15  and  N_16
REMARK    6  A    between atoms: N_16  and  C_17
REMARK    7  A    between atoms: C_20  and  C_21
REMARK                            x       y       z     vdW  Elec       q    Type
REMARK                         _______ _______ _______ _____ _____    ______ ____
ROOT
ATOM      1  C   UNL     1      44.055   4.455  12.843  0.00  0.00    +0.000 C 
ENDROOT
BRANCH   1   8
ATOM      2  C   UNL     1      45.146   6.877  11.324  0.00  0.00    +0.000 C 
ATOM      3  C   UNL     1      45.887   6.229  12.460  0.00  0.00    +0.000 A 
ATOM      4  C   UNL     1      47.114   6.782  12.854  0.00  0.00    +0.000 A 
ATOM      5  C   UNL     1      47.833   6.261  13.935  0.00  0.00    +0.000 A 
ATOM      6  C   UNL     1      47.361   5.169  14.663  0.00  0.00    +0.000 A 
ATOM      7  C   UNL     1      46.145   4.602  14.241  0.00  0.00    +0.000 A 
ATOM      8  C   UNL     1      45.395   5.107  13.155  0.00  0.00    +0.000 A 
BRANCH   6   9
ATOM      9  N   UNL     1      48.019   4.674  15.777  0.00  0.00    +0.000 N 
ATOM     10  C   UNL     1      47.929   3.258  16.164  0.00  0.00    +0.000 C 
ATOM     11  C   UNL     1      47.173   3.078  17.499  0.00  0.00    +0.000 C 
ATOM     12  N   UNL     1      47.714   3.914  18.591  0.00  0.00    +0.000 NA
ATOM     13  C   UNL     1      47.673   5.327  18.156  0.00  0.00    +0.000 C 
ATOM     14  C   UNL     1      48.437   5.604  16.838  0.00  0.00    +0.000 C 
ATOM     15  H   UNL     1      48.694   3.658  18.724  0.00  0.00    +0.000 HD
ENDBRANCH   6   9
ENDBRANCH   1   8
BRANCH   1  16
ATOM     16  C   UNL     1      44.225   3.276  11.875  0.00  0.00    +0.000 C 
BRANCH  16  17
ATOM     17  N   UNL     1      43.776   3.596  10.507  0.00  0.00    +0.000 N 
ATOM     18  H   UNL     1      43.436   4.551  10.425  0.00  0.00    +0.000 HD
BRANCH  17  19
ATOM     19  C   UNL     1      44.686   3.295   9.470  0.00  0.00    +0.000 A 
ATOM     20  C   UNL     1      45.320   4.287   8.711  0.00  0.00    +0.000 A 
ATOM     21  C   UNL     1      46.232   3.971   7.703  0.00  0.00    +0.000 A 
ATOM     22  C   UNL     1      46.580   2.644   7.456  0.00  0.00    +0.000 A 
ATOM     23  C   UNL     1      46.010   1.636   8.240  0.00  0.00    +0.000 A 
ATOM     24  C   UNL     1      45.085   1.966   9.249  0.00  0.00    +0.000 A 
BRANCH  22  25
ATOM     25  C   UNL     1      47.542   2.384   6.350  0.00  0.00    +0.000 C 
ATOM     26  N   UNL     1      47.358   3.056   5.179  0.00  0.00    +0.000 N 
ATOM     27  O   UNL     1      48.447   1.566   6.462  0.00  0.00    +0.000 OA
ATOM     28  H   UNL     1      46.491   3.522   4.955  0.00  0.00    +0.000 HD
ATOM     29  H   UNL     1      47.937   2.749   4.405  0.00  0.00    +0.000 HD
ENDBRANCH  22  25
ENDBRANCH  17  19
ENDBRANCH  16  17
ENDBRANCH   1  16
TORSDOF 6
ENDMDL
MODEL 2
REMARK VINA RESULT:    -7.947      2.878      4.530
REMARK INTER + INTRA:         -11.690
REMARK INTER:                 -10.862
REMARK INTRA:                  -0.828
REMARK UNBOUND:                -0.955
REMARK  Name = 
REMARK  7 active torsions:
REMARK  status: ('A' for Active; 'I' for Inactive)
REMARK    1  A    between atoms: C_1  and  C_2
REMARK    2  A    between atoms: C_5  and  N_6
REMARK    3  A    between atoms: C_13  and  C_14
REMARK    4  A    between atoms: C_14  and  C_15
REMARK    5  A    between atoms: C_15  and  N_16
REMARK    6  A    between atoms: N_16  and  C_17
REMARK    7  A    between atoms: C_20  and  C_21
REMARK                            x       y       z     vdW  Elec       q    Type
REMARK                         _______ _______ _______ _____ _____    ______ ____
ROOT
ATOM      1  C   UNL     1      43.294   4.933  12.556  0.00  0.00    +0.000 C 
ENDROOT
BRANCH   1   8
ATOM      2  C   UNL     1      45.912   3.368  12.809  0.00  0.00    +0.000 C 
ATOM      3  C   UNL     1      45.857   4.870  12.837  0.00  0.00    +0.000 A 
ATOM      4  C   UNL     1      47.062   5.577  12.953  0.00  0.00    +0.000 A 
ATOM      5  C   UNL     1      47.090   6.975  12.934  0.00  0.00    +0.000 A 
ATOM      6  C   UNL     1      45.920   7.724  12.803  0.00  0.00    +0.000 A 
ATOM      7  C   UNL     1      44.713   7.007  12.719  0.00  0.00    +0.000 A 
ATOM      8  C   UNL     1      44.653   5.594  12.732  0.00  0.00    +0.000 A 
BRANCH   6   9
ATOM      9  N   UNL     1      45.924   9.106  12.717  0.00  0.00    +0.000 N 
ATOM     10  C   UNL     1      44.768   9.854  12.201  0.00  0.00    +0.000 C 
ATOM     11  C   UNL     1      45.089  10.549  10.860  0.00  0.00    +0.000 C 
ATOM     12  N   UNL     1      46.305  11.387  10.916  0.00  0.00    +0.000 NA
ATOM     13  C   UNL     1      47.435  10.534  11.344  0.00  0.00    +0.000 C 
ATOM     14  C   UNL     1      47.210   9.822  12.700  0.00  0.00    +0.000 C 
ATOM     15  H   UNL     1      46.162  12.097  11.635  0.00  0.00    +0.000 HD
ENDBRANCH   6   9
ENDBRANCH   1   8
BRANCH   1  16
ATOM     16  C   UNL     1      43.200   4.209  11.206  0.00  0.00    +0.000 C 
BRANCH  16  17
ATOM     17  N   UNL     1      43.917   4.919  10.131  0.00  0.00    +0.000 N 
ATOM     18  H   UNL     1      44.379   5.762  10.464  0.00  0.00    +0.000 HD
BRANCH  17  19
ATOM     19  C   UNL     1      44.799   4.137   9.353  0.00  0.00    +0.000 A 
ATOM     20  C   UNL     1      44.755   2.737   9.342  0.00  0.00    +0.000 A 
ATOM     21  C   UNL     1      45.622   1.980   8.552  0.00  0.00    +0.000 A 
ATOM     22  C   UNL     1      46.532   2.607   7.703  0.00  0.00    +0.000 A 
ATOM     23  C   UNL     1      46.556   4.004   7.646  0.00  0.00    +0.000 A 
ATOM     24  C   UNL     1      45.682   4.757   8.454  0.00  0.00    +0.000 A 
BRANCH  22  25
ATOM     25  C   UNL     1      47.439   1.734   6.908  0.00  0.00    +0.000 C 
ATOM     26  N   UNL     1      48.506   2.320   6.295  0.00  0.00    +0.000 N 
ATOM     27  O   UNL     1      47.222   0.537   6.768  0.00  0.00    +0.000 OA
ATOM     28  H   UNL     1      48.570   3.319   6.162  0.00  0.00    +0.000 HD
ATOM     29  H   UNL     1      49.015   1.729   5.647  0.00  0.00    +0.000 HD
ENDBRANCH  22  25
ENDBRANCH  17  19
ENDBRANCH  16  17
ENDBRANCH   1  16
TORSDOF 6
ENDMDL
MODEL 3
REMARK VINA RESULT:    -7.789      0.989      1.460
REMARK INTER + INTRA:         -11.476
REMARK INTER:                 -11.275
REMARK INTRA:                  -0.201
REMARK UNBOUND:                -0.955
REMARK  Name = 
REMARK  7 active torsions:
REMARK  status: ('A' for Active; 'I' for Inactive)
REMARK    1  A    between atoms: C_1  and  C_2
REMARK    2  A    between atoms: C_5  and  N_6
REMARK    3  A    between atoms: C_13  and  C_14
REMARK    4  A    between atoms: C_14  and  C_15
REMARK    5  A    between atoms: C_15  and  N_16
REMARK    6  A    between atoms: N_16  and  C_17
REMARK    7  A    between atoms: C_20  and  C_21
REMARK                            x       y       z     vdW  Elec       q    Type
REMARK                         _______ _______ _______ _____ _____    ______ ____
ROOT
ATOM      1  C   UNL     1      45.491   3.823  12.327  0.00  0.00    +0.000 C 
ENDROOT
BRANCH   1   8
ATOM      2  C   UNL     1      46.584   6.504  11.337  0.00  0.00    +0.000 C 
ATOM      3  C   UNL     1      46.925   5.936  12.686  0.00  0.00    +0.000 A 
ATOM      4  C   UNL     1      47.756   6.685  13.532  0.00  0.00    +0.000 A 
ATOM      5  C   UNL     1      48.073   6.240  14.820  0.00  0.00    +0.000 A 
ATOM      6  C   UNL     1      47.581   5.032  15.314  0.00  0.00    +0.000 A 
ATOM      7  C   UNL     1      46.775   4.273  14.446  0.00  0.00    +0.000 A 
ATOM      8  C   UNL     1      46.434   4.697  13.142  0.00  0.00    +0.000 A 
BRANCH   6   9
ATOM      9  N   UNL     1      47.826   4.599  16.606  0.00  0.00    +0.000 N 
ATOM     10  C   UNL     1      48.508   5.449  17.593  0.00  0.00    +0.000 C 
ATOM     11  C   UNL     1      49.893   4.884  17.974  0.00  0.00    +0.000 C 
ATOM     12  N   UNL     1      49.846   3.471  18.406  0.00  0.00    +0.000 NA
ATOM     13  C   UNL     1      49.240   2.675  17.316  0.00  0.00    +0.000 C 
ATOM     14  C   UNL     1      47.831   3.155  16.891  0.00  0.00    +0.000 C 
ATOM     15  H   UNL     1      49.226   3.412  19.215  0.00  0.00    +0.000 HD
ENDBRANCH   6   9
ENDBRANCH   1   8
BRANCH   1  16
ATOM     16  C   UNL     1      44.291   4.631  11.815  0.00  0.00    +0.000 C 
BRANCH  16  17
ATOM     17  N   UNL     1      43.672   4.032  10.618  0.00  0.00    +0.000 N 
ATOM     18  H   UNL     1      42.934   4.616  10.231  0.00  0.00    +0.000 HD
BRANCH  17  19
ATOM     19  C   UNL     1      44.562   3.610   9.607  0.00  0.00    +0.000 A 
ATOM     20  C   UNL     1      45.286   4.510   8.814  0.00  0.00    +0.000 A 
ATOM     21  C   UNL     1      46.177   4.074   7.832  0.00  0.00    +0.000 A 
ATOM     22  C   UNL     1      46.412   2.713   7.646  0.00  0.00    +0.000 A 
ATOM     23  C   UNL     1      45.752   1.792   8.466  0.00  0.00    +0.000 A 
ATOM     24  C   UNL     1      44.849   2.244   9.447  0.00  0.00    +0.000 A 
BRANCH  22  25
ATOM     25  C   UNL     1      47.359   2.324   6.565  0.00  0.00    +0.000 C 
ATOM     26  N   UNL     1      47.305   3.020   5.394  0.00  0.00    +0.000 N 
ATOM     27  O   UNL     1      48.136   1.386   6.695  0.00  0.00    +0.000 OA
ATOM     28  H   UNL     1      46.518   3.605   5.151  0.00  0.00    +0.000 HD
ATOM     29  H   UNL     1      47.855   2.637   4.634  0.00  0.00    +0.000 HD
ENDBRANCH  22  25
ENDBRANCH  17  19
ENDBRANCH  16  17
ENDBRANCH   1  16
TORSDOF 6
ENDMDL
MODEL 4
REMARK VINA RESULT:    -7.245      3.158      5.734
REMARK INTER + INTRA:         -10.742
REMARK INTER:                  -9.899
REMARK INTRA:                  -0.843
REMARK UNBOUND:                -0.955
REMARK  Name = 
REMARK  7 active torsions:
REMARK  status: ('A' for Active; 'I' for Inactive)
REMARK    1  A    between atoms: C_1  and  C_2
REMARK    2  A    between atoms: C_5  and  N_6
REMARK    3  A    between atoms: C_13  and  C_14
REMARK    4  A    between atoms: C_14  and  C_15
REMARK    5  A    between atoms: C_15  and  N_16
REMARK    6  A    between atoms: N_16  and  C_17
REMARK    7  A    between atoms: C_20  and  C_21
REMARK                            x       y       z     vdW  Elec       q    Type
REMARK                         _______ _______ _______ _____ _____    ______ ____
ROOT
ATOM      1  C   UNL     1      44.693   5.905  12.390  0.00  0.00    +0.000 C 
ENDROOT
BRANCH   1   8
ATOM      2  C   UNL     1      47.705   6.082  12.901  0.00  0.00    +0.000 C 
ATOM      3  C   UNL     1      46.869   7.280  12.545  0.00  0.00    +0.000 A 
ATOM      4  C   UNL     1      47.509   8.521  12.415  0.00  0.00    +0.000 A 
ATOM      5  C   UNL     1      46.801   9.667  12.037  0.00  0.00    +0.000 A 
ATOM      6  C   UNL     1      45.431   9.624  11.780  0.00  0.00    +0.000 A 
ATOM      7  C   UNL     1      44.793   8.382  11.943  0.00  0.00    +0.000 A 
ATOM      8  C   UNL     1      45.481   7.206  12.321  0.00  0.00    +0.000 A 
BRANCH   6   9
ATOM      9  N   UNL     1      44.719  10.728  11.343  0.00  0.00    +0.000 N 
ATOM     10  C   UNL     1      43.250  10.770  11.386  0.00  0.00    +0.000 C 
ATOM     11  C   UNL     1      42.637  10.789   9.969  0.00  0.00    +0.000 C 
ATOM     12  N   UNL     1      43.192  11.857   9.109  0.00  0.00    +0.000 NA
ATOM     13  C   UNL     1      44.658  11.678   9.040  0.00  0.00    +0.000 C 
ATOM     14  C   UNL     1      45.361  11.679  10.420  0.00  0.00    +0.000 C 
ATOM     15  H   UNL     1      43.009  12.751   9.566  0.00  0.00    +0.000 HD
ENDBRANCH   6   9
ENDBRANCH   1   8
BRANCH   1  16
ATOM     16  C   UNL     1      43.993   5.610  11.058  0.00  0.00    +0.000 C 
BRANCH  16  17
ATOM     17  N   UNL     1      43.934   4.168  10.754  0.00  0.00    +0.000 N 
ATOM     18  H   UNL     1      42.983   3.845  10.592  0.00  0.00    +0.000 HD
BRANCH  17  19
ATOM     19  C   UNL     1      44.800   3.714   9.736  0.00  0.00    +0.000 A 
ATOM     20  C   UNL     1      44.968   2.355   9.438  0.00  0.00    +0.000 A 
ATOM     21  C   UNL     1      45.814   1.926   8.414  0.00  0.00    +0.000 A 
ATOM     22  C   UNL     1      46.484   2.852   7.616  0.00  0.00    +0.000 A 
ATOM     23  C   UNL     1      46.286   4.217   7.849  0.00  0.00    +0.000 A 
ATOM     24  C   UNL     1      45.437   4.638   8.891  0.00  0.00    +0.000 A 
BRANCH  22  25
ATOM     25  C   UNL     1      47.386   2.318   6.559  0.00  0.00    +0.000 C 
ATOM     26  N   UNL     1      47.399   2.958   5.355  0.00  0.00    +0.000 N 
ATOM     27  O   UNL     1      48.066   1.316   6.738  0.00  0.00    +0.000 OA
ATOM     28  H   UNL     1      46.675   3.605   5.080  0.00  0.00    +0.000 HD
ATOM     29  H   UNL     1      47.908   2.486   4.617  0.00  0.00    +0.000 HD
ENDBRANCH  22  25
ENDBRANCH  17  19
ENDBRANCH  16  17
ENDBRANCH   1  16
TORSDOF 6
ENDMDL
MODEL 5
REMARK VINA RESULT:    -6.905      1.660      2.373
REMARK INTER + INTRA:         -10.282
REMARK INTER:                 -10.240
REMARK INTRA:                  -0.042
REMARK UNBOUND:                -0.955
REMARK  Name = 
REMARK  7 active torsions:
REMARK  status: ('A' for Active; 'I' for Inactive)
REMARK    1  A    between atoms: C_1  and  C_2
REMARK    2  A    between atoms: C_5  and  N_6
REMARK    3  A    between atoms: C_13  and  C_14
REMARK    4  A    between atoms: C_14  and  C_15
REMARK    5  A    between atoms: C_15  and  N_16
REMARK    6  A    between atoms: N_16  and  C_17
REMARK    7  A    between atoms: C_20  and  C_21
REMARK                            x       y       z     vdW  Elec       q    Type
REMARK                         _______ _______ _______ _____ _____    ______ ____
ROOT
ATOM      1  C   UNL     1      45.344   6.096  10.734  0.00  0.00    +0.000 C 
ENDROOT
BRANCH   1   8
ATOM      2  C   UNL     1      44.364   8.935  11.317  0.00  0.00    +0.000 C 
ATOM      3  C   UNL     1      45.489   8.291  12.078  0.00  0.00    +0.000 A 
ATOM      4  C   UNL     1      46.088   9.018  13.117  0.00  0.00    +0.000 A 
ATOM      5  C   UNL     1      47.105   8.461  13.901  0.00  0.00    +0.000 A 
ATOM      6  C   UNL     1      47.567   7.164  13.677  0.00  0.00    +0.000 A 
ATOM      7  C   UNL     1      46.982   6.456  12.613  0.00  0.00    +0.000 A 
ATOM      8  C   UNL     1      45.951   6.989  11.806  0.00  0.00    +0.000 A 
BRANCH   6   9
ATOM      9  N   UNL     1      48.527   6.566  14.477  0.00  0.00    +0.000 N 
ATOM     10  C   UNL     1      48.181   5.523  15.455  0.00  0.00    +0.000 C 
ATOM     11  C   UNL     1      48.397   6.007  16.905  0.00  0.00    +0.000 C 
ATOM     12  N   UNL     1      49.749   6.555  17.141  0.00  0.00    +0.000 NA
ATOM     13  C   UNL     1      49.973   7.660  16.185  0.00  0.00    +0.000 C 
ATOM     14  C   UNL     1      49.809   7.254  14.700  0.00  0.00    +0.000 C 
ATOM     15  H   UNL     1      50.425   5.819  16.929  0.00  0.00    +0.000 HD
ENDBRANCH   6   9
ENDBRANCH   1   8
BRANCH   1  16
ATOM     16  C   UNL     1      44.161   5.291  11.288  0.00  0.00    +0.000 C 
BRANCH  16  17
ATOM     17  N   UNL     1      43.594   4.358  10.295  0.00  0.00    +0.000 N 
ATOM     18  H   UNL     1      42.850   4.783   9.747  0.00  0.00    +0.000 HD
BRANCH  17  19
ATOM     19  C   UNL     1      44.525   3.704   9.459  0.00  0.00    +0.000 A 
ATOM     20  C   UNL     1      44.735   2.319   9.503  0.00  0.00    +0.000 A 
ATOM     21  C   UNL     1      45.646   1.687   8.654  0.00  0.00    +0.000 A 
ATOM     22  C   UNL     1      46.340   2.418   7.692  0.00  0.00    +0.000 A 
ATOM     23  C   UNL     1      46.103   3.792   7.583  0.00  0.00    +0.000 A 
ATOM     24  C   UNL     1      45.189   4.421   8.450  0.00  0.00    +0.000 A 
BRANCH  22  25
ATOM     25  C   UNL     1      47.310   1.678   6.839  0.00  0.00    +0.000 C 
ATOM     26  N   UNL     1      48.365   2.373   6.329  0.00  0.00    +0.000 N 
ATOM     27  O   UNL     1      47.154   0.495   6.564  0.00  0.00    +0.000 OA
ATOM     28  H   UNL     1      48.386   3.383   6.307  0.00  0.00    +0.000 HD
ATOM     29  H   UNL     1      48.920   1.880   5.639  0.00  0.00    +0.000 HD
ENDBRANCH  22  25
ENDBRANCH  17  19
ENDBRANCH  16  17
ENDBRANCH   1  16
TORSDOF 6
ENDMDL
MODEL 6
REMARK VINA RESULT:    -6.888      3.620      7.903
REMARK INTER + INTRA:         -10.259
REMARK INTER:                  -9.421
REMARK INTRA:                  -0.838
REMARK UNBOUND:                -0.955
REMARK  Name = 
REMARK  7 active torsions:
REMARK  status: ('A' for Active; 'I' for Inactive)
REMARK    1  A    between atoms: C_1  and  C_2
REMARK    2  A    between atoms: C_5  and  N_6
REMARK    3  A    between atoms: C_13  and  C_14
REMARK    4  A    between atoms: C_14  and  C_15
REMARK    5  A    between atoms: C_15  and  N_16
REMARK    6  A    between atoms: N_16  and  C_17
REMARK    7  A    between atoms: C_20  and  C_21
REMARK                            x       y       z     vdW  Elec       q    Type
REMARK                         _______ _______ _______ _____ _____    ______ ____
ROOT
ATOM      1  C   UNL     1      49.147   6.466  14.841  0.00  0.00    +0.000 C 
ENDROOT
BRANCH   1   8
ATOM      2  C   UNL     1      49.285   8.534  12.591  0.00  0.00    +0.000 C 
ATOM      3  C   UNL     1      48.139   7.573  12.742  0.00  0.00    +0.000 A 
ATOM      4  C   UNL     1      47.110   7.613  11.791  0.00  0.00    +0.000 A 
ATOM      5  C   UNL     1      46.039   6.713  11.842  0.00  0.00    +0.000 A 
ATOM      6  C   UNL     1      45.949   5.745  12.842  0.00  0.00    +0.000 A 
ATOM      7  C   UNL     1      46.970   5.734  13.809  0.00  0.00    +0.000 A 
ATOM      8  C   UNL     1      48.066   6.627  13.783  0.00  0.00    +0.000 A 
BRANCH   6   9
ATOM      9  N   UNL     1      44.935   4.803  12.879  0.00  0.00    +0.000 N 
ATOM     10  C   UNL     1      45.123   3.441  12.357  0.00  0.00    +0.000 C 
ATOM     11  C   UNL     1      44.254   3.183  11.107  0.00  0.00    +0.000 C 
ATOM     12  N   UNL     1      42.825   3.499  11.317  0.00  0.00    +0.000 NA
ATOM     13  C   UNL     1      42.722   4.912  11.740  0.00  0.00    +0.000 C 
ATOM     14  C   UNL     1      43.540   5.252  13.011  0.00  0.00    +0.000 C 
ATOM     15  H   UNL     1      42.487   2.918  12.085  0.00  0.00    +0.000 HD
ENDBRANCH   6   9
ENDBRANCH   1   8
BRANCH   1  16
ATOM     16  C   UNL     1      48.631   6.874  16.228  0.00  0.00    +0.000 C 
BRANCH  16  17
ATOM     17  N   UNL     1      48.199   5.718  17.036  0.00  0.00    +0.000 N 
ATOM     18  H   UNL     1      47.290   5.363  16.747  0.00  0.00    +0.000 HD
BRANCH  17  19
ATOM     19  C   UNL     1      49.133   4.668  17.163  0.00  0.00    +0.000 A 
ATOM     20  C   UNL     1      50.415   4.858  17.695  0.00  0.00    +0.000 A 
ATOM     21  C   UNL     1      51.319   3.803  17.831  0.00  0.00    +0.000 A 
ATOM     22  C   UNL     1      50.946   2.505  17.485  0.00  0.00    +0.000 A 
ATOM     23  C   UNL     1      49.651   2.274  17.011  0.00  0.00    +0.000 A 
ATOM     24  C   UNL     1      48.751   3.348  16.869  0.00  0.00    +0.000 A 
BRANCH  22  25
ATOM     25  C   UNL     1      51.971   1.436  17.637  0.00  0.00    +0.000 C 
ATOM     26  N   UNL     1      51.562   0.229  18.122  0.00  0.00    +0.000 N 
ATOM     27  O   UNL     1      53.152   1.634  17.379  0.00  0.00    +0.000 OA
ATOM     28  H   UNL     1      50.676   0.109  18.591  0.00  0.00    +0.000 HD
ATOM     29  H   UNL     1      52.304  -0.423  18.350  0.00  0.00    +0.000 HD
ENDBRANCH  22  25
ENDBRANCH  17  19
ENDBRANCH  16  17
ENDBRANCH   1  16
TORSDOF 6
ENDMDL
MODEL 7
REMARK VINA RESULT:    -6.675      2.513      4.049
REMARK INTER + INTRA:          -9.972
REMARK INTER:                 -10.420
REMARK INTRA:                   0.448
REMARK UNBOUND:                -0.955
REMARK  Name = 
REMARK  7 active torsions:
REMARK  status: ('A' for Active; 'I' for Inactive)
REMARK    1  A    between atoms: C_1  and  C_2
REMARK    2  A    between atoms: C_5  and  N_6
REMARK    3  A    between atoms: C_13  and  C_14
REMARK    4  A    between atoms: C_14  and  C_15
REMARK    5  A    between atoms: C_15  and  N_16
REMARK    6  A    between atoms: N_16  and  C_17
REMARK    7  A    between atoms: C_20  and  C_21
REMARK                            x       y       z     vdW  Elec       q    Type
REMARK                         _______ _______ _______ _____ _____    ______ ____
ROOT
ATOM      1  C   UNL     1      45.094   6.572  11.042  0.00  0.00    +0.000 C 
ENDROOT
BRANCH   1   8
ATOM      2  C   UNL     1      45.448   4.171  12.906  0.00  0.00    +0.000 C 
ATOM      3  C   UNL     1      46.321   5.393  12.979  0.00  0.00    +0.000 A 
ATOM      4  C   UNL     1      47.357   5.413  13.924  0.00  0.00    +0.000 A 
ATOM      5  C   UNL     1      48.239   6.495  14.013  0.00  0.00    +0.000 A 
ATOM      6  C   UNL     1      48.121   7.600  13.170  0.00  0.00    +0.000 A 
ATOM      7  C   UNL     1      47.060   7.585  12.247  0.00  0.00    +0.000 A 
ATOM      8  C   UNL     1      46.155   6.505  12.131  0.00  0.00    +0.000 A 
BRANCH   6   9
ATOM      9  N   UNL     1      49.017   8.655  13.193  0.00  0.00    +0.000 N 
ATOM     10  C   UNL     1      49.226   9.521  12.023  0.00  0.00    +0.000 C 
ATOM     11  C   UNL     1      50.643   9.351  11.433  0.00  0.00    +0.000 C 
ATOM     12  N   UNL     1      51.715   9.516  12.437  0.00  0.00    +0.000 NA
ATOM     13  C   UNL     1      51.484   8.541  13.524  0.00  0.00    +0.000 C 
ATOM     14  C   UNL     1      50.094   8.663  14.197  0.00  0.00    +0.000 C 
ATOM     15  H   UNL     1      51.628  10.453  12.835  0.00  0.00    +0.000 HD
ENDBRANCH   6   9
ENDBRANCH   1   8
BRANCH   1  16
ATOM     16  C   UNL     1      44.080   5.429  11.184  0.00  0.00    +0.000 C 
BRANCH  16  17
ATOM     17  N   UNL     1      43.655   4.881   9.882  0.00  0.00    +0.000 N 
ATOM     18  H   UNL     1      43.314   5.604   9.252  0.00  0.00    +0.000 HD
BRANCH  17  19
ATOM     19  C   UNL     1      44.585   4.043   9.230  0.00  0.00    +0.000 A 
ATOM     20  C   UNL     1      44.572   2.649   9.371  0.00  0.00    +0.000 A 
ATOM     21  C   UNL     1      45.488   1.834   8.702  0.00  0.00    +0.000 A 
ATOM     22  C   UNL     1      46.417   2.389   7.824  0.00  0.00    +0.000 A 
ATOM     23  C   UNL     1      46.412   3.771   7.615  0.00  0.00    +0.000 A 
ATOM     24  C   UNL     1      45.489   4.584   8.302  0.00  0.00    +0.000 A 
BRANCH  22  25
ATOM     25  C   UNL     1      47.375   1.459   7.165  0.00  0.00    +0.000 C 
ATOM     26  N   UNL     1      48.425   2.004   6.489  0.00  0.00    +0.000 N 
ATOM     27  O   UNL     1      47.213   0.245   7.187  0.00  0.00    +0.000 OA
ATOM     28  H   UNL     1      48.447   2.978   6.222  0.00  0.00    +0.000 HD
ATOM     29  H   UNL     1      48.970   1.355   5.933  0.00  0.00    +0.000 HD
ENDBRANCH  22  25
ENDBRANCH  17  19
ENDBRANCH  16  17
ENDBRANCH   1  16
TORSDOF 6
ENDMDL
MODEL 8
REMARK VINA RESULT:    -6.547      3.648      7.499
REMARK INTER + INTRA:          -9.799
REMARK INTER:                  -8.603
REMARK INTRA:                  -1.196
REMARK UNBOUND:                -0.955
REMARK  Name = 
REMARK  7 active torsions:
REMARK  status: ('A' for Active; 'I' for Inactive)
REMARK    1  A    between atoms: C_1  and  C_2
REMARK    2  A    between atoms: C_5  and  N_6
REMARK    3  A    between atoms: C_13  and  C_14
REMARK    4  A    between atoms: C_14  and  C_15
REMARK    5  A    between atoms: C_15  and  N_16
REMARK    6  A    between atoms: N_16  and  C_17
REMARK    7  A    between atoms: C_20  and  C_21
REMARK                            x       y       z     vdW  Elec       q    Type
REMARK                         _______ _______ _______ _____ _____    ______ ____
ROOT
ATOM      1  C   UNL     1      49.079   8.114  11.822  0.00  0.00    +0.000 C 
ENDROOT
BRANCH   1   8
ATOM      2  C   UNL     1      47.622  10.767  12.271  0.00  0.00    +0.000 C 
ATOM      3  C   UNL     1      46.899   9.457  12.127  0.00  0.00    +0.000 A 
ATOM      4  C   UNL     1      45.497   9.463  12.171  0.00  0.00    +0.000 A 
ATOM      5  C   UNL     1      44.759   8.289  11.994  0.00  0.00    +0.000 A 
ATOM      6  C   UNL     1      45.385   7.063  11.770  0.00  0.00    +0.000 A 
ATOM      7  C   UNL     1      46.792   7.061  11.758  0.00  0.00    +0.000 A 
ATOM      8  C   UNL     1      47.565   8.231  11.932  0.00  0.00    +0.000 A 
BRANCH   6   9
ATOM      9  N   UNL     1      44.679   5.897  11.527  0.00  0.00    +0.000 N 
ATOM     10  C   UNL     1      43.256   5.766  11.875  0.00  0.00    +0.000 C 
ATOM     11  C   UNL     1      43.037   4.739  13.007  0.00  0.00    +0.000 C 
ATOM     12  N   UNL     1      43.658   3.426  12.730  0.00  0.00    +0.000 NA
ATOM     13  C   UNL     1      45.102   3.640  12.493  0.00  0.00    +0.000 C 
ATOM     14  C   UNL     1      45.414   4.635  11.348  0.00  0.00    +0.000 C 
ATOM     15  H   UNL     1      43.251   3.064  11.866  0.00  0.00    +0.000 HD
ENDBRANCH   6   9
ENDBRANCH   1   8
BRANCH   1  16
ATOM     16  C   UNL     1      49.643   7.195  12.914  0.00  0.00    +0.000 C 
BRANCH  16  17
ATOM     17  N   UNL     1      49.249   7.618  14.272  0.00  0.00    +0.000 N 
ATOM     18  H   UNL     1      48.579   8.383  14.259  0.00  0.00    +0.000 HD
BRANCH  17  19
ATOM     19  C   UNL     1      48.824   6.590  15.141  0.00  0.00    +0.000 A 
ATOM     20  C   UNL     1      47.795   5.700  14.810  0.00  0.00    +0.000 A 
ATOM     21  C   UNL     1      47.401   4.677  15.675  0.00  0.00    +0.000 A 
ATOM     22  C   UNL     1      48.065   4.480  16.884  0.00  0.00    +0.000 A 
ATOM     23  C   UNL     1      49.138   5.314  17.213  0.00  0.00    +0.000 A 
ATOM     24  C   UNL     1      49.520   6.348  16.337  0.00  0.00    +0.000 A 
BRANCH  22  25
ATOM     25  C   UNL     1      47.574   3.383  17.763  0.00  0.00    +0.000 C 
ATOM     26  N   UNL     1      48.320   3.066  18.859  0.00  0.00    +0.000 N 
ATOM     27  O   UNL     1      46.558   2.752  17.499  0.00  0.00    +0.000 OA
ATOM     28  H   UNL     1      49.278   3.367  18.964  0.00  0.00    +0.000 HD
ATOM     29  H   UNL     1      48.038   2.225  19.349  0.00  0.00    +0.000 HD
ENDBRANCH  22  25
ENDBRANCH  17  19
ENDBRANCH  16  17
ENDBRANCH   1  16
TORSDOF 6
ENDMDL
MODEL 9
REMARK VINA RESULT:    -6.502      4.044      5.817
REMARK INTER + INTRA:          -9.737
REMARK INTER:                  -8.388
REMARK INTRA:                  -1.350
REMARK UNBOUND:                -0.955
REMARK  Name = 
REMARK  7 active torsions:
REMARK  status: ('A' for Active; 'I' for Inactive)
REMARK    1  A    between atoms: C_1  and  C_2
REMARK    2  A    between atoms: C_5  and  N_6
REMARK    3  A    between atoms: C_13  and  C_14
REMARK    4  A    between atoms: C_14  and  C_15
REMARK    5  A    between atoms: C_15  and  N_16
REMARK    6  A    between atoms: N_16  and  C_17
REMARK    7  A    between atoms: C_20  and  C_21
REMARK                            x       y       z     vdW  Elec       q    Type
REMARK                         _______ _______ _______ _____ _____    ______ ____
ROOT
ATOM      1  C   UNL     1      49.234   8.449  15.034  0.00  0.00    +0.000 C 
ENDROOT
BRANCH   1   8
ATOM      2  C   UNL     1      48.238  10.143  17.379  0.00  0.00    +0.000 C 
ATOM      3  C   UNL     1      48.348   8.646  17.447  0.00  0.00    +0.000 A 
ATOM      4  C   UNL     1      47.946   8.004  18.628  0.00  0.00    +0.000 A 
ATOM      5  C   UNL     1      47.973   6.610  18.742  0.00  0.00    +0.000 A 
ATOM      6  C   UNL     1      48.404   5.802  17.690  0.00  0.00    +0.000 A 
ATOM      7  C   UNL     1      48.834   6.457  16.522  0.00  0.00    +0.000 A 
ATOM      8  C   UNL     1      48.816   7.863  16.375  0.00  0.00    +0.000 A 
BRANCH   6   9
ATOM      9  N   UNL     1      48.381   4.419  17.752  0.00  0.00    +0.000 N 
ATOM     10  C   UNL     1      49.539   3.644  18.220  0.00  0.00    +0.000 C 
ATOM     11  C   UNL     1      50.160   2.803  17.084  0.00  0.00    +0.000 C 
ATOM     12  N   UNL     1      49.175   1.951  16.385  0.00  0.00    +0.000 NA
ATOM     13  C   UNL     1      48.100   2.821  15.862  0.00  0.00    +0.000 C 
ATOM     14  C   UNL     1      47.398   3.679  16.943  0.00  0.00    +0.000 C 
ATOM     15  H   UNL     1      48.759   1.325  17.076  0.00  0.00    +0.000 HD
ENDBRANCH   6   9
ENDBRANCH   1   8
BRANCH   1  16
ATOM     16  C   UNL     1      49.564   7.342  14.024  0.00  0.00    +0.000 C 
BRANCH  16  17
ATOM     17  N   UNL     1      48.750   7.432  12.797  0.00  0.00    +0.000 N 
ATOM     18  H   UNL     1      49.275   7.172  11.965  0.00  0.00    +0.000 HD
BRANCH  17  19
ATOM     19  C   UNL     1      47.503   6.771  12.832  0.00  0.00    +0.000 A 
ATOM     20  C   UNL     1      47.347   5.481  13.358  0.00  0.00    +0.000 A 
ATOM     21  C   UNL     1      46.102   4.851  13.402  0.00  0.00    +0.000 A 
ATOM     22  C   UNL     1      44.958   5.516  12.966  0.00  0.00    +0.000 A 
ATOM     23  C   UNL     1      45.073   6.828  12.495  0.00  0.00    +0.000 A 
ATOM     24  C   UNL     1      46.336   7.450  12.447  0.00  0.00    +0.000 A 
BRANCH  22  25
ATOM     25  C   UNL     1      43.670   4.771  13.024  0.00  0.00    +0.000 C 
ATOM     26  N   UNL     1      42.518   5.484  12.877  0.00  0.00    +0.000 N 
ATOM     27  O   UNL     1      43.632   3.565  13.236  0.00  0.00    +0.000 OA
ATOM     28  H   UNL     1      42.491   6.489  12.970  0.00  0.00    +0.000 HD
ATOM     29  H   UNL     1      41.663   4.974  13.067  0.00  0.00    +0.000 HD
ENDBRANCH  22  25
ENDBRANCH  17  19
ENDBRANCH  16  17
ENDBRANCH   1  16
TORSDOF 6
ENDMDL
