MODEL 1
REMARK VINA RESULT:    -8.479      0.000      0.000
REMARK INTER + INTRA:         -14.012
REMARK INTER:                 -12.693
REMARK INTRA:                  -1.319
REMARK UNBOUND:                -1.319
REMARK  Name = 
REMARK  9 active torsions:
REMARK  status: ('A' for Active; 'I' for Inactive)
REMARK    1  A    between atoms: N_1  and  C_2
REMARK    2  A    between atoms: C_2  and  C_3
REMARK    3  A    between atoms: C_3  and  C_4
REMARK    4  A    between atoms: C_3  and  N_11
REMARK    5  A    between atoms: C_4  and  C_5
REMARK    6  A    between atoms: N_11  and  C_12
REMARK    7  A    between atoms: C_15  and  C_16
REMARK    8  A    between atoms: C_16  and  N_17
REMARK    9  A    between atoms: C_18  and  C_20
REMARK                            x       y       z     vdW  Elec       q    Type
REMARK                         _______ _______ _______ _____ _____    ______ ____
ROOT
ATOM      1  C   UNL     1      45.015   6.237  11.137  0.00  0.00    +0.000 A 
ATOM      2  C   UNL     1      44.570   7.448  11.673  0.00  0.00    +0.000 A 
ATOM      3  C   UNL     1      45.386   8.213  12.516  0.00  0.00    +0.000 A 
ATOM      4  C   UNL     1      46.659   7.762  12.881  0.00  0.00    +0.000 A 
ATOM      5  C   UNL     1      47.075   6.507  12.428  0.00  0.00    +0.000 A 
ATOM      6  C   UNL     1      46.257   5.755  11.575  0.00  0.00    +0.000 A 
ENDROOT
BRANCH   1   7
ATOM      7  N   UNL     1      44.235   5.426  10.302  0.00  0.00    +0.000 N 
ATOM      8  H   UNL     1      43.242   5.562  10.503  0.00  0.00    +0.000 HD
BRANCH   7   9
ATOM      9  C   UNL     1      44.536   3.979  10.171  0.00  0.00    +0.000 C 
BRANCH   9  10
ATOM     10  C   UNL     1      43.591   3.192  11.128  0.00  0.00    +0.000 C 
BRANCH  10  11
ATOM     11  N   UNL     1      44.305   2.680  12.311  0.00  0.00    +0.000 NA
ATOM     12  H   UNL     1      43.674   2.093  12.857  0.00  0.00    +0.000 HD
ATOM     13  H   UNL     1      45.067   2.068  12.008  0.00  0.00    +0.000 HD
ENDBRANCH  10  11
ENDBRANCH   9  10
BRANCH   9  14
ATOM     14  C   UNL     1      44.360   3.556   8.695  0.00  0.00    +0.000 C 
BRANCH  14  15
ATOM     15  C   UNL     1      45.539   2.891   8.011  0.00  0.00    +0.000 A 
ATOM     16  C   UNL     1      45.844   1.555   8.324  0.00  0.00    +0.000 A 
ATOM     17  C   UNL     1      46.907   0.894   7.704  0.00  0.00    +0.000 A 
ATOM     18  C   UNL     1      47.676   1.555   6.751  0.00  0.00    +0.000 A 
ATOM     19  C   UNL     1      47.369   2.870   6.405  0.00  0.00    +0.000 A 
ATOM     20  C   UNL     1      46.301   3.530   7.022  0.00  0.00    +0.000 A 
ENDBRANCH  14  15
ENDBRANCH   9  14
ENDBRANCH   7   9
ENDBRANCH   1   7
BRANCH   4  21
ATOM     21  C   UNL     1      47.536   8.586  13.784  0.00  0.00    +0.000 C 
BRANCH  21  22
ATOM     22  N   UNL     1      47.899   7.860  14.976  0.00  0.00    +0.000 N 
ATOM     23  C   UNL     1      49.143   7.297  15.100  0.00  0.00    +0.000 C 
ATOM     24  O   UNL     1      50.002   7.427  14.230  0.00  0.00    +0.000 OA
ATOM     25  H   UNL     1      47.148   7.572  15.596  0.00  0.00    +0.000 HD
BRANCH  23  26
ATOM     26  C   UNL     1      49.428   6.576  16.346  0.00  0.00    +0.000 A 
ATOM     27  C   UNL     1      50.427   7.044  17.190  0.00  0.00    +0.000 A 
ATOM     28  S   UNL     1      50.621   6.115  18.606  0.00  0.00    +0.000 S 
ATOM     29  C   UNL     1      49.408   5.025  18.121  0.00  0.00    +0.000 A 
ATOM     30  N   UNL     1      49.094   3.946  18.888  0.00  0.00    +0.000 NA
ATOM     31  C   UNL     1      48.178   3.186  18.387  0.00  0.00    +0.000 A 
ATOM     32  N   UNL     1      47.542   3.412  17.196  0.00  0.00    +0.000 N 
ATOM     33  C   UNL     1      47.805   4.503  16.404  0.00  0.00    +0.000 A 
ATOM     34  O   UNL     1      47.189   4.707  15.362  0.00  0.00    +0.000 OA
ATOM     35  C   UNL     1      48.843   5.381  16.908  0.00  0.00    +0.000 A 
ATOM     36  H   UNL     1      46.823   2.784  16.864  0.00  0.00    +0.000 HD
ENDBRANCH  23  26
ENDBRANCH  21  22
ENDBRANCH   4  21
TORSDOF 9
ENDMDL
MODEL 2
REMARK VINA RESULT:    -8.022      2.336      3.073
REMARK INTER + INTRA:         -13.327
REMARK INTER:                 -12.268
REMARK INTRA:                  -1.059
REMARK UNBOUND:                -1.319
REMARK  Name = 
REMARK  9 active torsions:
REMARK  status: ('A' for Active; 'I' for Inactive)
REMARK    1  A    between atoms: N_1  and  C_2
REMARK    2  A    between atoms: C_2  and  C_3
REMARK    3  A    between atoms: C_3  and  C_4
REMARK    4  A    between atoms: C_3  and  N_11
REMARK    5  A    between atoms: C_4  and  C_5
REMARK    6  A    between atoms: N_11  and  C_12
REMARK    7  A    between atoms: C_15  and  C_16
REMARK    8  A    between atoms: C_16  and  N_17
REMARK    9  A    between atoms: C_18  and  C_20
REMARK                            x       y       z     vdW  Elec       q    Type
REMARK                         _______ _______ _______ _____ _____    ______ ____
ROOT
ATOM      1  C   UNL     1      45.710   5.521  11.794  0.00  0.00    +0.000 A 
ATOM      2  C   UNL     1      46.579   6.545  11.413  0.00  0.00    +0.000 A 
ATOM      3  C   UNL     1      47.619   6.966  12.252  0.00  0.00    +0.000 A 
ATOM      4  C   UNL     1      47.789   6.399  13.519  0.00  0.00    +0.000 A 
ATOM      5  C   UNL     1      46.867   5.442  13.948  0.00  0.00    +0.000 A 
ATOM      6  C   UNL     1      45.838   5.018  13.098  0.00  0.00    +0.000 A 
ENDROOT
BRANCH   1   7
ATOM      7  N   UNL     1      44.646   5.072  11.002  0.00  0.00    +0.000 N 
ATOM      8  H   UNL     1      43.753   5.299  11.446  0.00  0.00    +0.000 HD
BRANCH   7   9
ATOM      9  C   UNL     1      44.626   3.676  10.498  0.00  0.00    +0.000 C 
BRANCH   9  10
ATOM     10  C   UNL     1      43.428   2.932  11.159  0.00  0.00    +0.000 C 
BRANCH  10  11
ATOM     11  N   UNL     1      43.796   2.332  12.454  0.00  0.00    +0.000 NA
ATOM     12  H   UNL     1      44.725   1.917  12.380  0.00  0.00    +0.000 HD
ATOM     13  H   UNL     1      43.873   3.069  13.158  0.00  0.00    +0.000 HD
ENDBRANCH  10  11
ENDBRANCH   9  10
BRANCH   9  14
ATOM     14  C   UNL     1      44.525   3.695   8.955  0.00  0.00    +0.000 C 
BRANCH  14  15
ATOM     15  C   UNL     1      45.557   2.904   8.175  0.00  0.00    +0.000 A 
ATOM     16  C   UNL     1      46.322   3.562   7.197  0.00  0.00    +0.000 A 
ATOM     17  C   UNL     1      47.299   2.879   6.468  0.00  0.00    +0.000 A 
ATOM     18  C   UNL     1      47.536   1.530   6.715  0.00  0.00    +0.000 A 
ATOM     19  C   UNL     1      46.809   0.870   7.704  0.00  0.00    +0.000 A 
ATOM     20  C   UNL     1      45.835   1.555   8.437  0.00  0.00    +0.000 A 
ENDBRANCH  14  15
ENDBRANCH   9  14
ENDBRANCH   7   9
ENDBRANCH   1   7
BRANCH   4  21
ATOM     21  C   UNL     1      48.909   6.850  14.418  0.00  0.00    +0.000 C 
BRANCH  21  22
ATOM     22  N   UNL     1      48.462   7.012  15.779  0.00  0.00    +0.000 N 
ATOM     23  C   UNL     1      49.052   6.307  16.797  0.00  0.00    +0.000 C 
ATOM     24  O   UNL     1      50.004   5.555  16.597  0.00  0.00    +0.000 OA
ATOM     25  H   UNL     1      47.561   7.457  15.926  0.00  0.00    +0.000 HD
BRANCH  23  26
ATOM     26  C   UNL     1      48.535   6.534  18.152  0.00  0.00    +0.000 A 
ATOM     27  C   UNL     1      48.382   5.454  19.012  0.00  0.00    +0.000 A 
ATOM     28  S   UNL     1      47.794   5.881  20.553  0.00  0.00    +0.000 S 
ATOM     29  C   UNL     1      47.678   7.520  20.114  0.00  0.00    +0.000 A 
ATOM     30  N   UNL     1      47.197   8.443  20.990  0.00  0.00    +0.000 NA
ATOM     31  C   UNL     1      47.133   9.642  20.516  0.00  0.00    +0.000 A 
ATOM     32  N   UNL     1      47.515  10.004  19.252  0.00  0.00    +0.000 N 
ATOM     33  C   UNL     1      48.034   9.112  18.345  0.00  0.00    +0.000 A 
ATOM     34  O   UNL     1      48.411   9.469  17.233  0.00  0.00    +0.000 OA
ATOM     35  C   UNL     1      48.107   7.743  18.817  0.00  0.00    +0.000 A 
ATOM     36  H   UNL     1      47.452  10.964  18.945  0.00  0.00    +0.000 HD
ENDBRANCH  23  26
ENDBRANCH  21  22
ENDBRANCH   4  21
TORSDOF 9
ENDMDL
MODEL 3
REMARK VINA RESULT:    -7.318      1.370      1.849
REMARK INTER + INTRA:         -12.273
REMARK INTER:                 -11.721
REMARK INTRA:                  -0.552
REMARK UNBOUND:                -1.319
REMARK  Name = 
REMARK  9 active torsions:
REMARK  status: ('A' for Active; 'I' for Inactive)
REMARK    1  A    between atoms: N_1  and  C_2
REMARK    2  A    between atoms: C_2  and  C_3
REMARK    3  A    between atoms: C_3  and  C_4
REMARK    4  A    between atoms: C_3  and  N_11
REMARK    5  A    between atoms: C_4  and  C_5
REMARK    6  A    between atoms: N_11  and  C_12
REMARK    7  A    between atoms: C_15  and  C_16
REMARK    8  A    between atoms: C_16  and  N_17
REMARK    9  A    between atoms: C_18  and  C_20
REMARK                            x       y       z     vdW  Elec       q    Type
REMARK                         _______ _______ _______ _____ _____    ______ ____
ROOT
ATOM      1  C   UNL     1      45.822   4.611  12.048  0.00  0.00    +0.000 A 
ATOM      2  C   UNL     1      46.231   4.573  13.382  0.00  0.00    +0.000 A 
ATOM      3  C   UNL     1      46.932   5.641  13.958  0.00  0.00    +0.000 A 
ATOM      4  C   UNL     1      47.280   6.761  13.197  0.00  0.00    +0.000 A 
ATOM      5  C   UNL     1      46.959   6.767  11.837  0.00  0.00    +0.000 A 
ATOM      6  C   UNL     1      46.247   5.700  11.272  0.00  0.00    +0.000 A 
ENDROOT
BRANCH   1   7
ATOM      7  N   UNL     1      45.133   3.566  11.418  0.00  0.00    +0.000 N 
ATOM      8  H   UNL     1      45.754   3.070  10.775  0.00  0.00    +0.000 HD
BRANCH   7   9
ATOM      9  C   UNL     1      43.822   3.819  10.770  0.00  0.00    +0.000 C 
BRANCH   9  10
ATOM     10  C   UNL     1      43.114   4.983  11.525  0.00  0.00    +0.000 C 
BRANCH  10  11
ATOM     11  N   UNL     1      42.874   6.144  10.649  0.00  0.00    +0.000 NA
ATOM     12  H   UNL     1      43.255   6.982  11.089  0.00  0.00    +0.000 HD
ATOM     13  H   UNL     1      43.393   6.023   9.777  0.00  0.00    +0.000 HD
ENDBRANCH  10  11
ENDBRANCH   9  10
BRANCH   9  14
ATOM     14  C   UNL     1      44.050   4.143   9.275  0.00  0.00    +0.000 C 
BRANCH  14  15
ATOM     15  C   UNL     1      45.171   3.412   8.562  0.00  0.00    +0.000 A 
ATOM     16  C   UNL     1      45.269   2.016   8.698  0.00  0.00    +0.000 A 
ATOM     17  C   UNL     1      46.272   1.298   8.043  0.00  0.00    +0.000 A 
ATOM     18  C   UNL     1      47.187   1.962   7.231  0.00  0.00    +0.000 A 
ATOM     19  C   UNL     1      47.085   3.341   7.060  0.00  0.00    +0.000 A 
ATOM     20  C   UNL     1      46.077   4.060   7.711  0.00  0.00    +0.000 A 
ENDBRANCH  14  15
ENDBRANCH   9  14
ENDBRANCH   7   9
ENDBRANCH   1   7
BRANCH   4  21
ATOM     21  C   UNL     1      48.029   7.909  13.818  0.00  0.00    +0.000 C 
BRANCH  21  22
ATOM     22  N   UNL     1      48.119   7.770  15.249  0.00  0.00    +0.000 N 
ATOM     23  C   UNL     1      49.235   7.227  15.832  0.00  0.00    +0.000 C 
ATOM     24  O   UNL     1      50.210   6.885  15.166  0.00  0.00    +0.000 OA
ATOM     25  H   UNL     1      47.257   7.851  15.782  0.00  0.00    +0.000 HD
BRANCH  23  26
ATOM     26  C   UNL     1      49.241   7.124  17.296  0.00  0.00    +0.000 A 
ATOM     27  C   UNL     1      49.417   8.271  18.059  0.00  0.00    +0.000 A 
ATOM     28  S   UNL     1      49.376   7.991  19.739  0.00  0.00    +0.000 S 
ATOM     29  C   UNL     1      49.168   6.319  19.510  0.00  0.00    +0.000 A 
ATOM     30  N   UNL     1      49.093   5.473  20.573  0.00  0.00    +0.000 NA
ATOM     31  C   UNL     1      48.966   4.229  20.256  0.00  0.00    +0.000 A 
ATOM     32  N   UNL     1      48.898   3.754  18.973  0.00  0.00    +0.000 N 
ATOM     33  C   UNL     1      48.938   4.572  17.871  0.00  0.00    +0.000 A 
ATOM     34  O   UNL     1      48.830   4.125  16.733  0.00  0.00    +0.000 OA
ATOM     35  C   UNL     1      49.103   5.981  18.169  0.00  0.00    +0.000 A 
ATOM     36  H   UNL     1      48.786   2.766  18.791  0.00  0.00    +0.000 HD
ENDBRANCH  23  26
ENDBRANCH  21  22
ENDBRANCH   4  21
TORSDOF 9
ENDMDL
MODEL 4
REMARK VINA RESULT:    -7.220      2.151      2.738
REMARK INTER + INTRA:         -12.127
REMARK INTER:                 -11.453
REMARK INTRA:                  -0.674
REMARK UNBOUND:                -1.319
REMARK  Name = 
REMARK  9 active torsions:
REMARK  status: ('A' for Active; 'I' for Inactive)
REMARK    1  A    between atoms: N_1  and  C_2
REMARK    2  A    between atoms: C_2  and  C_3
REMARK    3  A    between atoms: C_3  and  C_4
REMARK    4  A    between atoms: C_3  and  N_11
REMARK    5  A    between atoms: C_4  and  C_5
REMARK    6  A    between atoms: N_11  and  C_12
REMARK    7  A    between atoms: C_15  and  C_16
REMARK    8  A    between atoms: C_16  and  N_17
REMARK    9  A    between atoms: C_18  and  C_20
REMARK                            x       y       z     vdW  Elec       q    Type
REMARK                         _______ _______ _______ _____ _____    ______ ____
ROOT
ATOM      1  C   UNL     1      45.930   4.279  12.803  0.00  0.00    +0.000 A 
ATOM      2  C   UNL     1      46.549   4.064  14.036  0.00  0.00    +0.000 A 
ATOM      3  C   UNL     1      47.351   5.048  14.628  0.00  0.00    +0.000 A 
ATOM      4  C   UNL     1      47.590   6.262  13.977  0.00  0.00    +0.000 A 
ATOM      5  C   UNL     1      47.055   6.448  12.700  0.00  0.00    +0.000 A 
ATOM      6  C   UNL     1      46.244   5.464  12.121  0.00  0.00    +0.000 A 
ENDROOT
BRANCH   1   7
ATOM      7  N   UNL     1      45.131   3.324  12.159  0.00  0.00    +0.000 N 
ATOM      8  H   UNL     1      45.631   2.924  11.362  0.00  0.00    +0.000 HD
BRANCH   7   9
ATOM      9  C   UNL     1      43.737   3.654  11.775  0.00  0.00    +0.000 C 
BRANCH   9  10
ATOM     10  C   UNL     1      43.181   4.702  12.784  0.00  0.00    +0.000 C 
BRANCH  10  11
ATOM     11  N   UNL     1      42.415   5.766  12.110  0.00  0.00    +0.000 NA
ATOM     12  H   UNL     1      42.176   6.489  12.788  0.00  0.00    +0.000 HD
ATOM     13  H   UNL     1      43.008   6.220  11.412  0.00  0.00    +0.000 HD
ENDBRANCH  10  11
ENDBRANCH   9  10
BRANCH   9  14
ATOM     14  C   UNL     1      43.722   4.176  10.320  0.00  0.00    +0.000 C 
BRANCH  14  15
ATOM     15  C   UNL     1      44.725   3.581   9.350  0.00  0.00    +0.000 A 
ATOM     16  C   UNL     1      44.860   2.184   9.283  0.00  0.00    +0.000 A 
ATOM     17  C   UNL     1      45.756   1.589   8.390  0.00  0.00    +0.000 A 
ATOM     18  C   UNL     1      46.523   2.382   7.542  0.00  0.00    +0.000 A 
ATOM     19  C   UNL     1      46.378   3.768   7.573  0.00  0.00    +0.000 A 
ATOM     20  C   UNL     1      45.478   4.363   8.462  0.00  0.00    +0.000 A 
ENDBRANCH  14  15
ENDBRANCH   9  14
ENDBRANCH   7   9
ENDBRANCH   1   7
BRANCH   4  21
ATOM     21  C   UNL     1      48.449   7.320  14.616  0.00  0.00    +0.000 C 
BRANCH  21  22
ATOM     22  N   UNL     1      49.655   6.758  15.171  0.00  0.00    +0.000 N 
ATOM     23  C   UNL     1      49.861   6.746  16.527  0.00  0.00    +0.000 C 
ATOM     24  O   UNL     1      49.015   7.167  17.314  0.00  0.00    +0.000 OA
ATOM     25  H   UNL     1      50.435   6.605  14.538  0.00  0.00    +0.000 HD
BRANCH  23  26
ATOM     26  C   UNL     1      51.116   6.155  17.006  0.00  0.00    +0.000 A 
ATOM     27  C   UNL     1      52.243   6.957  17.132  0.00  0.00    +0.000 A 
ATOM     28  S   UNL     1      53.612   6.131  17.720  0.00  0.00    +0.000 S 
ATOM     29  C   UNL     1      52.763   4.659  17.785  0.00  0.00    +0.000 A 
ATOM     30  N   UNL     1      53.382   3.514  18.181  0.00  0.00    +0.000 NA
ATOM     31  C   UNL     1      52.630   2.466  18.154  0.00  0.00    +0.000 A 
ATOM     32  N   UNL     1      51.313   2.459  17.777  0.00  0.00    +0.000 N 
ATOM     33  C   UNL     1      50.639   3.595  17.398  0.00  0.00    +0.000 A 
ATOM     34  O   UNL     1      49.447   3.570  17.107  0.00  0.00    +0.000 OA
ATOM     35  C   UNL     1      51.444   4.801  17.389  0.00  0.00    +0.000 A 
ATOM     36  H   UNL     1      50.774   1.605  17.789  0.00  0.00    +0.000 HD
ENDBRANCH  23  26
ENDBRANCH  21  22
ENDBRANCH   4  21
TORSDOF 9
ENDMDL
MODEL 5
REMARK VINA RESULT:    -6.827      3.051      8.343
REMARK INTER + INTRA:         -11.538
REMARK INTER:                  -9.739
REMARK INTRA:                  -1.799
REMARK UNBOUND:                -1.319
REMARK  Name = 
REMARK  9 active torsions:
REMARK  status: ('A' for Active; 'I' for Inactive)
REMARK    1  A    between atoms: N_1  and  C_2
REMARK    2  A    between atoms: C_2  and  C_3
REMARK    3  A    between atoms: C_3  and  C_4
REMARK    4  A    between atoms: C_3  and  N_11
REMARK    5  A    between atoms: C_4  and  C_5
REMARK    6  A    between atoms: N_11  and  C_12
REMARK    7  A    between atoms: C_15  and  C_16
REMARK    8  A    between atoms: C_16  and  N_17
REMARK    9  A    between atoms: C_18  and  C_20
REMARK                            x       y       z     vdW  Elec       q    Type
REMARK                         _______ _______ _______ _____ _____    ______ ____
ROOT
ATOM      1  C   UNL     1      49.305   8.191  16.007  0.00  0.00    +0.000 A 
ATOM      2  C   UNL     1      48.205   8.927  15.564  0.00  0.00    +0.000 A 
ATOM      3  C   UNL     1      47.730   8.805  14.251  0.00  0.00    +0.000 A 
ATOM      4  C   UNL     1      48.374   7.970  13.333  0.00  0.00    +0.000 A 
ATOM      5  C   UNL     1      49.532   7.303  13.739  0.00  0.00    +0.000 A 
ATOM      6  C   UNL     1      49.993   7.421  15.056  0.00  0.00    +0.000 A 
ENDROOT
BRANCH   1   7
ATOM      7  N   UNL     1      49.831   8.285  17.302  0.00  0.00    +0.000 N 
ATOM      8  H   UNL     1      50.499   9.057  17.357  0.00  0.00    +0.000 HD
BRANCH   7   9
ATOM      9  C   UNL     1      50.382   7.083  17.976  0.00  0.00    +0.000 C 
BRANCH   9  10
ATOM     10  C   UNL     1      51.283   7.550  19.158  0.00  0.00    +0.000 C 
BRANCH  10  11
ATOM     11  N   UNL     1      50.951   6.855  20.414  0.00  0.00    +0.000 NA
ATOM     12  H   UNL     1      50.409   7.479  21.011  0.00  0.00    +0.000 HD
ATOM     13  H   UNL     1      50.341   6.060  20.209  0.00  0.00    +0.000 HD
ENDBRANCH  10  11
ENDBRANCH   9  10
BRANCH   9  14
ATOM     14  C   UNL     1      49.214   6.187  18.449  0.00  0.00    +0.000 C 
BRANCH  14  15
ATOM     15  C   UNL     1      49.017   4.861  17.740  0.00  0.00    +0.000 A 
ATOM     16  C   UNL     1      49.946   3.829  17.955  0.00  0.00    +0.000 A 
ATOM     17  C   UNL     1      49.795   2.583  17.340  0.00  0.00    +0.000 A 
ATOM     18  C   UNL     1      48.704   2.345  16.510  0.00  0.00    +0.000 A 
ATOM     19  C   UNL     1      47.755   3.347  16.311  0.00  0.00    +0.000 A 
ATOM     20  C   UNL     1      47.904   4.592  16.930  0.00  0.00    +0.000 A 
ENDBRANCH  14  15
ENDBRANCH   9  14
ENDBRANCH   7   9
ENDBRANCH   1   7
BRANCH   4  21
ATOM     21  C   UNL     1      47.860   7.837  11.924  0.00  0.00    +0.000 C 
BRANCH  21  22
ATOM     22  N   UNL     1      47.118   6.615  11.745  0.00  0.00    +0.000 N 
ATOM     23  C   UNL     1      45.749   6.609  11.821  0.00  0.00    +0.000 C 
ATOM     24  O   UNL     1      45.107   7.643  11.998  0.00  0.00    +0.000 OA
ATOM     25  H   UNL     1      47.633   5.741  11.808  0.00  0.00    +0.000 HD
BRANCH  23  26
ATOM     26  C   UNL     1      45.075   5.320  11.626  0.00  0.00    +0.000 A 
ATOM     27  C   UNL     1      44.381   4.747  12.683  0.00  0.00    +0.000 A 
ATOM     28  S   UNL     1      43.635   3.266  12.293  0.00  0.00    +0.000 S 
ATOM     29  C   UNL     1      44.251   3.312  10.708  0.00  0.00    +0.000 A 
ATOM     30  N   UNL     1      44.006   2.296   9.836  0.00  0.00    +0.000 NA
ATOM     31  C   UNL     1      44.558   2.445   8.679  0.00  0.00    +0.000 A 
ATOM     32  N   UNL     1      45.324   3.519   8.311  0.00  0.00    +0.000 N 
ATOM     33  C   UNL     1      45.572   4.580   9.148  0.00  0.00    +0.000 A 
ATOM     34  O   UNL     1      46.224   5.552   8.779  0.00  0.00    +0.000 OA
ATOM     35  C   UNL     1      44.993   4.455  10.471  0.00  0.00    +0.000 A 
ATOM     36  H   UNL     1      45.719   3.582   7.384  0.00  0.00    +0.000 HD
ENDBRANCH  23  26
ENDBRANCH  21  22
ENDBRANCH   4  21
TORSDOF 9
ENDMDL
MODEL 6
REMARK VINA RESULT:    -6.795      3.545      8.505
REMARK INTER + INTRA:         -11.490
REMARK INTER:                  -9.292
REMARK INTRA:                  -2.198
REMARK UNBOUND:                -1.319
REMARK  Name = 
REMARK  9 active torsions:
REMARK  status: ('A' for Active; 'I' for Inactive)
REMARK    1  A    between atoms: N_1  and  C_2
REMARK    2  A    between atoms: C_2  and  C_3
REMARK    3  A    between atoms: C_3  and  C_4
REMARK    4  A    between atoms: C_3  and  N_11
REMARK    5  A    between atoms: C_4  and  C_5
REMARK    6  A    between atoms: N_11  and  C_12
REMARK    7  A    between atoms: C_15  and  C_16
REMARK    8  A    between atoms: C_16  and  N_17
REMARK    9  A    between atoms: C_18  and  C_20
REMARK                            x       y       z     vdW  Elec       q    Type
REMARK                         _______ _______ _______ _____ _____    ______ ____
ROOT
ATOM      1  C   UNL     1      50.053   7.075  18.520  0.00  0.00    +0.000 A 
ATOM      2  C   UNL     1      50.597   6.558  17.342  0.00  0.00    +0.000 A 
ATOM      3  C   UNL     1      50.123   6.959  16.086  0.00  0.00    +0.000 A 
ATOM      4  C   UNL     1      49.059   7.860  15.978  0.00  0.00    +0.000 A 
ATOM      5  C   UNL     1      48.446   8.309  17.150  0.00  0.00    +0.000 A 
ATOM      6  C   UNL     1      48.934   7.912  18.402  0.00  0.00    +0.000 A 
ENDROOT
BRANCH   1   7
ATOM      7  N   UNL     1      50.478   6.698  19.801  0.00  0.00    +0.000 N 
ATOM      8  H   UNL     1      51.380   7.131  20.016  0.00  0.00    +0.000 HD
BRANCH   7   9
ATOM      9  C   UNL     1      50.493   5.267  20.193  0.00  0.00    +0.000 C 
BRANCH   9  10
ATOM     10  C   UNL     1      51.055   5.159  21.642  0.00  0.00    +0.000 C 
BRANCH  10  11
ATOM     11  N   UNL     1      52.209   4.246  21.720  0.00  0.00    +0.000 NA
ATOM     12  H   UNL     1      52.635   4.321  22.644  0.00  0.00    +0.000 HD
ATOM     13  H   UNL     1      51.883   3.280  21.638  0.00  0.00    +0.000 HD
ENDBRANCH  10  11
ENDBRANCH   9  10
BRANCH   9  14
ATOM     14  C   UNL     1      49.061   4.695  20.076  0.00  0.00    +0.000 C 
BRANCH  14  15
ATOM     15  C   UNL     1      48.632   4.150  18.728  0.00  0.00    +0.000 A 
ATOM     16  C   UNL     1      49.381   3.117  18.140  0.00  0.00    +0.000 A 
ATOM     17  C   UNL     1      49.012   2.569  16.909  0.00  0.00    +0.000 A 
ATOM     18  C   UNL     1      47.879   3.038  16.251  0.00  0.00    +0.000 A 
ATOM     19  C   UNL     1      47.106   4.041  16.834  0.00  0.00    +0.000 A 
ATOM     20  C   UNL     1      47.472   4.585  18.069  0.00  0.00    +0.000 A 
ENDBRANCH  14  15
ENDBRANCH   9  14
ENDBRANCH   7   9
ENDBRANCH   1   7
BRANCH   4  21
ATOM     21  C   UNL     1      48.553   8.293  14.628  0.00  0.00    +0.000 C 
BRANCH  21  22
ATOM     22  N   UNL     1      47.476   7.451  14.172  0.00  0.00    +0.000 N 
ATOM     23  C   UNL     1      47.714   6.423  13.296  0.00  0.00    +0.000 C 
ATOM     24  O   UNL     1      48.849   6.154  12.907  0.00  0.00    +0.000 OA
ATOM     25  H   UNL     1      46.528   7.786  14.315  0.00  0.00    +0.000 HD
BRANCH  23  26
ATOM     26  C   UNL     1      46.559   5.616  12.884  0.00  0.00    +0.000 A 
ATOM     27  C   UNL     1      46.602   4.237  13.038  0.00  0.00    +0.000 A 
ATOM     28  S   UNL     1      45.179   3.445  12.537  0.00  0.00    +0.000 S 
ATOM     29  C   UNL     1      44.469   4.913  12.052  0.00  0.00    +0.000 A 
ATOM     30  N   UNL     1      43.231   4.935  11.489  0.00  0.00    +0.000 NA
ATOM     31  C   UNL     1      42.827   6.110  11.139  0.00  0.00    +0.000 A 
ATOM     32  N   UNL     1      43.542   7.265  11.311  0.00  0.00    +0.000 N 
ATOM     33  C   UNL     1      44.782   7.294  11.902  0.00  0.00    +0.000 A 
ATOM     34  O   UNL     1      45.384   8.347  12.085  0.00  0.00    +0.000 OA
ATOM     35  C   UNL     1      45.296   5.996  12.294  0.00  0.00    +0.000 A 
ATOM     36  H   UNL     1      43.164   8.157  11.027  0.00  0.00    +0.000 HD
ENDBRANCH  23  26
ENDBRANCH  21  22
ENDBRANCH   4  21
TORSDOF 9
ENDMDL
MODEL 7
REMARK VINA RESULT:    -6.709      2.461      2.927
REMARK INTER + INTRA:         -11.362
REMARK INTER:                 -11.271
REMARK INTRA:                  -0.091
REMARK UNBOUND:                -1.319
REMARK  Name = 
REMARK  9 active torsions:
REMARK  status: ('A' for Active; 'I' for Inactive)
REMARK    1  A    between atoms: N_1  and  C_2
REMARK    2  A    between atoms: C_2  and  C_3
REMARK    3  A    between atoms: C_3  and  C_4
REMARK    4  A    between atoms: C_3  and  N_11
REMARK    5  A    between atoms: C_4  and  C_5
REMARK    6  A    between atoms: N_11  and  C_12
REMARK    7  A    between atoms: C_15  and  C_16
REMARK    8  A    between atoms: C_16  and  N_17
REMARK    9  A    between atoms: C_18  and  C_20
REMARK                            x       y       z     vdW  Elec       q    Type
REMARK                         _______ _______ _______ _____ _____    ______ ____
ROOT
ATOM      1  C   UNL     1      45.714   4.609  12.135  0.00  0.00    +0.000 A 
ATOM      2  C   UNL     1      46.145   5.825  11.601  0.00  0.00    +0.000 A 
ATOM      3  C   UNL     1      47.097   6.612  12.262  0.00  0.00    +0.000 A 
ATOM      4  C   UNL     1      47.612   6.221  13.502  0.00  0.00    +0.000 A 
ATOM      5  C   UNL     1      47.116   5.054  14.089  0.00  0.00    +0.000 A 
ATOM      6  C   UNL     1      46.174   4.267  13.415  0.00  0.00    +0.000 A 
ENDROOT
BRANCH   1   7
ATOM      7  N   UNL     1      44.756   3.790  11.523  0.00  0.00    +0.000 N 
ATOM      8  H   UNL     1      45.202   2.964  11.119  0.00  0.00    +0.000 HD
BRANCH   7   9
ATOM      9  C   UNL     1      43.783   4.366  10.562  0.00  0.00    +0.000 C 
BRANCH   9  10
ATOM     10  C   UNL     1      43.150   5.637  11.204  0.00  0.00    +0.000 C 
BRANCH  10  11
ATOM     11  N   UNL     1      41.746   5.418  11.595  0.00  0.00    +0.000 NA
ATOM     12  H   UNL     1      41.171   5.343  10.755  0.00  0.00    +0.000 HD
ATOM     13  H   UNL     1      41.665   4.517  12.073  0.00  0.00    +0.000 HD
ENDBRANCH  10  11
ENDBRANCH   9  10
BRANCH   9  14
ATOM     14  C   UNL     1      44.509   4.681   9.234  0.00  0.00    +0.000 C 
BRANCH  14  15
ATOM     15  C   UNL     1      45.314   3.566   8.594  0.00  0.00    +0.000 A 
ATOM     16  C   UNL     1      46.328   3.897   7.679  0.00  0.00    +0.000 A 
ATOM     17  C   UNL     1      47.109   2.906   7.080  0.00  0.00    +0.000 A 
ATOM     18  C   UNL     1      46.898   1.567   7.396  0.00  0.00    +0.000 A 
ATOM     19  C   UNL     1      45.917   1.223   8.325  0.00  0.00    +0.000 A 
ATOM     20  C   UNL     1      45.139   2.216   8.929  0.00  0.00    +0.000 A 
ENDBRANCH  14  15
ENDBRANCH   9  14
ENDBRANCH   7   9
ENDBRANCH   1   7
BRANCH   4  21
ATOM     21  C   UNL     1      48.636   7.066  14.210  0.00  0.00    +0.000 C 
BRANCH  21  22
ATOM     22  N   UNL     1      48.193   7.441  15.529  0.00  0.00    +0.000 N 
ATOM     23  C   UNL     1      48.766   8.501  16.185  0.00  0.00    +0.000 C 
ATOM     24  O   UNL     1      49.637   9.192  15.660  0.00  0.00    +0.000 OA
ATOM     25  H   UNL     1      47.637   6.766  16.045  0.00  0.00    +0.000 HD
BRANCH  23  26
ATOM     26  C   UNL     1      48.253   8.812  17.524  0.00  0.00    +0.000 A 
ATOM     27  C   UNL     1      47.882  10.117  17.825  0.00  0.00    +0.000 A 
ATOM     28  S   UNL     1      47.285  10.313  19.409  0.00  0.00    +0.000 S 
ATOM     29  C   UNL     1      47.544   8.670  19.768  0.00  0.00    +0.000 A 
ATOM     30  N   UNL     1      47.267   8.175  21.004  0.00  0.00    +0.000 NA
ATOM     31  C   UNL     1      47.539   6.922  21.148  0.00  0.00    +0.000 A 
ATOM     32  N   UNL     1      48.053   6.117  20.167  0.00  0.00    +0.000 N 
ATOM     33  C   UNL     1      48.319   6.566  18.897  0.00  0.00    +0.000 A 
ATOM     34  O   UNL     1      48.738   5.813  18.022  0.00  0.00    +0.000 OA
ATOM     35  C   UNL     1      48.053   7.975  18.685  0.00  0.00    +0.000 A 
ATOM     36  H   UNL     1      48.233   5.138  20.340  0.00  0.00    +0.000 HD
ENDBRANCH  23  26
ENDBRANCH  21  22
ENDBRANCH   4  21
TORSDOF 9
ENDMDL
MODEL 8
REMARK VINA RESULT:    -6.658      3.525      9.503
REMARK INTER + INTRA:         -11.285
REMARK INTER:                  -9.824
REMARK INTRA:                  -1.461
REMARK UNBOUND:                -1.319
REMARK  Name = 
REMARK  9 active torsions:
REMARK  status: ('A' for Active; 'I' for Inactive)
REMARK    1  A    between atoms: N_1  and  C_2
REMARK    2  A    between atoms: C_2  and  C_3
REMARK    3  A    between atoms: C_3  and  C_4
REMARK    4  A    between atoms: C_3  and  N_11
REMARK    5  A    between atoms: C_4  and  C_5
REMARK    6  A    between atoms: N_11  and  C_12
REMARK    7  A    between atoms: C_15  and  C_16
REMARK    8  A    between atoms: C_16  and  N_17
REMARK    9  A    between atoms: C_18  and  C_20
REMARK                            x       y       z     vdW  Elec       q    Type
REMARK                         _______ _______ _______ _____ _____    ______ ____
ROOT
ATOM      1  C   UNL     1      49.154   5.747  17.368  0.00  0.00    +0.000 A 
ATOM      2  C   UNL     1      48.208   5.127  16.549  0.00  0.00    +0.000 A 
ATOM      3  C   UNL     1      47.942   5.602  15.258  0.00  0.00    +0.000 A 
ATOM      4  C   UNL     1      48.589   6.740  14.767  0.00  0.00    +0.000 A 
ATOM      5  C   UNL     1      49.466   7.423  15.614  0.00  0.00    +0.000 A 
ATOM      6  C   UNL     1      49.735   6.935  16.899  0.00  0.00    +0.000 A 
ENDROOT
BRANCH   1   7
ATOM      7  N   UNL     1      49.448   5.324  18.671  0.00  0.00    +0.000 N 
ATOM      8  H   UNL     1      49.643   4.320  18.681  0.00  0.00    +0.000 HD
BRANCH   7   9
ATOM      9  C   UNL     1      48.546   5.679  19.794  0.00  0.00    +0.000 C 
BRANCH   9  10
ATOM     10  C   UNL     1      48.526   4.494  20.804  0.00  0.00    +0.000 C 
BRANCH  10  11
ATOM     11  N   UNL     1      48.352   3.195  20.129  0.00  0.00    +0.000 NA
ATOM     12  H   UNL     1      49.223   2.667  20.187  0.00  0.00    +0.000 HD
ATOM     13  H   UNL     1      47.655   2.643  20.633  0.00  0.00    +0.000 HD
ENDBRANCH  10  11
ENDBRANCH   9  10
BRANCH   9  14
ATOM     14  C   UNL     1      49.037   6.994  20.443  0.00  0.00    +0.000 C 
BRANCH  14  15
ATOM     15  C   UNL     1      48.063   8.155  20.499  0.00  0.00    +0.000 A 
ATOM     16  C   UNL     1      47.439   8.462  21.720  0.00  0.00    +0.000 A 
ATOM     17  C   UNL     1      46.550   9.535  21.824  0.00  0.00    +0.000 A 
ATOM     18  C   UNL     1      46.282  10.327  20.712  0.00  0.00    +0.000 A 
ATOM     19  C   UNL     1      46.916  10.056  19.501  0.00  0.00    +0.000 A 
ATOM     20  C   UNL     1      47.810   8.986  19.398  0.00  0.00    +0.000 A 
ENDBRANCH  14  15
ENDBRANCH   9  14
ENDBRANCH   7   9
ENDBRANCH   1   7
BRANCH   4  21
ATOM     21  C   UNL     1      48.305   7.247  13.379  0.00  0.00    +0.000 C 
BRANCH  21  22
ATOM     22  N   UNL     1      47.559   6.285  12.607  0.00  0.00    +0.000 N 
ATOM     23  C   UNL     1      46.510   6.683  11.818  0.00  0.00    +0.000 C 
ATOM     24  O   UNL     1      46.199   7.867  11.704  0.00  0.00    +0.000 OA
ATOM     25  H   UNL     1      47.667   5.305  12.850  0.00  0.00    +0.000 HD
BRANCH  23  26
ATOM     26  C   UNL     1      45.806   5.637  11.066  0.00  0.00    +0.000 A 
ATOM     27  C   UNL     1      45.862   5.642   9.678  0.00  0.00    +0.000 A 
ATOM     28  S   UNL     1      45.016   4.353   8.953  0.00  0.00    +0.000 S 
ATOM     29  C   UNL     1      44.505   3.766  10.466  0.00  0.00    +0.000 A 
ATOM     30  N   UNL     1      43.699   2.674  10.553  0.00  0.00    +0.000 NA
ATOM     31  C   UNL     1      43.363   2.356  11.758  0.00  0.00    +0.000 A 
ATOM     32  N   UNL     1      43.767   3.024  12.883  0.00  0.00    +0.000 N 
ATOM     33  C   UNL     1      44.604   4.112  12.845  0.00  0.00    +0.000 A 
ATOM     34  O   UNL     1      44.988   4.666  13.871  0.00  0.00    +0.000 OA
ATOM     35  C   UNL     1      44.996   4.527  11.512  0.00  0.00    +0.000 A 
ATOM     36  H   UNL     1      43.478   2.717  13.801  0.00  0.00    +0.000 HD
ENDBRANCH  23  26
ENDBRANCH  21  22
ENDBRANCH   4  21
TORSDOF 9
ENDMDL
MODEL 9
REMARK VINA RESULT:    -6.431      3.109      4.581
REMARK INTER + INTRA:         -10.946
REMARK INTER:                 -10.195
REMARK INTRA:                  -0.751
REMARK UNBOUND:                -1.319
REMARK  Name = 
REMARK  9 active torsions:
REMARK  status: ('A' for Active; 'I' for Inactive)
REMARK    1  A    between atoms: N_1  and  C_2
REMARK    2  A    between atoms: C_2  and  C_3
REMARK    3  A    between atoms: C_3  and  C_4
REMARK    4  A    between atoms: C_3  and  N_11
REMARK    5  A    between atoms: C_4  and  C_5
REMARK    6  A    between atoms: N_11  and  C_12
REMARK    7  A    between atoms: C_15  and  C_16
REMARK    8  A    between atoms: C_16  and  N_17
REMARK    9  A    between atoms: C_18  and  C_20
REMARK                            x       y       z     vdW  Elec       q    Type
REMARK                         _______ _______ _______ _____ _____    ______ ____
ROOT
ATOM      1  C   UNL     1      45.851   4.723  11.967  0.00  0.00    +0.000 A 
ATOM      2  C   UNL     1      46.065   5.863  11.190  0.00  0.00    +0.000 A 
ATOM      3  C   UNL     1      46.588   7.036  11.751  0.00  0.00    +0.000 A 
ATOM      4  C   UNL     1      46.871   7.111  13.118  0.00  0.00    +0.000 A 
ATOM      5  C   UNL     1      46.570   6.008  13.920  0.00  0.00    +0.000 A 
ATOM      6  C   UNL     1      46.059   4.835  13.350  0.00  0.00    +0.000 A 
ENDROOT
BRANCH   1   7
ATOM      7  N   UNL     1      45.317   3.530  11.462  0.00  0.00    +0.000 N 
ATOM      8  H   UNL     1      46.031   3.016  10.940  0.00  0.00    +0.000 HD
BRANCH   7   9
ATOM      9  C   UNL     1      44.042   3.544  10.703  0.00  0.00    +0.000 C 
BRANCH   9  10
ATOM     10  C   UNL     1      43.054   4.515  11.417  0.00  0.00    +0.000 C 
BRANCH  10  11
ATOM     11  N   UNL     1      42.789   5.722  10.614  0.00  0.00    +0.000 NA
ATOM     12  H   UNL     1      42.454   5.445   9.691  0.00  0.00    +0.000 HD
ATOM     13  H   UNL     1      42.027   6.252  11.042  0.00  0.00    +0.000 HD
ENDBRANCH  10  11
ENDBRANCH   9  10
BRANCH   9  14
ATOM     14  C   UNL     1      44.324   3.965   9.243  0.00  0.00    +0.000 C 
BRANCH  14  15
ATOM     15  C   UNL     1      45.344   3.157   8.465  0.00  0.00    +0.000 A 
ATOM     16  C   UNL     1      46.199   3.819   7.567  0.00  0.00    +0.000 A 
ATOM     17  C   UNL     1      47.167   3.119   6.844  0.00  0.00    +0.000 A 
ATOM     18  C   UNL     1      47.306   1.745   7.016  0.00  0.00    +0.000 A 
ATOM     19  C   UNL     1      46.489   1.076   7.926  0.00  0.00    +0.000 A 
ATOM     20  C   UNL     1      45.523   1.778   8.654  0.00  0.00    +0.000 A 
ENDBRANCH  14  15
ENDBRANCH   9  14
ENDBRANCH   7   9
ENDBRANCH   1   7
BRANCH   4  21
ATOM     21  C   UNL     1      47.437   8.370  13.718  0.00  0.00    +0.000 C 
BRANCH  21  22
ATOM     22  N   UNL     1      48.801   8.586  13.306  0.00  0.00    +0.000 N 
ATOM     23  C   UNL     1      49.843   8.236  14.126  0.00  0.00    +0.000 C 
ATOM     24  O   UNL     1      49.657   7.689  15.211  0.00  0.00    +0.000 OA
ATOM     25  H   UNL     1      48.960   9.215  12.524  0.00  0.00    +0.000 HD
BRANCH  23  26
ATOM     26  C   UNL     1      51.199   8.491  13.627  0.00  0.00    +0.000 A 
ATOM     27  C   UNL     1      52.158   9.006  14.491  0.00  0.00    +0.000 A 
ATOM     28  S   UNL     1      53.686   9.224  13.770  0.00  0.00    +0.000 S 
ATOM     29  C   UNL     1      53.112   8.683  12.263  0.00  0.00    +0.000 A 
ATOM     30  N   UNL     1      53.929   8.655  11.176  0.00  0.00    +0.000 NA
ATOM     31  C   UNL     1      53.358   8.252  10.091  0.00  0.00    +0.000 A 
ATOM     32  N   UNL     1      52.047   7.866   9.996  0.00  0.00    +0.000 N 
ATOM     33  C   UNL     1      51.194   7.849  11.073  0.00  0.00    +0.000 A 
ATOM     34  O   UNL     1      50.036   7.456  10.972  0.00  0.00    +0.000 OA
ATOM     35  C   UNL     1      51.779   8.314  12.316  0.00  0.00    +0.000 A 
ATOM     36  H   UNL     1      51.661   7.549   9.118  0.00  0.00    +0.000 HD
ENDBRANCH  23  26
ENDBRANCH  21  22
ENDBRANCH   4  21
TORSDOF 9
ENDMDL
