MODEL 1
REMARK VINA RESULT:    -8.637      0.000      0.000
REMARK INTER + INTRA:         -11.874
REMARK INTER:                 -11.161
REMARK INTRA:                  -0.713
REMARK UNBOUND:                -0.713
REMARK  Name = 
REMARK  5 active torsions:
REMARK  status: ('A' for Active; 'I' for Inactive)
REMARK    1  A    between atoms: C_2  and  C_18
REMARK    2  A    between atoms: N_3  and  C_4
REMARK    3  A    between atoms: C_4  and  C_5
REMARK    4  A    between atoms: C_8  and  C_9
REMARK    5  A    between atoms: C_9  and  C_10
REMARK                            x       y       z     vdW  Elec       q    Type
REMARK                         _______ _______ _______ _____ _____    ______ ____
ROOT
ATOM      1  O   UNL     1      48.406   7.033  12.611  0.00  0.00    +0.000 OA
ATOM      2  C   UNL     1      47.763   6.829  13.634  0.00  0.00    +0.000 C 
ATOM      3  N   UNL     1      46.395   6.917  13.687  0.00  0.00    +0.000 N 
ATOM      4  H   UNL     1      45.930   6.954  14.588  0.00  0.00    +0.000 HD
ENDROOT
BRANCH   2   5
ATOM      5  C   UNL     1      48.418   6.420  14.878  0.00  0.00    +0.000 A 
ATOM      6  C   UNL     1      49.474   7.161  15.396  0.00  0.00    +0.000 A 
ATOM      7  S   UNL     1      50.077   6.526  16.863  0.00  0.00    +0.000 S 
ATOM      8  C   UNL     1      48.938   5.266  16.858  0.00  0.00    +0.000 A 
ATOM      9  N   UNL     1      48.877   4.354  17.869  0.00  0.00    +0.000 NA
ATOM     10  C   UNL     1      47.942   3.479  17.740  0.00  0.00    +0.000 A 
ATOM     11  N   UNL     1      47.064   3.414  16.692  0.00  0.00    +0.000 N 
ATOM     12  C   UNL     1      47.133   4.258  15.617  0.00  0.00    +0.000 A 
ATOM     13  O   UNL     1      46.429   4.074  14.630  0.00  0.00    +0.000 OA
ATOM     14  C   UNL     1      48.127   5.303  15.733  0.00  0.00    +0.000 A 
ATOM     15  H   UNL     1      46.378   2.674  16.623  0.00  0.00    +0.000 HD
ENDBRANCH   2   5
BRANCH   3  16
ATOM     16  C   UNL     1      45.600   7.301  12.553  0.00  0.00    +0.000 C 
BRANCH  16  17
ATOM     17  C   UNL     1      45.294   6.142  11.642  0.00  0.00    +0.000 A 
ATOM     18  C   UNL     1      45.819   6.132  10.345  0.00  0.00    +0.000 A 
ATOM     19  C   UNL     1      45.611   5.041   9.496  0.00  0.00    +0.000 A 
ATOM     20  C   UNL     1      44.864   3.937   9.924  0.00  0.00    +0.000 A 
ATOM     21  C   UNL     1      44.312   3.961  11.214  0.00  0.00    +0.000 A 
ATOM     22  C   UNL     1      44.515   5.056  12.061  0.00  0.00    +0.000 A 
BRANCH  20  23
ATOM     23  C   UNL     1      44.638   2.753   9.017  0.00  0.00    +0.000 C 
BRANCH  23  24
ATOM     24  C   UNL     1      45.720   2.488   8.002  0.00  0.00    +0.000 A 
ATOM     25  C   UNL     1      45.954   3.363   6.937  0.00  0.00    +0.000 A 
ATOM     26  C   UNL     1      46.876   3.021   5.949  0.00  0.00    +0.000 A 
ATOM     27  C   UNL     1      47.555   1.821   6.072  0.00  0.00    +0.000 A 
ATOM     28  N   UNL     1      47.390   0.970   7.105  0.00  0.00    +0.000 NA
ATOM     29  C   UNL     1      46.481   1.324   8.044  0.00  0.00    +0.000 A 
ENDBRANCH  23  24
ENDBRANCH  20  23
ENDBRANCH  16  17
ENDBRANCH   3  16
TORSDOF 5
ENDMDL
MODEL 2
REMARK VINA RESULT:    -8.540      0.564      1.052
REMARK INTER + INTRA:         -11.749
REMARK INTER:                 -10.871
REMARK INTRA:                  -0.879
REMARK UNBOUND:                -0.713
REMARK  Name = 
REMARK  5 active torsions:
REMARK  status: ('A' for Active; 'I' for Inactive)
REMARK    1  A    between atoms: C_2  and  C_18
REMARK    2  A    between atoms: N_3  and  C_4
REMARK    3  A    between atoms: C_4  and  C_5
REMARK    4  A    between atoms: C_8  and  C_9
REMARK    5  A    between atoms: C_9  and  C_10
REMARK                            x       y       z     vdW  Elec       q    Type
REMARK                         _______ _______ _______ _____ _____    ______ ____
ROOT
ATOM      1  O   UNL     1      48.425   7.697  12.840  0.00  0.00    +0.000 OA
ATOM      2  C   UNL     1      47.778   7.206  13.758  0.00  0.00    +0.000 C 
ATOM      3  N   UNL     1      46.411   7.094  13.732  0.00  0.00    +0.000 N 
ATOM      4  H   UNL     1      45.909   6.886  14.588  0.00  0.00    +0.000 HD
ENDROOT
BRANCH   2   5
ATOM      5  C   UNL     1      48.434   6.649  14.942  0.00  0.00    +0.000 A 
ATOM      6  C   UNL     1      49.490   7.321  15.546  0.00  0.00    +0.000 A 
ATOM      7  S   UNL     1      50.095   6.512  16.924  0.00  0.00    +0.000 S 
ATOM      8  C   UNL     1      48.956   5.262  16.767  0.00  0.00    +0.000 A 
ATOM      9  N   UNL     1      48.897   4.233  17.658  0.00  0.00    +0.000 NA
ATOM     10  C   UNL     1      47.963   3.380  17.424  0.00  0.00    +0.000 A 
ATOM     11  N   UNL     1      47.083   3.443  16.377  0.00  0.00    +0.000 N 
ATOM     12  C   UNL     1      47.151   4.412  15.413  0.00  0.00    +0.000 A 
ATOM     13  O   UNL     1      46.446   4.349  14.411  0.00  0.00    +0.000 OA
ATOM     14  C   UNL     1      48.144   5.436  15.655  0.00  0.00    +0.000 A 
ATOM     15  H   UNL     1      46.398   2.717  16.218  0.00  0.00    +0.000 HD
ENDBRANCH   2   5
BRANCH   3  16
ATOM     16  C   UNL     1      45.615   7.586  12.640  0.00  0.00    +0.000 C 
BRANCH  16  17
ATOM     17  C   UNL     1      45.345   6.531  11.600  0.00  0.00    +0.000 A 
ATOM     18  C   UNL     1      44.199   5.735  11.713  0.00  0.00    +0.000 A 
ATOM     19  C   UNL     1      43.882   4.792  10.732  0.00  0.00    +0.000 A 
ATOM     20  C   UNL     1      44.711   4.618   9.617  0.00  0.00    +0.000 A 
ATOM     21  C   UNL     1      45.875   5.394   9.519  0.00  0.00    +0.000 A 
ATOM     22  C   UNL     1      46.197   6.334  10.506  0.00  0.00    +0.000 A 
BRANCH  20  23
ATOM     23  C   UNL     1      44.375   3.606   8.549  0.00  0.00    +0.000 C 
BRANCH  23  24
ATOM     24  C   UNL     1      45.541   2.842   7.978  0.00  0.00    +0.000 A 
ATOM     25  C   UNL     1      46.298   3.346   6.916  0.00  0.00    +0.000 A 
ATOM     26  C   UNL     1      47.287   2.556   6.333  0.00  0.00    +0.000 A 
ATOM     27  C   UNL     1      47.505   1.290   6.850  0.00  0.00    +0.000 A 
ATOM     28  N   UNL     1      46.827   0.783   7.900  0.00  0.00    +0.000 NA
ATOM     29  C   UNL     1      45.867   1.569   8.439  0.00  0.00    +0.000 A 
ENDBRANCH  23  24
ENDBRANCH  20  23
ENDBRANCH  16  17
ENDBRANCH   3  16
TORSDOF 5
ENDMDL
MODEL 3
REMARK VINA RESULT:    -8.125      1.724      2.236
REMARK INTER + INTRA:         -11.212
REMARK INTER:                 -10.430
REMARK INTRA:                  -0.782
REMARK UNBOUND:                -0.713
REMARK  Name = 
REMARK  5 active torsions:
REMARK  status: ('A' for Active; 'I' for Inactive)
REMARK    1  A    between atoms: C_2  and  C_18
REMARK    2  A    between atoms: N_3  and  C_4
REMARK    3  A    between atoms: C_4  and  C_5
REMARK    4  A    between atoms: C_8  and  C_9
REMARK    5  A    between atoms: C_9  and  C_10
REMARK                            x       y       z     vdW  Elec       q    Type
REMARK                         _______ _______ _______ _____ _____    ______ ____
ROOT
ATOM      1  O   UNL     1      48.834   6.171  14.349  0.00  0.00    +0.000 OA
ATOM      2  C   UNL     1      47.851   5.680  14.892  0.00  0.00    +0.000 C 
ATOM      3  N   UNL     1      46.587   5.765  14.365  0.00  0.00    +0.000 N 
ATOM      4  H   UNL     1      45.786   5.540  14.945  0.00  0.00    +0.000 HD
ENDROOT
BRANCH   2   5
ATOM      5  C   UNL     1      47.966   4.914  16.134  0.00  0.00    +0.000 A 
ATOM      6  C   UNL     1      47.682   3.553  16.154  0.00  0.00    +0.000 A 
ATOM      7  S   UNL     1      47.903   2.849  17.693  0.00  0.00    +0.000 S 
ATOM      8  C   UNL     1      48.402   4.325  18.367  0.00  0.00    +0.000 A 
ATOM      9  N   UNL     1      48.778   4.424  19.674  0.00  0.00    +0.000 NA
ATOM     10  C   UNL     1      49.159   5.600  20.030  0.00  0.00    +0.000 A 
ATOM     11  N   UNL     1      49.192   6.698  19.213  0.00  0.00    +0.000 N 
ATOM     12  C   UNL     1      48.753   6.668  17.917  0.00  0.00    +0.000 A 
ATOM     13  O   UNL     1      48.654   7.702  17.265  0.00  0.00    +0.000 OA
ATOM     14  C   UNL     1      48.368   5.357  17.440  0.00  0.00    +0.000 A 
ATOM     15  H   UNL     1      49.459   7.609  19.562  0.00  0.00    +0.000 HD
ENDBRANCH   2   5
BRANCH   3  16
ATOM     16  C   UNL     1      46.302   6.477  13.149  0.00  0.00    +0.000 C 
BRANCH  16  17
ATOM     17  C   UNL     1      45.823   5.570  12.047  0.00  0.00    +0.000 A 
ATOM     18  C   UNL     1      45.844   6.027  10.724  0.00  0.00    +0.000 A 
ATOM     19  C   UNL     1      45.470   5.190   9.670  0.00  0.00    +0.000 A 
ATOM     20  C   UNL     1      45.057   3.875   9.917  0.00  0.00    +0.000 A 
ATOM     21  C   UNL     1      45.007   3.426  11.245  0.00  0.00    +0.000 A 
ATOM     22  C   UNL     1      45.375   4.268  12.302  0.00  0.00    +0.000 A 
BRANCH  20  23
ATOM     23  C   UNL     1      44.656   2.961   8.786  0.00  0.00    +0.000 C 
BRANCH  23  24
ATOM     24  C   UNL     1      45.766   2.540   7.857  0.00  0.00    +0.000 A 
ATOM     25  C   UNL     1      46.148   3.328   6.767  0.00  0.00    +0.000 A 
ATOM     26  C   UNL     1      47.089   2.847   5.860  0.00  0.00    +0.000 A 
ATOM     27  C   UNL     1      47.641   1.598   6.086  0.00  0.00    +0.000 A 
ATOM     28  N   UNL     1      47.333   0.825   7.148  0.00  0.00    +0.000 NA
ATOM     29  C   UNL     1      46.408   1.314   8.007  0.00  0.00    +0.000 A 
ENDBRANCH  23  24
ENDBRANCH  20  23
ENDBRANCH  16  17
ENDBRANCH   3  16
TORSDOF 5
ENDMDL
MODEL 4
REMARK VINA RESULT:    -8.036      1.871      3.340
REMARK INTER + INTRA:         -11.097
REMARK INTER:                 -10.193
REMARK INTRA:                  -0.904
REMARK UNBOUND:                -0.713
REMARK  Name = 
REMARK  5 active torsions:
REMARK  status: ('A' for Active; 'I' for Inactive)
REMARK    1  A    between atoms: C_2  and  C_18
REMARK    2  A    between atoms: N_3  and  C_4
REMARK    3  A    between atoms: C_4  and  C_5
REMARK    4  A    between atoms: C_8  and  C_9
REMARK    5  A    between atoms: C_9  and  C_10
REMARK                            x       y       z     vdW  Elec       q    Type
REMARK                         _______ _______ _______ _____ _____    ______ ____
ROOT
ATOM      1  O   UNL     1      47.056   4.709  14.639  0.00  0.00    +0.000 OA
ATOM      2  C   UNL     1      47.202   5.839  14.186  0.00  0.00    +0.000 C 
ATOM      3  N   UNL     1      46.206   6.513  13.525  0.00  0.00    +0.000 N 
ATOM      4  H   UNL     1      46.435   7.341  12.986  0.00  0.00    +0.000 HD
ENDROOT
BRANCH   2   5
ATOM      5  C   UNL     1      48.453   6.578  14.365  0.00  0.00    +0.000 A 
ATOM      6  C   UNL     1      49.054   6.656  15.616  0.00  0.00    +0.000 A 
ATOM      7  S   UNL     1      50.514   7.543  15.600  0.00  0.00    +0.000 S 
ATOM      8  C   UNL     1      50.397   7.825  13.929  0.00  0.00    +0.000 A 
ATOM      9  N   UNL     1      51.358   8.514  13.252  0.00  0.00    +0.000 NA
ATOM     10  C   UNL     1      51.145   8.620  11.987  0.00  0.00    +0.000 A 
ATOM     11  N   UNL     1      50.057   8.116  11.328  0.00  0.00    +0.000 N 
ATOM     12  C   UNL     1      49.028   7.485  11.974  0.00  0.00    +0.000 A 
ATOM     13  O   UNL     1      48.002   7.184  11.373  0.00  0.00    +0.000 OA
ATOM     14  C   UNL     1      49.239   7.282  13.391  0.00  0.00    +0.000 A 
ATOM     15  H   UNL     1      49.920   8.271  10.338  0.00  0.00    +0.000 HD
ENDBRANCH   2   5
BRANCH   3  16
ATOM     16  C   UNL     1      44.916   5.932  13.271  0.00  0.00    +0.000 C 
BRANCH  16  17
ATOM     17  C   UNL     1      44.926   4.999  12.089  0.00  0.00    +0.000 A 
ATOM     18  C   UNL     1      44.764   3.625  12.299  0.00  0.00    +0.000 A 
ATOM     19  C   UNL     1      44.702   2.737  11.221  0.00  0.00    +0.000 A 
ATOM     20  C   UNL     1      44.809   3.206   9.906  0.00  0.00    +0.000 A 
ATOM     21  C   UNL     1      45.001   4.579   9.696  0.00  0.00    +0.000 A 
ATOM     22  C   UNL     1      45.071   5.467  10.776  0.00  0.00    +0.000 A 
BRANCH  20  23
ATOM     23  C   UNL     1      44.737   2.257   8.735  0.00  0.00    +0.000 C 
BRANCH  23  24
ATOM     24  C   UNL     1      45.903   2.301   7.782  0.00  0.00    +0.000 A 
ATOM     25  C   UNL     1      46.022   3.304   6.815  0.00  0.00    +0.000 A 
ATOM     26  C   UNL     1      47.045   3.239   5.871  0.00  0.00    +0.000 A 
ATOM     27  C   UNL     1      47.936   2.182   5.939  0.00  0.00    +0.000 A 
ATOM     28  N   UNL     1      47.882   1.218   6.882  0.00  0.00    +0.000 NA
ATOM     29  C   UNL     1      46.873   1.302   7.779  0.00  0.00    +0.000 A 
ENDBRANCH  23  24
ENDBRANCH  20  23
ENDBRANCH  16  17
ENDBRANCH   3  16
TORSDOF 5
ENDMDL
MODEL 5
REMARK VINA RESULT:    -7.826      1.803      2.442
REMARK INTER + INTRA:         -10.827
REMARK INTER:                 -10.012
REMARK INTRA:                  -0.815
REMARK UNBOUND:                -0.713
REMARK  Name = 
REMARK  5 active torsions:
REMARK  status: ('A' for Active; 'I' for Inactive)
REMARK    1  A    between atoms: C_2  and  C_18
REMARK    2  A    between atoms: N_3  and  C_4
REMARK    3  A    between atoms: C_4  and  C_5
REMARK    4  A    between atoms: C_8  and  C_9
REMARK    5  A    between atoms: C_9  and  C_10
REMARK                            x       y       z     vdW  Elec       q    Type
REMARK                         _______ _______ _______ _____ _____    ______ ____
ROOT
ATOM      1  O   UNL     1      47.593   4.411  13.835  0.00  0.00    +0.000 OA
ATOM      2  C   UNL     1      47.445   5.626  13.757  0.00  0.00    +0.000 C 
ATOM      3  N   UNL     1      46.226   6.216  13.533  0.00  0.00    +0.000 N 
ATOM      4  H   UNL     1      46.185   7.192  13.261  0.00  0.00    +0.000 HD
ENDROOT
BRANCH   2   5
ATOM      5  C   UNL     1      48.566   6.546  13.949  0.00  0.00    +0.000 A 
ATOM      6  C   UNL     1      49.084   7.263  12.876  0.00  0.00    +0.000 A 
ATOM      7  S   UNL     1      50.370   8.295  13.322  0.00  0.00    +0.000 S 
ATOM      8  C   UNL     1      50.257   7.834  14.953  0.00  0.00    +0.000 A 
ATOM      9  N   UNL     1      51.066   8.376  15.906  0.00  0.00    +0.000 NA
ATOM     10  C   UNL     1      50.841   7.949  17.100  0.00  0.00    +0.000 A 
ATOM     11  N   UNL     1      49.892   7.023  17.439  0.00  0.00    +0.000 N 
ATOM     12  C   UNL     1      49.109   6.394  16.509  0.00  0.00    +0.000 A 
ATOM     13  O   UNL     1      48.380   5.462  16.832  0.00  0.00    +0.000 OA
ATOM     14  C   UNL     1      49.274   6.875  15.155  0.00  0.00    +0.000 A 
ATOM     15  H   UNL     1      49.793   6.692  18.389  0.00  0.00    +0.000 HD
ENDBRANCH   2   5
BRANCH   3  16
ATOM     16  C   UNL     1      45.024   5.454  13.328  0.00  0.00    +0.000 C 
BRANCH  16  17
ATOM     17  C   UNL     1      44.872   4.987  11.904  0.00  0.00    +0.000 A 
ATOM     18  C   UNL     1      45.553   5.660  10.884  0.00  0.00    +0.000 A 
ATOM     19  C   UNL     1      45.488   5.214   9.562  0.00  0.00    +0.000 A 
ATOM     20  C   UNL     1      44.730   4.084   9.229  0.00  0.00    +0.000 A 
ATOM     21  C   UNL     1      44.023   3.427  10.246  0.00  0.00    +0.000 A 
ATOM     22  C   UNL     1      44.083   3.879  11.569  0.00  0.00    +0.000 A 
BRANCH  20  23
ATOM     23  C   UNL     1      44.658   3.590   7.805  0.00  0.00    +0.000 C 
BRANCH  23  24
ATOM     24  C   UNL     1      45.905   2.932   7.274  0.00  0.00    +0.000 A 
ATOM     25  C   UNL     1      46.556   3.409   6.132  0.00  0.00    +0.000 A 
ATOM     26  C   UNL     1      47.631   2.700   5.600  0.00  0.00    +0.000 A 
ATOM     27  C   UNL     1      48.039   1.544   6.244  0.00  0.00    +0.000 A 
ATOM     28  N   UNL     1      47.466   1.074   7.371  0.00  0.00    +0.000 NA
ATOM     29  C   UNL     1      46.418   1.778   7.859  0.00  0.00    +0.000 A 
ENDBRANCH  23  24
ENDBRANCH  20  23
ENDBRANCH  16  17
ENDBRANCH   3  16
TORSDOF 5
ENDMDL
MODEL 6
REMARK VINA RESULT:    -7.420      2.683      3.499
REMARK INTER + INTRA:         -10.301
REMARK INTER:                  -9.290
REMARK INTRA:                  -1.011
REMARK UNBOUND:                -0.713
REMARK  Name = 
REMARK  5 active torsions:
REMARK  status: ('A' for Active; 'I' for Inactive)
REMARK    1  A    between atoms: C_2  and  C_18
REMARK    2  A    between atoms: N_3  and  C_4
REMARK    3  A    between atoms: C_4  and  C_5
REMARK    4  A    between atoms: C_8  and  C_9
REMARK    5  A    between atoms: C_9  and  C_10
REMARK                            x       y       z     vdW  Elec       q    Type
REMARK                         _______ _______ _______ _____ _____    ______ ____
ROOT
ATOM      1  O   UNL     1      50.318   6.187  15.926  0.00  0.00    +0.000 OA
ATOM      2  C   UNL     1      49.178   6.244  16.374  0.00  0.00    +0.000 C 
ATOM      3  N   UNL     1      48.098   6.632  15.621  0.00  0.00    +0.000 N 
ATOM      4  H   UNL     1      47.227   6.871  16.082  0.00  0.00    +0.000 HD
ENDROOT
BRANCH   2   5
ATOM      5  C   UNL     1      48.878   5.845  17.749  0.00  0.00    +0.000 A 
ATOM      6  C   UNL     1      49.135   4.550  18.182  0.00  0.00    +0.000 A 
ATOM      7  S   UNL     1      48.734   4.303  19.824  0.00  0.00    +0.000 S 
ATOM      8  C   UNL     1      48.230   5.914  20.008  0.00  0.00    +0.000 A 
ATOM      9  N   UNL     1      47.787   6.392  21.205  0.00  0.00    +0.000 NA
ATOM     10  C   UNL     1      47.470   7.639  21.195  0.00  0.00    +0.000 A 
ATOM     11  N   UNL     1      47.539   8.460  20.102  0.00  0.00    +0.000 N 
ATOM     12  C   UNL     1      47.904   8.010  18.862  0.00  0.00    +0.000 A 
ATOM     13  O   UNL     1      47.807   8.737  17.879  0.00  0.00    +0.000 OA
ATOM     14  C   UNL     1      48.331   6.628  18.823  0.00  0.00    +0.000 A 
ATOM     15  H   UNL     1      47.232   9.423  20.144  0.00  0.00    +0.000 HD
ENDBRANCH   2   5
BRANCH   3  16
ATOM     16  C   UNL     1      48.221   7.049  14.251  0.00  0.00    +0.000 C 
BRANCH  16  17
ATOM     17  C   UNL     1      47.206   6.392  13.354  0.00  0.00    +0.000 A 
ATOM     18  C   UNL     1      46.664   7.115  12.285  0.00  0.00    +0.000 A 
ATOM     19  C   UNL     1      45.770   6.515  11.393  0.00  0.00    +0.000 A 
ATOM     20  C   UNL     1      45.391   5.177  11.557  0.00  0.00    +0.000 A 
ATOM     21  C   UNL     1      45.910   4.461  12.646  0.00  0.00    +0.000 A 
ATOM     22  C   UNL     1      46.800   5.064  13.543  0.00  0.00    +0.000 A 
BRANCH  20  23
ATOM     23  C   UNL     1      44.431   4.519  10.597  0.00  0.00    +0.000 C 
BRANCH  23  24
ATOM     24  C   UNL     1      45.060   3.779   9.444  0.00  0.00    +0.000 A 
ATOM     25  C   UNL     1      45.166   2.385   9.439  0.00  0.00    +0.000 A 
ATOM     26  C   UNL     1      45.867   1.747   8.417  0.00  0.00    +0.000 A 
ATOM     27  C   UNL     1      46.420   2.525   7.415  0.00  0.00    +0.000 A 
ATOM     28  N   UNL     1      46.304   3.868   7.360  0.00  0.00    +0.000 NA
ATOM     29  C   UNL     1      45.627   4.461   8.371  0.00  0.00    +0.000 A 
ENDBRANCH  23  24
ENDBRANCH  20  23
ENDBRANCH  16  17
ENDBRANCH   3  16
TORSDOF 5
ENDMDL
MODEL 7
REMARK VINA RESULT:    -7.404      2.940      4.372
REMARK INTER + INTRA:         -10.281
REMARK INTER:                  -9.371
REMARK INTRA:                  -0.910
REMARK UNBOUND:                -0.713
REMARK  Name = 
REMARK  5 active torsions:
REMARK  status: ('A' for Active; 'I' for Inactive)
REMARK    1  A    between atoms: C_2  and  C_18
REMARK    2  A    between atoms: N_3  and  C_4
REMARK    3  A    between atoms: C_4  and  C_5
REMARK    4  A    between atoms: C_8  and  C_9
REMARK    5  A    between atoms: C_9  and  C_10
REMARK                            x       y       z     vdW  Elec       q    Type
REMARK                         _______ _______ _______ _____ _____    ______ ____
ROOT
ATOM      1  O   UNL     1      49.306   6.535  14.294  0.00  0.00    +0.000 OA
ATOM      2  C   UNL     1      48.556   7.433  13.929  0.00  0.00    +0.000 C 
ATOM      3  N   UNL     1      47.209   7.251  13.742  0.00  0.00    +0.000 N 
ATOM      4  H   UNL     1      46.674   7.950  13.238  0.00  0.00    +0.000 HD
ENDROOT
BRANCH   2   5
ATOM      5  C   UNL     1      49.044   8.796  13.712  0.00  0.00    +0.000 A 
ATOM      6  C   UNL     1      48.700   9.817  14.590  0.00  0.00    +0.000 A 
ATOM      7  S   UNL     1      49.393  11.320  14.168  0.00  0.00    +0.000 S 
ATOM      8  C   UNL     1      50.185  10.649  12.824  0.00  0.00    +0.000 A 
ATOM      9  N   UNL     1      50.993  11.399  12.022  0.00  0.00    +0.000 NA
ATOM     10  C   UNL     1      51.546  10.744  11.063  0.00  0.00    +0.000 A 
ATOM     11  N   UNL     1      51.363   9.410  10.812  0.00  0.00    +0.000 N 
ATOM     12  C   UNL     1      50.503   8.633  11.540  0.00  0.00    +0.000 A 
ATOM     13  O   UNL     1      50.250   7.484  11.192  0.00  0.00    +0.000 OA
ATOM     14  C   UNL     1      49.897   9.300  12.672  0.00  0.00    +0.000 A 
ATOM     15  H   UNL     1      51.789   8.959  10.014  0.00  0.00    +0.000 HD
ENDBRANCH   2   5
BRANCH   3  16
ATOM     16  C   UNL     1      46.569   5.975  13.918  0.00  0.00    +0.000 C 
BRANCH  16  17
ATOM     17  C   UNL     1      46.012   5.426  12.631  0.00  0.00    +0.000 A 
ATOM     18  C   UNL     1      46.220   6.128  11.438  0.00  0.00    +0.000 A 
ATOM     19  C   UNL     1      45.776   5.614  10.217  0.00  0.00    +0.000 A 
ATOM     20  C   UNL     1      45.103   4.387  10.164  0.00  0.00    +0.000 A 
ATOM     21  C   UNL     1      44.867   3.698  11.362  0.00  0.00    +0.000 A 
ATOM     22  C   UNL     1      45.307   4.216  12.586  0.00  0.00    +0.000 A 
BRANCH  20  23
ATOM     23  C   UNL     1      44.623   3.821   8.849  0.00  0.00    +0.000 C 
BRANCH  23  24
ATOM     24  C   UNL     1      45.608   2.951   8.112  0.00  0.00    +0.000 A 
ATOM     25  C   UNL     1      46.246   3.391   6.948  0.00  0.00    +0.000 A 
ATOM     26  C   UNL     1      47.051   2.514   6.224  0.00  0.00    +0.000 A 
ATOM     27  C   UNL     1      47.214   1.225   6.704  0.00  0.00    +0.000 A 
ATOM     28  N   UNL     1      46.652   0.775   7.844  0.00  0.00    +0.000 NA
ATOM     29  C   UNL     1      45.867   1.646   8.520  0.00  0.00    +0.000 A 
ENDBRANCH  23  24
ENDBRANCH  20  23
ENDBRANCH  16  17
ENDBRANCH   3  16
TORSDOF 5
ENDMDL
MODEL 8
REMARK VINA RESULT:    -7.322      2.806      3.839
REMARK INTER + INTRA:         -10.175
REMARK INTER:                  -9.383
REMARK INTRA:                  -0.792
REMARK UNBOUND:                -0.713
REMARK  Name = 
REMARK  5 active torsions:
REMARK  status: ('A' for Active; 'I' for Inactive)
REMARK    1  A    between atoms: C_2  and  C_18
REMARK    2  A    between atoms: N_3  and  C_4
REMARK    3  A    between atoms: C_4  and  C_5
REMARK    4  A    between atoms: C_8  and  C_9
REMARK    5  A    between atoms: C_9  and  C_10
REMARK                            x       y       z     vdW  Elec       q    Type
REMARK                         _______ _______ _______ _____ _____    ______ ____
ROOT
ATOM      1  O   UNL     1      49.252   6.387  14.177  0.00  0.00    +0.000 OA
ATOM      2  C   UNL     1      48.442   7.291  14.003  0.00  0.00    +0.000 C 
ATOM      3  N   UNL     1      47.088   7.079  13.938  0.00  0.00    +0.000 N 
ATOM      4  H   UNL     1      46.483   7.810  13.581  0.00  0.00    +0.000 HD
ENDROOT
BRANCH   2   5
ATOM      5  C   UNL     1      48.868   8.688  13.901  0.00  0.00    +0.000 A 
ATOM      6  C   UNL     1      49.390   9.182  12.711  0.00  0.00    +0.000 A 
ATOM      7  S   UNL     1      49.800  10.838  12.799  0.00  0.00    +0.000 S 
ATOM      8  C   UNL     1      49.274  10.946  14.411  0.00  0.00    +0.000 A 
ATOM      9  N   UNL     1      49.317  12.122  15.098  0.00  0.00    +0.000 NA
ATOM     10  C   UNL     1      48.857  12.053  16.298  0.00  0.00    +0.000 A 
ATOM     11  N   UNL     1      48.366  10.920  16.889  0.00  0.00    +0.000 N 
ATOM     12  C   UNL     1      48.373   9.700  16.267  0.00  0.00    +0.000 A 
ATOM     13  O   UNL     1      48.068   8.683  16.881  0.00  0.00    +0.000 OA
ATOM     14  C   UNL     1      48.823   9.726  14.893  0.00  0.00    +0.000 A 
ATOM     15  H   UNL     1      48.059  10.917  17.853  0.00  0.00    +0.000 HD
ENDBRANCH   2   5
BRANCH   3  16
ATOM     16  C   UNL     1      46.506   5.767  14.026  0.00  0.00    +0.000 C 
BRANCH  16  17
ATOM     17  C   UNL     1      45.971   5.283  12.705  0.00  0.00    +0.000 A 
ATOM     18  C   UNL     1      46.184   6.051  11.555  0.00  0.00    +0.000 A 
ATOM     19  C   UNL     1      45.760   5.600  10.302  0.00  0.00    +0.000 A 
ATOM     20  C   UNL     1      45.102   4.370  10.174  0.00  0.00    +0.000 A 
ATOM     21  C   UNL     1      44.861   3.614  11.330  0.00  0.00    +0.000 A 
ATOM     22  C   UNL     1      45.280   4.070  12.586  0.00  0.00    +0.000 A 
BRANCH  20  23
ATOM     23  C   UNL     1      44.645   3.871   8.825  0.00  0.00    +0.000 C 
BRANCH  23  24
ATOM     24  C   UNL     1      45.612   2.976   8.094  0.00  0.00    +0.000 A 
ATOM     25  C   UNL     1      46.257   3.393   6.926  0.00  0.00    +0.000 A 
ATOM     26  C   UNL     1      47.044   2.493   6.210  0.00  0.00    +0.000 A 
ATOM     27  C   UNL     1      47.183   1.206   6.701  0.00  0.00    +0.000 A 
ATOM     28  N   UNL     1      46.613   0.777   7.846  0.00  0.00    +0.000 NA
ATOM     29  C   UNL     1      45.846   1.669   8.514  0.00  0.00    +0.000 A 
ENDBRANCH  23  24
ENDBRANCH  20  23
ENDBRANCH  16  17
ENDBRANCH   3  16
TORSDOF 5
ENDMDL
MODEL 9
REMARK VINA RESULT:    -7.270      1.954      2.596
REMARK INTER + INTRA:         -10.108
REMARK INTER:                  -9.090
REMARK INTRA:                  -1.018
REMARK UNBOUND:                -0.713
REMARK  Name = 
REMARK  5 active torsions:
REMARK  status: ('A' for Active; 'I' for Inactive)
REMARK    1  A    between atoms: C_2  and  C_18
REMARK    2  A    between atoms: N_3  and  C_4
REMARK    3  A    between atoms: C_4  and  C_5
REMARK    4  A    between atoms: C_8  and  C_9
REMARK    5  A    between atoms: C_9  and  C_10
REMARK                            x       y       z     vdW  Elec       q    Type
REMARK                         _______ _______ _______ _____ _____    ______ ____
ROOT
ATOM      1  O   UNL     1      48.709   9.983  14.137  0.00  0.00    +0.000 OA
ATOM      2  C   UNL     1      48.056   9.203  14.821  0.00  0.00    +0.000 C 
ATOM      3  N   UNL     1      46.938   8.559  14.355  0.00  0.00    +0.000 N 
ATOM      4  H   UNL     1      46.315   8.100  15.012  0.00  0.00    +0.000 HD
ENDROOT
BRANCH   2   5
ATOM      5  C   UNL     1      48.459   8.862  16.186  0.00  0.00    +0.000 A 
ATOM      6  C   UNL     1      48.493   9.836  17.177  0.00  0.00    +0.000 A 
ATOM      7  S   UNL     1      48.967   9.223  18.699  0.00  0.00    +0.000 S 
ATOM      8  C   UNL     1      49.116   7.646  18.086  0.00  0.00    +0.000 A 
ATOM      9  N   UNL     1      49.469   6.600  18.886  0.00  0.00    +0.000 NA
ATOM     10  C   UNL     1      49.511   5.462  18.285  0.00  0.00    +0.000 A 
ATOM     11  N   UNL     1      49.248   5.264  16.956  0.00  0.00    +0.000 N 
ATOM     12  C   UNL     1      48.966   6.292  16.097  0.00  0.00    +0.000 A 
ATOM     13  O   UNL     1      48.887   6.094  14.889  0.00  0.00    +0.000 OA
ATOM     14  C   UNL     1      48.845   7.588  16.727  0.00  0.00    +0.000 A 
ATOM     15  H   UNL     1      49.342   4.352  16.529  0.00  0.00    +0.000 HD
ENDBRANCH   2   5
BRANCH   3  16
ATOM     16  C   UNL     1      46.411   8.778  13.036  0.00  0.00    +0.000 C 
BRANCH  16  17
ATOM     17  C   UNL     1      45.828   7.528  12.431  0.00  0.00    +0.000 A 
ATOM     18  C   UNL     1      44.651   7.614  11.680  0.00  0.00    +0.000 A 
ATOM     19  C   UNL     1      44.118   6.486  11.049  0.00  0.00    +0.000 A 
ATOM     20  C   UNL     1      44.750   5.242  11.163  0.00  0.00    +0.000 A 
ATOM     21  C   UNL     1      45.914   5.149  11.941  0.00  0.00    +0.000 A 
ATOM     22  C   UNL     1      46.443   6.278  12.579  0.00  0.00    +0.000 A 
BRANCH  20  23
ATOM     23  C   UNL     1      44.187   4.019  10.481  0.00  0.00    +0.000 C 
BRANCH  23  24
ATOM     24  C   UNL     1      44.978   3.499   9.309  0.00  0.00    +0.000 A 
ATOM     25  C   UNL     1      45.298   2.144   9.185  0.00  0.00    +0.000 A 
ATOM     26  C   UNL     1      46.137   1.721   8.156  0.00  0.00    +0.000 A 
ATOM     27  C   UNL     1      46.612   2.668   7.264  0.00  0.00    +0.000 A 
ATOM     28  N   UNL     1      46.292   3.977   7.324  0.00  0.00    +0.000 NA
ATOM     29  C   UNL     1      45.484   4.360   8.339  0.00  0.00    +0.000 A 
ENDBRANCH  23  24
ENDBRANCH  20  23
ENDBRANCH  16  17
ENDBRANCH   3  16
TORSDOF 5
ENDMDL
