MODEL 1
REMARK VINA RESULT:    -8.543      0.000      0.000
REMARK INTER + INTRA:         -13.176
REMARK INTER:                 -12.039
REMARK INTRA:                  -1.137
REMARK UNBOUND:                -1.137
REMARK  Name = 
REMARK  9 active torsions:
REMARK  status: ('A' for Active; 'I' for Inactive)
REMARK    1  A    between atoms: C_1  and  C_2
REMARK    2  A    between atoms: C_4  and  O_5
REMARK    3  A    between atoms: O_5  and  C_6
REMARK    4  A    between atoms: C_11  and  C_12
REMARK    5  A    between atoms: C_12  and  C_13
REMARK    6  A    between atoms: C_12  and  C_14
REMARK    7  A    between atoms: C_14  and  O_15
REMARK    8  A    between atoms: O_15  and  C_16
REMARK    9  A    between atoms: C_19  and  C_20
REMARK                            x       y       z     vdW  Elec       q    Type
REMARK                         _______ _______ _______ _____ _____    ______ ____
ROOT
ATOM      1  C   UNL     1      43.856   4.252  12.735  0.00  0.00    +0.000 C 
ATOM      2  C   UNL     1      42.824   5.288  12.272  0.00  0.00    +0.000 C 
ENDROOT
BRANCH   1   8
ATOM      3  C   UNL     1      47.442   7.485  11.275  0.00  0.00    +0.000 C 
ATOM      4  C   UNL     1      46.956   6.462  12.261  0.00  0.00    +0.000 A 
ATOM      5  C   UNL     1      47.755   6.069  13.344  0.00  0.00    +0.000 A 
ATOM      6  C   UNL     1      47.292   5.106  14.237  0.00  0.00    +0.000 A 
ATOM      7  C   UNL     1      46.022   4.546  14.062  0.00  0.00    +0.000 A 
ATOM      8  C   UNL     1      45.210   4.908  12.975  0.00  0.00    +0.000 A 
ATOM      9  C   UNL     1      45.690   5.879  12.085  0.00  0.00    +0.000 A 
BRANCH   6  10
ATOM     10  O   UNL     1      47.984   4.658  15.336  0.00  0.00    +0.000 OA
BRANCH  10  11
ATOM     11  C   UNL     1      47.268   3.950  16.376  0.00  0.00    +0.000 C 
ATOM     12  C   UNL     1      47.236   4.568  17.791  0.00  0.00    +0.000 C 
ATOM     13  N   UNL     1      47.584   3.256  18.372  0.00  0.00    +0.000 NA
ATOM     14  C   UNL     1      48.066   2.810  17.050  0.00  0.00    +0.000 C 
ATOM     15  H   UNL     1      46.781   2.728  18.714  0.00  0.00    +0.000 HD
ENDBRANCH  10  11
ENDBRANCH   6  10
ENDBRANCH   1   8
BRANCH   1  16
ATOM     16  C   UNL     1      43.959   3.074  11.749  0.00  0.00    +0.000 C 
BRANCH  16  17
ATOM     17  O   UNL     1      43.546   3.482  10.433  0.00  0.00    +0.000 OA
BRANCH  17  18
ATOM     18  C   UNL     1      44.499   3.193   9.474  0.00  0.00    +0.000 A 
ATOM     19  C   UNL     1      44.987   4.242   8.716  0.00  0.00    +0.000 A 
ATOM     20  C   UNL     1      45.957   3.967   7.745  0.00  0.00    +0.000 A 
ATOM     21  C   UNL     1      46.408   2.653   7.568  0.00  0.00    +0.000 A 
ATOM     22  C   UNL     1      45.849   1.679   8.379  0.00  0.00    +0.000 A 
ATOM     23  N   UNL     1      44.910   1.918   9.322  0.00  0.00    +0.000 NA
BRANCH  21  24
ATOM     24  C   UNL     1      47.438   2.359   6.544  0.00  0.00    +0.000 C 
ATOM     25  N   UNL     1      47.483   3.122   5.409  0.00  0.00    +0.000 N 
ATOM     26  O   UNL     1      48.241   1.445   6.699  0.00  0.00    +0.000 OA
ATOM     27  H   UNL     1      46.871   3.886   5.174  0.00  0.00    +0.000 HD
ATOM     28  H   UNL     1      48.200   2.883   4.734  0.00  0.00    +0.000 HD
ENDBRANCH  21  24
ENDBRANCH  17  18
ENDBRANCH  16  17
ENDBRANCH   1  16
TORSDOF 7
ENDMDL
MODEL 2
REMARK VINA RESULT:    -8.349      0.806      1.109
REMARK INTER + INTRA:         -12.902
REMARK INTER:                 -12.002
REMARK INTRA:                  -0.900
REMARK UNBOUND:                -1.137
REMARK  Name = 
REMARK  9 active torsions:
REMARK  status: ('A' for Active; 'I' for Inactive)
REMARK    1  A    between atoms: C_1  and  C_2
REMARK    2  A    between atoms: C_4  and  O_5
REMARK    3  A    between atoms: O_5  and  C_6
REMARK    4  A    between atoms: C_11  and  C_12
REMARK    5  A    between atoms: C_12  and  C_13
REMARK    6  A    between atoms: C_12  and  C_14
REMARK    7  A    between atoms: C_14  and  O_15
REMARK    8  A    between atoms: O_15  and  C_16
REMARK    9  A    between atoms: C_19  and  C_20
REMARK                            x       y       z     vdW  Elec       q    Type
REMARK                         _______ _______ _______ _____ _____    ______ ____
ROOT
ATOM      1  C   UNL     1      43.504   4.560  12.318  0.00  0.00    +0.000 C 
ATOM      2  C   UNL     1      42.661   5.695  11.724  0.00  0.00    +0.000 C 
ENDROOT
BRANCH   1   8
ATOM      3  C   UNL     1      47.120   8.071  12.121  0.00  0.00    +0.000 C 
ATOM      4  C   UNL     1      46.616   6.774  12.684  0.00  0.00    +0.000 A 
ATOM      5  C   UNL     1      47.397   6.023  13.576  0.00  0.00    +0.000 A 
ATOM      6  C   UNL     1      46.917   4.815  14.073  0.00  0.00    +0.000 A 
ATOM      7  C   UNL     1      45.649   4.360  13.696  0.00  0.00    +0.000 A 
ATOM      8  C   UNL     1      44.856   5.082  12.790  0.00  0.00    +0.000 A 
ATOM      9  C   UNL     1      45.352   6.297  12.299  0.00  0.00    +0.000 A 
BRANCH   6  10
ATOM     10  O   UNL     1      47.590   4.009  14.959  0.00  0.00    +0.000 OA
BRANCH  10  11
ATOM     11  C   UNL     1      47.243   4.064  16.363  0.00  0.00    +0.000 C 
ATOM     12  C   UNL     1      48.039   5.022  17.275  0.00  0.00    +0.000 C 
ATOM     13  N   UNL     1      48.195   3.943  18.272  0.00  0.00    +0.000 NA
ATOM     14  C   UNL     1      47.870   2.949  17.230  0.00  0.00    +0.000 C 
ATOM     15  H   UNL     1      47.514   3.978  19.030  0.00  0.00    +0.000 HD
ENDBRANCH  10  11
ENDBRANCH   6  10
ENDBRANCH   1   8
BRANCH   1  16
ATOM     16  C   UNL     1      43.657   3.390  11.330  0.00  0.00    +0.000 C 
BRANCH  16  17
ATOM     17  O   UNL     1      43.448   3.840   9.980  0.00  0.00    +0.000 OA
BRANCH  17  18
ATOM     18  C   UNL     1      44.481   3.470   9.141  0.00  0.00    +0.000 A 
ATOM     19  C   UNL     1      44.847   2.136   9.119  0.00  0.00    +0.000 A 
ATOM     20  C   UNL     1      45.888   1.745   8.270  0.00  0.00    +0.000 A 
ATOM     21  C   UNL     1      46.526   2.699   7.468  0.00  0.00    +0.000 A 
ATOM     22  C   UNL     1      46.082   4.008   7.571  0.00  0.00    +0.000 A 
ATOM     23  N   UNL     1      45.082   4.413   8.385  0.00  0.00    +0.000 NA
BRANCH  21  24
ATOM     24  C   UNL     1      47.626   2.287   6.564  0.00  0.00    +0.000 C 
ATOM     25  N   UNL     1      47.747   2.896   5.345  0.00  0.00    +0.000 N 
ATOM     26  O   UNL     1      48.418   1.411   6.893  0.00  0.00    +0.000 OA
ATOM     27  H   UNL     1      47.151   3.615   4.971  0.00  0.00    +0.000 HD
ATOM     28  H   UNL     1      48.510   2.580   4.758  0.00  0.00    +0.000 HD
ENDBRANCH  21  24
ENDBRANCH  17  18
ENDBRANCH  16  17
ENDBRANCH   1  16
TORSDOF 7
ENDMDL
MODEL 3
REMARK VINA RESULT:    -7.618      2.297      3.670
REMARK INTER + INTRA:         -11.873
REMARK INTER:                 -10.787
REMARK INTRA:                  -1.085
REMARK UNBOUND:                -1.137
REMARK  Name = 
REMARK  9 active torsions:
REMARK  status: ('A' for Active; 'I' for Inactive)
REMARK    1  A    between atoms: C_1  and  C_2
REMARK    2  A    between atoms: C_4  and  O_5
REMARK    3  A    between atoms: O_5  and  C_6
REMARK    4  A    between atoms: C_11  and  C_12
REMARK    5  A    between atoms: C_12  and  C_13
REMARK    6  A    between atoms: C_12  and  C_14
REMARK    7  A    between atoms: C_14  and  O_15
REMARK    8  A    between atoms: O_15  and  C_16
REMARK    9  A    between atoms: C_19  and  C_20
REMARK                            x       y       z     vdW  Elec       q    Type
REMARK                         _______ _______ _______ _____ _____    ______ ____
ROOT
ATOM      1  C   UNL     1      43.714   4.571  12.342  0.00  0.00    +0.000 C 
ATOM      2  C   UNL     1      42.972   5.706  11.625  0.00  0.00    +0.000 C 
ENDROOT
BRANCH   1   8
ATOM      3  C   UNL     1      47.514   4.406  15.655  0.00  0.00    +0.000 C 
ATOM      4  C   UNL     1      46.942   4.954  14.380  0.00  0.00    +0.000 A 
ATOM      5  C   UNL     1      47.643   5.909  13.628  0.00  0.00    +0.000 A 
ATOM      6  C   UNL     1      47.087   6.416  12.457  0.00  0.00    +0.000 A 
ATOM      7  C   UNL     1      45.838   5.960  12.023  0.00  0.00    +0.000 A 
ATOM      8  C   UNL     1      45.107   5.020  12.767  0.00  0.00    +0.000 A 
ATOM      9  C   UNL     1      45.680   4.518  13.944  0.00  0.00    +0.000 A 
BRANCH   6  10
ATOM     10  O   UNL     1      47.690   7.341  11.639  0.00  0.00    +0.000 OA
BRANCH  10  11
ATOM     11  C   UNL     1      48.884   8.016  12.103  0.00  0.00    +0.000 C 
ATOM     12  C   UNL     1      49.059   9.511  11.756  0.00  0.00    +0.000 C 
ATOM     13  N   UNL     1      50.449   9.249  11.331  0.00  0.00    +0.000 NA
ATOM     14  C   UNL     1      50.130   7.812  11.211  0.00  0.00    +0.000 C 
ATOM     15  H   UNL     1      51.147   9.455  12.045  0.00  0.00    +0.000 HD
ENDBRANCH  10  11
ENDBRANCH   6  10
ENDBRANCH   1   8
BRANCH   1  16
ATOM     16  C   UNL     1      43.764   3.295  11.483  0.00  0.00    +0.000 C 
BRANCH  16  17
ATOM     17  O   UNL     1      43.497   3.605  10.103  0.00  0.00    +0.000 OA
BRANCH  17  18
ATOM     18  C   UNL     1      44.528   3.212   9.271  0.00  0.00    +0.000 A 
ATOM     19  C   UNL     1      45.144   4.186   8.505  0.00  0.00    +0.000 A 
ATOM     20  C   UNL     1      46.193   3.805   7.662  0.00  0.00    +0.000 A 
ATOM     21  C   UNL     1      46.593   2.464   7.613  0.00  0.00    +0.000 A 
ATOM     22  C   UNL     1      45.905   1.571   8.420  0.00  0.00    +0.000 A 
ATOM     23  N   UNL     1      44.887   1.913   9.241  0.00  0.00    +0.000 NA
BRANCH  21  24
ATOM     24  C   UNL     1      47.707   2.058   6.724  0.00  0.00    +0.000 C 
ATOM     25  N   UNL     1      48.705   2.955   6.458  0.00  0.00    +0.000 N 
ATOM     26  O   UNL     1      47.741   0.938   6.226  0.00  0.00    +0.000 OA
ATOM     27  H   UNL     1      48.772   3.899   6.803  0.00  0.00    +0.000 HD
ATOM     28  H   UNL     1      49.444   2.637   5.842  0.00  0.00    +0.000 HD
ENDBRANCH  21  24
ENDBRANCH  17  18
ENDBRANCH  16  17
ENDBRANCH   1  16
TORSDOF 7
ENDMDL
MODEL 4
REMARK VINA RESULT:    -7.572      3.058      4.857
REMARK INTER + INTRA:         -11.808
REMARK INTER:                 -10.712
REMARK INTRA:                  -1.096
REMARK UNBOUND:                -1.137
REMARK  Name = 
REMARK  9 active torsions:
REMARK  status: ('A' for Active; 'I' for Inactive)
REMARK    1  A    between atoms: C_1  and  C_2
REMARK    2  A    between atoms: C_4  and  O_5
REMARK    3  A    between atoms: O_5  and  C_6
REMARK    4  A    between atoms: C_11  and  C_12
REMARK    5  A    between atoms: C_12  and  C_13
REMARK    6  A    between atoms: C_12  and  C_14
REMARK    7  A    between atoms: C_14  and  O_15
REMARK    8  A    between atoms: O_15  and  C_16
REMARK    9  A    between atoms: C_19  and  C_20
REMARK                            x       y       z     vdW  Elec       q    Type
REMARK                         _______ _______ _______ _____ _____    ______ ____
ROOT
ATOM      1  C   UNL     1      43.783   4.917  12.405  0.00  0.00    +0.000 C 
ATOM      2  C   UNL     1      42.436   5.328  11.798  0.00  0.00    +0.000 C 
ENDROOT
BRANCH   1   8
ATOM      3  C   UNL     1      48.543   6.549  12.765  0.00  0.00    +0.000 C 
ATOM      4  C   UNL     1      47.099   6.846  12.477  0.00  0.00    +0.000 A 
ATOM      5  C   UNL     1      46.679   8.149  12.170  0.00  0.00    +0.000 A 
ATOM      6  C   UNL     1      45.333   8.405  11.922  0.00  0.00    +0.000 A 
ATOM      7  C   UNL     1      44.405   7.359  11.963  0.00  0.00    +0.000 A 
ATOM      8  C   UNL     1      44.796   6.050  12.287  0.00  0.00    +0.000 A 
ATOM      9  C   UNL     1      46.155   5.808  12.533  0.00  0.00    +0.000 A 
BRANCH   6  10
ATOM     10  O   UNL     1      44.815   9.636  11.600  0.00  0.00    +0.000 OA
BRANCH  10  11
ATOM     11  C   UNL     1      43.932   9.749  10.459  0.00  0.00    +0.000 C 
ATOM     12  C   UNL     1      44.086  10.977   9.535  0.00  0.00    +0.000 C 
ATOM     13  N   UNL     1      42.623  11.180   9.562  0.00  0.00    +0.000 NA
ATOM     14  C   UNL     1      42.540  10.343  10.774  0.00  0.00    +0.000 C 
ATOM     15  H   UNL     1      42.135  10.786   8.758  0.00  0.00    +0.000 HD
ENDBRANCH  10  11
ENDBRANCH   6  10
ENDBRANCH   1   8
BRANCH   1  16
ATOM     16  C   UNL     1      44.311   3.612  11.784  0.00  0.00    +0.000 C 
BRANCH  16  17
ATOM     17  O   UNL     1      43.702   3.384  10.500  0.00  0.00    +0.000 OA
BRANCH  17  18
ATOM     18  C   UNL     1      44.639   3.137   9.515  0.00  0.00    +0.000 A 
ATOM     19  C   UNL     1      45.186   4.227   8.860  0.00  0.00    +0.000 A 
ATOM     20  C   UNL     1      46.140   3.994   7.864  0.00  0.00    +0.000 A 
ATOM     21  C   UNL     1      46.518   2.680   7.557  0.00  0.00    +0.000 A 
ATOM     22  C   UNL     1      45.905   1.664   8.273  0.00  0.00    +0.000 A 
ATOM     23  N   UNL     1      44.979   1.862   9.237  0.00  0.00    +0.000 NA
BRANCH  21  24
ATOM     24  C   UNL     1      47.532   2.431   6.506  0.00  0.00    +0.000 C 
ATOM     25  N   UNL     1      47.410   3.067   5.301  0.00  0.00    +0.000 N 
ATOM     26  O   UNL     1      48.469   1.664   6.701  0.00  0.00    +0.000 OA
ATOM     27  H   UNL     1      46.680   3.706   5.030  0.00  0.00    +0.000 HD
ATOM     28  H   UNL     1      48.122   2.864   4.610  0.00  0.00    +0.000 HD
ENDBRANCH  21  24
ENDBRANCH  17  18
ENDBRANCH  16  17
ENDBRANCH   1  16
TORSDOF 7
ENDMDL
MODEL 5
REMARK VINA RESULT:    -7.460      3.019      3.713
REMARK INTER + INTRA:         -11.650
REMARK INTER:                 -10.800
REMARK INTRA:                  -0.850
REMARK UNBOUND:                -1.137
REMARK  Name = 
REMARK  9 active torsions:
REMARK  status: ('A' for Active; 'I' for Inactive)
REMARK    1  A    between atoms: C_1  and  C_2
REMARK    2  A    between atoms: C_4  and  O_5
REMARK    3  A    between atoms: O_5  and  C_6
REMARK    4  A    between atoms: C_11  and  C_12
REMARK    5  A    between atoms: C_12  and  C_13
REMARK    6  A    between atoms: C_12  and  C_14
REMARK    7  A    between atoms: C_14  and  O_15
REMARK    8  A    between atoms: O_15  and  C_16
REMARK    9  A    between atoms: C_19  and  C_20
REMARK                            x       y       z     vdW  Elec       q    Type
REMARK                         _______ _______ _______ _____ _____    ______ ____
ROOT
ATOM      1  C   UNL     1      44.299   5.027  11.912  0.00  0.00    +0.000 C 
ATOM      2  C   UNL     1      43.279   5.023  13.058  0.00  0.00    +0.000 C 
ENDROOT
BRANCH   1   8
ATOM      3  C   UNL     1      44.960  10.026  12.037  0.00  0.00    +0.000 C 
ATOM      4  C   UNL     1      45.556   8.648  12.069  0.00  0.00    +0.000 A 
ATOM      5  C   UNL     1      46.945   8.466  12.136  0.00  0.00    +0.000 A 
ATOM      6  C   UNL     1      47.478   7.179  12.148  0.00  0.00    +0.000 A 
ATOM      7  C   UNL     1      46.625   6.071  12.112  0.00  0.00    +0.000 A 
ATOM      8  C   UNL     1      45.232   6.226  12.025  0.00  0.00    +0.000 A 
ATOM      9  C   UNL     1      44.711   7.528  12.014  0.00  0.00    +0.000 A 
BRANCH   6  10
ATOM     10  O   UNL     1      48.818   6.886  12.225  0.00  0.00    +0.000 OA
BRANCH  10  11
ATOM     11  C   UNL     1      49.781   7.908  11.876  0.00  0.00    +0.000 C 
ATOM     12  C   UNL     1      51.003   7.500  11.025  0.00  0.00    +0.000 C 
ATOM     13  N   UNL     1      51.892   8.234  11.949  0.00  0.00    +0.000 NA
ATOM     14  C   UNL     1      50.829   8.211  12.972  0.00  0.00    +0.000 C 
ATOM     15  H   UNL     1      52.134   9.173  11.633  0.00  0.00    +0.000 HD
ENDBRANCH  10  11
ENDBRANCH   6  10
ENDBRANCH   1   8
BRANCH   1  16
ATOM     16  C   UNL     1      43.609   4.968  10.538  0.00  0.00    +0.000 C 
BRANCH  16  17
ATOM     17  O   UNL     1      43.541   3.610  10.067  0.00  0.00    +0.000 OA
BRANCH  17  18
ATOM     18  C   UNL     1      44.561   3.313   9.183  0.00  0.00    +0.000 A 
ATOM     19  C   UNL     1      45.000   2.003   9.123  0.00  0.00    +0.000 A 
ATOM     20  C   UNL     1      46.028   1.685   8.228  0.00  0.00    +0.000 A 
ATOM     21  C   UNL     1      46.580   2.687   7.421  0.00  0.00    +0.000 A 
ATOM     22  C   UNL     1      46.068   3.967   7.565  0.00  0.00    +0.000 A 
ATOM     23  N   UNL     1      45.078   4.301   8.422  0.00  0.00    +0.000 NA
BRANCH  21  24
ATOM     24  C   UNL     1      47.666   2.353   6.470  0.00  0.00    +0.000 C 
ATOM     25  N   UNL     1      47.775   3.069   5.309  0.00  0.00    +0.000 N 
ATOM     26  O   UNL     1      48.458   1.448   6.708  0.00  0.00    +0.000 OA
ATOM     27  H   UNL     1      47.178   3.821   5.008  0.00  0.00    +0.000 HD
ATOM     28  H   UNL     1      48.529   2.804   4.685  0.00  0.00    +0.000 HD
ENDBRANCH  21  24
ENDBRANCH  17  18
ENDBRANCH  16  17
ENDBRANCH   1  16
TORSDOF 7
ENDMDL
MODEL 6
REMARK VINA RESULT:    -7.329      1.637      2.090
REMARK INTER + INTRA:         -11.466
REMARK INTER:                 -10.924
REMARK INTRA:                  -0.541
REMARK UNBOUND:                -1.137
REMARK  Name = 
REMARK  9 active torsions:
REMARK  status: ('A' for Active; 'I' for Inactive)
REMARK    1  A    between atoms: C_1  and  C_2
REMARK    2  A    between atoms: C_4  and  O_5
REMARK    3  A    between atoms: O_5  and  C_6
REMARK    4  A    between atoms: C_11  and  C_12
REMARK    5  A    between atoms: C_12  and  C_13
REMARK    6  A    between atoms: C_12  and  C_14
REMARK    7  A    between atoms: C_14  and  O_15
REMARK    8  A    between atoms: O_15  and  C_16
REMARK    9  A    between atoms: C_19  and  C_20
REMARK                            x       y       z     vdW  Elec       q    Type
REMARK                         _______ _______ _______ _____ _____    ______ ____
ROOT
ATOM      1  C   UNL     1      43.978   4.782  12.650  0.00  0.00    +0.000 C 
ATOM      2  C   UNL     1      42.634   5.303  12.127  0.00  0.00    +0.000 C 
ENDROOT
BRANCH   1   8
ATOM      3  C   UNL     1      45.193   9.611  11.844  0.00  0.00    +0.000 C 
ATOM      4  C   UNL     1      45.614   8.231  12.258  0.00  0.00    +0.000 A 
ATOM      5  C   UNL     1      46.949   7.953  12.587  0.00  0.00    +0.000 A 
ATOM      6  C   UNL     1      47.321   6.662  12.953  0.00  0.00    +0.000 A 
ATOM      7  C   UNL     1      46.359   5.648  13.007  0.00  0.00    +0.000 A 
ATOM      8  C   UNL     1      45.020   5.895  12.664  0.00  0.00    +0.000 A 
ATOM      9  C   UNL     1      44.660   7.200  12.299  0.00  0.00    +0.000 A 
BRANCH   6  10
ATOM     10  O   UNL     1      48.593   6.283  13.306  0.00  0.00    +0.000 OA
BRANCH  10  11
ATOM     11  C   UNL     1      49.088   6.626  14.622  0.00  0.00    +0.000 C 
ATOM     12  C   UNL     1      48.425   5.962  15.849  0.00  0.00    +0.000 C 
ATOM     13  N   UNL     1      48.337   7.277  16.514  0.00  0.00    +0.000 NA
ATOM     14  C   UNL     1      48.516   7.938  15.206  0.00  0.00    +0.000 C 
ATOM     15  H   UNL     1      49.094   7.461  17.172  0.00  0.00    +0.000 HD
ENDBRANCH  10  11
ENDBRANCH   6  10
ENDBRANCH   1   8
BRANCH   1  16
ATOM     16  C   UNL     1      44.462   3.558  11.854  0.00  0.00    +0.000 C 
BRANCH  16  17
ATOM     17  O   UNL     1      43.827   3.515  10.563  0.00  0.00    +0.000 OA
BRANCH  17  18
ATOM     18  C   UNL     1      44.720   3.211   9.553  0.00  0.00    +0.000 A 
ATOM     19  C   UNL     1      45.248   4.262   8.823  0.00  0.00    +0.000 A 
ATOM     20  C   UNL     1      46.158   3.972   7.801  0.00  0.00    +0.000 A 
ATOM     21  C   UNL     1      46.511   2.641   7.543  0.00  0.00    +0.000 A 
ATOM     22  C   UNL     1      45.919   1.667   8.332  0.00  0.00    +0.000 A 
ATOM     23  N   UNL     1      45.037   1.920   9.323  0.00  0.00    +0.000 NA
BRANCH  21  24
ATOM     24  C   UNL     1      47.478   2.331   6.464  0.00  0.00    +0.000 C 
ATOM     25  N   UNL     1      47.464   3.085   5.323  0.00  0.00    +0.000 N 
ATOM     26  O   UNL     1      48.280   1.411   6.580  0.00  0.00    +0.000 OA
ATOM     27  H   UNL     1      46.845   3.853   5.117  0.00  0.00    +0.000 HD
ATOM     28  H   UNL     1      48.138   2.835   4.609  0.00  0.00    +0.000 HD
ENDBRANCH  21  24
ENDBRANCH  17  18
ENDBRANCH  16  17
ENDBRANCH   1  16
TORSDOF 7
ENDMDL
MODEL 7
REMARK VINA RESULT:    -7.189      1.858      7.874
REMARK INTER + INTRA:         -11.268
REMARK INTER:                 -10.270
REMARK INTRA:                  -0.998
REMARK UNBOUND:                -1.137
REMARK  Name = 
REMARK  9 active torsions:
REMARK  status: ('A' for Active; 'I' for Inactive)
REMARK    1  A    between atoms: C_1  and  C_2
REMARK    2  A    between atoms: C_4  and  O_5
REMARK    3  A    between atoms: O_5  and  C_6
REMARK    4  A    between atoms: C_11  and  C_12
REMARK    5  A    between atoms: C_12  and  C_13
REMARK    6  A    between atoms: C_12  and  C_14
REMARK    7  A    between atoms: C_14  and  O_15
REMARK    8  A    between atoms: O_15  and  C_16
REMARK    9  A    between atoms: C_19  and  C_20
REMARK                            x       y       z     vdW  Elec       q    Type
REMARK                         _______ _______ _______ _____ _____    ______ ____
ROOT
ATOM      1  C   UNL     1      45.946   6.706  10.924  0.00  0.00    +0.000 C 
ATOM      2  C   UNL     1      44.885   7.443  11.751  0.00  0.00    +0.000 C 
ENDROOT
BRANCH   1   8
ATOM      3  C   UNL     1      43.326   2.469  11.715  0.00  0.00    +0.000 C 
ATOM      4  C   UNL     1      44.146   3.321  10.789  0.00  0.00    +0.000 A 
ATOM      5  C   UNL     1      44.459   2.882   9.494  0.00  0.00    +0.000 A 
ATOM      6  C   UNL     1      45.234   3.681   8.658  0.00  0.00    +0.000 A 
ATOM      7  C   UNL     1      45.684   4.928   9.104  0.00  0.00    +0.000 A 
ATOM      8  C   UNL     1      45.401   5.382  10.403  0.00  0.00    +0.000 A 
ATOM      9  C   UNL     1      44.619   4.567  11.233  0.00  0.00    +0.000 A 
BRANCH   6  10
ATOM     10  O   UNL     1      45.588   3.356   7.370  0.00  0.00    +0.000 OA
BRANCH  10  11
ATOM     11  C   UNL     1      46.982   3.113   7.066  0.00  0.00    +0.000 C 
ATOM     12  C   UNL     1      47.379   2.883   5.591  0.00  0.00    +0.000 C 
ATOM     13  N   UNL     1      48.182   1.710   5.991  0.00  0.00    +0.000 NA
ATOM     14  C   UNL     1      47.443   1.651   7.267  0.00  0.00    +0.000 C 
ATOM     15  H   UNL     1      49.176   1.907   6.103  0.00  0.00    +0.000 HD
ENDBRANCH  10  11
ENDBRANCH   6  10
ENDBRANCH   1   8
BRANCH   1  16
ATOM     16  C   UNL     1      47.250   6.513  11.717  0.00  0.00    +0.000 C 
BRANCH  16  17
ATOM     17  O   UNL     1      47.148   7.131  13.013  0.00  0.00    +0.000 OA
BRANCH  17  18
ATOM     18  C   UNL     1      47.392   6.238  14.038  0.00  0.00    +0.000 A 
ATOM     19  C   UNL     1      46.775   5.001  13.975  0.00  0.00    +0.000 A 
ATOM     20  C   UNL     1      47.017   4.083  15.003  0.00  0.00    +0.000 A 
ATOM     21  C   UNL     1      47.871   4.430  16.057  0.00  0.00    +0.000 A 
ATOM     22  C   UNL     1      48.434   5.696  16.022  0.00  0.00    +0.000 A 
ATOM     23  N   UNL     1      48.214   6.602  15.044  0.00  0.00    +0.000 NA
BRANCH  21  24
ATOM     24  C   UNL     1      48.133   3.459  17.145  0.00  0.00    +0.000 C 
ATOM     25  N   UNL     1      47.731   3.761  18.417  0.00  0.00    +0.000 N 
ATOM     26  O   UNL     1      48.704   2.397  16.919  0.00  0.00    +0.000 OA
ATOM     27  H   UNL     1      47.266   4.603  18.716  0.00  0.00    +0.000 HD
ATOM     28  H   UNL     1      47.935   3.071  19.130  0.00  0.00    +0.000 HD
ENDBRANCH  21  24
ENDBRANCH  17  18
ENDBRANCH  16  17
ENDBRANCH   1  16
TORSDOF 7
ENDMDL
MODEL 8
REMARK VINA RESULT:    -6.310      2.777      4.831
REMARK INTER + INTRA:         -10.030
REMARK INTER:                  -9.096
REMARK INTRA:                  -0.934
REMARK UNBOUND:                -1.137
REMARK  Name = 
REMARK  9 active torsions:
REMARK  status: ('A' for Active; 'I' for Inactive)
REMARK    1  A    between atoms: C_1  and  C_2
REMARK    2  A    between atoms: C_4  and  O_5
REMARK    3  A    between atoms: O_5  and  C_6
REMARK    4  A    between atoms: C_11  and  C_12
REMARK    5  A    between atoms: C_12  and  C_13
REMARK    6  A    between atoms: C_12  and  C_14
REMARK    7  A    between atoms: C_14  and  O_15
REMARK    8  A    between atoms: O_15  and  C_16
REMARK    9  A    between atoms: C_19  and  C_20
REMARK                            x       y       z     vdW  Elec       q    Type
REMARK                         _______ _______ _______ _____ _____    ______ ____
ROOT
ATOM      1  C   UNL     1      48.489   8.426  12.736  0.00  0.00    +0.000 C 
ATOM      2  C   UNL     1      49.276   7.375  11.944  0.00  0.00    +0.000 C 
ENDROOT
BRANCH   1   8
ATOM      3  C   UNL     1      48.517  10.101  17.494  0.00  0.00    +0.000 C 
ATOM      4  C   UNL     1      48.585   8.946  16.536  0.00  0.00    +0.000 A 
ATOM      5  C   UNL     1      48.770   7.635  17.000  0.00  0.00    +0.000 A 
ATOM      6  C   UNL     1      48.846   6.582  16.093  0.00  0.00    +0.000 A 
ATOM      7  C   UNL     1      48.721   6.830  14.722  0.00  0.00    +0.000 A 
ATOM      8  C   UNL     1      48.555   8.136  14.231  0.00  0.00    +0.000 A 
ATOM      9  C   UNL     1      48.479   9.186  15.156  0.00  0.00    +0.000 A 
BRANCH   6  10
ATOM     10  O   UNL     1      49.012   5.262  16.437  0.00  0.00    +0.000 OA
BRANCH  10  11
ATOM     11  C   UNL     1      47.860   4.386  16.434  0.00  0.00    +0.000 C 
ATOM     12  C   UNL     1      46.950   4.372  17.682  0.00  0.00    +0.000 C 
ATOM     13  N   UNL     1      46.958   2.895  17.672  0.00  0.00    +0.000 NA
ATOM     14  C   UNL     1      48.161   2.919  16.817  0.00  0.00    +0.000 C 
ATOM     15  H   UNL     1      46.144   2.480  17.220  0.00  0.00    +0.000 HD
ENDBRANCH  10  11
ENDBRANCH   6  10
ENDBRANCH   1   8
BRANCH   1  16
ATOM     16  C   UNL     1      47.037   8.540  12.240  0.00  0.00    +0.000 C 
BRANCH  16  17
ATOM     17  O   UNL     1      46.141   7.871  13.146  0.00  0.00    +0.000 OA
BRANCH  17  18
ATOM     18  C   UNL     1      45.631   6.705  12.608  0.00  0.00    +0.000 A 
ATOM     19  C   UNL     1      46.148   5.505  13.063  0.00  0.00    +0.000 A 
ATOM     20  C   UNL     1      45.637   4.316  12.532  0.00  0.00    +0.000 A 
ATOM     21  C   UNL     1      44.624   4.365  11.566  0.00  0.00    +0.000 A 
ATOM     22  C   UNL     1      44.182   5.620  11.180  0.00  0.00    +0.000 A 
ATOM     23  N   UNL     1      44.660   6.784  11.675  0.00  0.00    +0.000 NA
BRANCH  21  24
ATOM     24  C   UNL     1      44.078   3.107  11.006  0.00  0.00    +0.000 C 
ATOM     25  N   UNL     1      44.829   2.399  10.107  0.00  0.00    +0.000 N 
ATOM     26  O   UNL     1      42.969   2.699  11.333  0.00  0.00    +0.000 OA
ATOM     27  H   UNL     1      45.743   2.645   9.763  0.00  0.00    +0.000 HD
ATOM     28  H   UNL     1      44.415   1.548   9.746  0.00  0.00    +0.000 HD
ENDBRANCH  21  24
ENDBRANCH  17  18
ENDBRANCH  16  17
ENDBRANCH   1  16
TORSDOF 7
ENDMDL
MODEL 9
REMARK VINA RESULT:    -6.020      3.482      6.122
REMARK INTER + INTRA:          -9.621
REMARK INTER:                  -8.419
REMARK INTRA:                  -1.202
REMARK UNBOUND:                -1.137
REMARK  Name = 
REMARK  9 active torsions:
REMARK  status: ('A' for Active; 'I' for Inactive)
REMARK    1  A    between atoms: C_1  and  C_2
REMARK    2  A    between atoms: C_4  and  O_5
REMARK    3  A    between atoms: O_5  and  C_6
REMARK    4  A    between atoms: C_11  and  C_12
REMARK    5  A    between atoms: C_12  and  C_13
REMARK    6  A    between atoms: C_12  and  C_14
REMARK    7  A    between atoms: C_14  and  O_15
REMARK    8  A    between atoms: O_15  and  C_16
REMARK    9  A    between atoms: C_19  and  C_20
REMARK                            x       y       z     vdW  Elec       q    Type
REMARK                         _______ _______ _______ _____ _____    ______ ____
ROOT
ATOM      1  C   UNL     1      48.560   4.059  16.724  0.00  0.00    +0.000 C 
ATOM      2  C   UNL     1      48.723   3.309  18.052  0.00  0.00    +0.000 C 
ENDROOT
BRANCH   1   8
ATOM      3  C   UNL     1      47.775   8.016  19.752  0.00  0.00    +0.000 C 
ATOM      4  C   UNL     1      48.187   7.485  18.409  0.00  0.00    +0.000 A 
ATOM      5  C   UNL     1      48.521   8.356  17.362  0.00  0.00    +0.000 A 
ATOM      6  C   UNL     1      48.884   7.843  16.119  0.00  0.00    +0.000 A 
ATOM      7  C   UNL     1      48.931   6.459  15.923  0.00  0.00    +0.000 A 
ATOM      8  C   UNL     1      48.582   5.566  16.949  0.00  0.00    +0.000 A 
ATOM      9  C   UNL     1      48.220   6.097  18.194  0.00  0.00    +0.000 A 
BRANCH   6  10
ATOM     10  O   UNL     1      49.243   8.602  15.032  0.00  0.00    +0.000 OA
BRANCH  10  11
ATOM     11  C   UNL     1      49.299   7.978  13.727  0.00  0.00    +0.000 C 
ATOM     12  C   UNL     1      50.409   8.423  12.751  0.00  0.00    +0.000 C 
ATOM     13  N   UNL     1      49.411   8.538  11.669  0.00  0.00    +0.000 NA
ATOM     14  C   UNL     1      48.336   8.581  12.679  0.00  0.00    +0.000 C 
ATOM     15  H   UNL     1      49.366   7.723  11.058  0.00  0.00    +0.000 HD
ENDBRANCH  10  11
ENDBRANCH   6  10
ENDBRANCH   1   8
BRANCH   1  16
ATOM     16  C   UNL     1      47.294   3.612  15.972  0.00  0.00    +0.000 C 
BRANCH  16  17
ATOM     17  O   UNL     1      47.594   3.357  14.588  0.00  0.00    +0.000 OA
BRANCH  17  18
ATOM     18  C   UNL     1      46.653   3.908  13.740  0.00  0.00    +0.000 A 
ATOM     19  C   UNL     1      46.520   5.286  13.733  0.00  0.00    +0.000 A 
ATOM     20  C   UNL     1      45.575   5.859  12.875  0.00  0.00    +0.000 A 
ATOM     21  C   UNL     1      44.797   5.037  12.051  0.00  0.00    +0.000 A 
ATOM     22  C   UNL     1      45.009   3.671  12.141  0.00  0.00    +0.000 A 
ATOM     23  N   UNL     1      45.913   3.091  12.962  0.00  0.00    +0.000 NA
BRANCH  21  24
ATOM     24  C   UNL     1      43.798   5.642  11.138  0.00  0.00    +0.000 C 
ATOM     25  N   UNL     1      43.495   6.969  11.271  0.00  0.00    +0.000 N 
ATOM     26  O   UNL     1      43.243   4.971  10.275  0.00  0.00    +0.000 OA
ATOM     27  H   UNL     1      43.880   7.609  11.947  0.00  0.00    +0.000 HD
ATOM     28  H   UNL     1      42.804   7.340  10.630  0.00  0.00    +0.000 HD
ENDBRANCH  21  24
ENDBRANCH  17  18
ENDBRANCH  16  17
ENDBRANCH   1  16
TORSDOF 7
ENDMDL
