MODEL 1
REMARK VINA RESULT:    -8.577      0.000      0.000
REMARK INTER + INTRA:         -12.366
REMARK INTER:                 -11.585
REMARK INTRA:                  -0.781
REMARK UNBOUND:                -0.781
REMARK  Name = 
REMARK  6 active torsions:
REMARK  status: ('A' for Active; 'I' for Inactive)
REMARK    1  A    between atoms: C_2  and  C_4
REMARK    2  A    between atoms: N_8  and  C_9
REMARK    3  A    between atoms: C_9  and  C_10
REMARK    4  A    between atoms: C_10  and  C_11
REMARK    5  A    between atoms: C_15  and  C_16
REMARK    6  A    between atoms: C_16  and  C_17
REMARK                            x       y       z     vdW  Elec       q    Type
REMARK                         _______ _______ _______ _____ _____    ______ ____
ROOT
ATOM      1  C   UNL     1      46.435   2.505   7.751  0.00  0.00    +0.000 A 
ATOM      2  C   UNL     1      45.593   1.889   8.670  0.00  0.00    +0.000 A 
ATOM      3  C   UNL     1      44.683   2.670   9.380  0.00  0.00    +0.000 A 
ATOM      4  C   UNL     1      44.644   4.046   9.182  0.00  0.00    +0.000 A 
ATOM      5  N   UNL     1      43.699   4.869   9.777  0.00  0.00    +0.000 N 
ATOM      6  N   UNL     1      45.491   4.658   8.329  0.00  0.00    +0.000 NA
ATOM      7  C   UNL     1      46.369   3.883   7.636  0.00  0.00    +0.000 A 
ATOM      8  H   UNL     1      43.985   5.829   9.612  0.00  0.00    +0.000 HD
ENDROOT
BRANCH   1  10
ATOM      9  N   UNL     1      48.493   2.388   6.480  0.00  0.00    +0.000 N 
ATOM     10  C   UNL     1      47.364   1.740   6.896  0.00  0.00    +0.000 C 
ATOM     11  O   UNL     1      47.158   0.568   6.615  0.00  0.00    +0.000 OA
ATOM     12  H   UNL     1      49.184   1.825   5.996  0.00  0.00    +0.000 HD
ATOM     13  H   UNL     1      48.811   3.250   6.898  0.00  0.00    +0.000 HD
ENDBRANCH   1  10
BRANCH   5  14
ATOM     14  C   UNL     1      43.241   4.539  11.117  0.00  0.00    +0.000 C 
BRANCH  14  15
ATOM     15  C   UNL     1      43.479   5.700  12.086  0.00  0.00    +0.000 C 
BRANCH  15  16
ATOM     16  C   UNL     1      44.934   5.737  12.492  0.00  0.00    +0.000 A 
ATOM     17  C   UNL     1      45.767   6.773  12.057  0.00  0.00    +0.000 A 
ATOM     18  C   UNL     1      47.090   6.842  12.491  0.00  0.00    +0.000 A 
ATOM     19  C   UNL     1      47.588   5.882  13.375  0.00  0.00    +0.000 A 
ATOM     20  C   UNL     1      46.769   4.840  13.830  0.00  0.00    +0.000 A 
ATOM     21  C   UNL     1      45.444   4.776  13.381  0.00  0.00    +0.000 A 
BRANCH  20  22
ATOM     22  C   UNL     1      47.302   3.805  14.796  0.00  0.00    +0.000 C 
BRANCH  22  23
ATOM     23  C   UNL     1      47.282   4.328  16.225  0.00  0.00    +0.000 C 
ATOM     24  C   UNL     1      48.604   4.763  16.874  0.00  0.00    +0.000 C 
ATOM     25  O   UNL     1      48.466   3.786  17.931  0.00  0.00    +0.000 OA
ATOM     26  C   UNL     1      47.277   3.243  17.315  0.00  0.00    +0.000 C 
ENDBRANCH  22  23
ENDBRANCH  20  22
ENDBRANCH  15  16
ENDBRANCH  14  15
ENDBRANCH   5  14
TORSDOF 6
ENDMDL
MODEL 2
REMARK VINA RESULT:    -8.241      2.194      3.456
REMARK INTER + INTRA:         -11.913
REMARK INTER:                 -11.049
REMARK INTRA:                  -0.864
REMARK UNBOUND:                -0.781
REMARK  Name = 
REMARK  6 active torsions:
REMARK  status: ('A' for Active; 'I' for Inactive)
REMARK    1  A    between atoms: C_2  and  C_4
REMARK    2  A    between atoms: N_8  and  C_9
REMARK    3  A    between atoms: C_9  and  C_10
REMARK    4  A    between atoms: C_10  and  C_11
REMARK    5  A    between atoms: C_15  and  C_16
REMARK    6  A    between atoms: C_16  and  C_17
REMARK                            x       y       z     vdW  Elec       q    Type
REMARK                         _______ _______ _______ _____ _____    ______ ____
ROOT
ATOM      1  C   UNL     1      46.462   2.481   7.766  0.00  0.00    +0.000 A 
ATOM      2  C   UNL     1      45.608   1.890   8.691  0.00  0.00    +0.000 A 
ATOM      3  C   UNL     1      44.697   2.692   9.375  0.00  0.00    +0.000 A 
ATOM      4  C   UNL     1      44.669   4.064   9.147  0.00  0.00    +0.000 A 
ATOM      5  N   UNL     1      43.723   4.906   9.715  0.00  0.00    +0.000 N 
ATOM      6  N   UNL     1      45.528   4.653   8.289  0.00  0.00    +0.000 NA
ATOM      7  C   UNL     1      46.407   3.857   7.621  0.00  0.00    +0.000 A 
ATOM      8  H   UNL     1      44.018   5.861   9.532  0.00  0.00    +0.000 HD
ENDROOT
BRANCH   1  10
ATOM      9  N   UNL     1      48.488   2.349   6.445  0.00  0.00    +0.000 N 
ATOM     10  C   UNL     1      47.394   1.693   6.937  0.00  0.00    +0.000 C 
ATOM     11  O   UNL     1      47.223   0.497   6.741  0.00  0.00    +0.000 OA
ATOM     12  H   UNL     1      49.185   1.777   5.979  0.00  0.00    +0.000 HD
ATOM     13  H   UNL     1      48.787   3.246   6.796  0.00  0.00    +0.000 HD
ENDBRANCH   1  10
BRANCH   5  14
ATOM     14  C   UNL     1      43.251   4.608  11.058  0.00  0.00    +0.000 C 
BRANCH  14  15
ATOM     15  C   UNL     1      43.502   5.782  12.008  0.00  0.00    +0.000 C 
BRANCH  15  16
ATOM     16  C   UNL     1      44.939   5.764  12.473  0.00  0.00    +0.000 A 
ATOM     17  C   UNL     1      45.383   4.789  13.372  0.00  0.00    +0.000 A 
ATOM     18  C   UNL     1      46.725   4.732  13.744  0.00  0.00    +0.000 A 
ATOM     19  C   UNL     1      47.639   5.643  13.209  0.00  0.00    +0.000 A 
ATOM     20  C   UNL     1      47.218   6.624  12.301  0.00  0.00    +0.000 A 
ATOM     21  C   UNL     1      45.865   6.676  11.941  0.00  0.00    +0.000 A 
BRANCH  20  22
ATOM     22  C   UNL     1      48.206   7.606  11.711  0.00  0.00    +0.000 C 
BRANCH  22  23
ATOM     23  C   UNL     1      47.830   9.039  12.059  0.00  0.00    +0.000 C 
ATOM     24  C   UNL     1      48.703  10.185  11.528  0.00  0.00    +0.000 C 
ATOM     25  O   UNL     1      49.009  10.640  12.866  0.00  0.00    +0.000 OA
ATOM     26  C   UNL     1      48.302   9.518  13.441  0.00  0.00    +0.000 C 
ENDBRANCH  22  23
ENDBRANCH  20  22
ENDBRANCH  15  16
ENDBRANCH  14  15
ENDBRANCH   5  14
TORSDOF 6
ENDMDL
MODEL 3
REMARK VINA RESULT:    -7.613      1.760      2.290
REMARK INTER + INTRA:         -11.064
REMARK INTER:                 -10.098
REMARK INTRA:                  -0.967
REMARK UNBOUND:                -0.781
REMARK  Name = 
REMARK  6 active torsions:
REMARK  status: ('A' for Active; 'I' for Inactive)
REMARK    1  A    between atoms: C_2  and  C_4
REMARK    2  A    between atoms: N_8  and  C_9
REMARK    3  A    between atoms: C_9  and  C_10
REMARK    4  A    between atoms: C_10  and  C_11
REMARK    5  A    between atoms: C_15  and  C_16
REMARK    6  A    between atoms: C_16  and  C_17
REMARK                            x       y       z     vdW  Elec       q    Type
REMARK                         _______ _______ _______ _____ _____    ______ ____
ROOT
ATOM      1  C   UNL     1      46.625   2.484   7.237  0.00  0.00    +0.000 A 
ATOM      2  C   UNL     1      46.179   3.708   7.725  0.00  0.00    +0.000 A 
ATOM      3  C   UNL     1      45.393   3.729   8.876  0.00  0.00    +0.000 A 
ATOM      4  C   UNL     1      45.045   2.538   9.503  0.00  0.00    +0.000 A 
ATOM      5  N   UNL     1      44.354   2.490  10.705  0.00  0.00    +0.000 N 
ATOM      6  N   UNL     1      45.432   1.343   9.009  0.00  0.00    +0.000 NA
ATOM      7  C   UNL     1      46.206   1.336   7.890  0.00  0.00    +0.000 A 
ATOM      8  H   UNL     1      44.081   1.523  10.860  0.00  0.00    +0.000 HD
ENDROOT
BRANCH   1  10
ATOM      9  N   UNL     1      47.342   3.278   5.065  0.00  0.00    +0.000 N 
ATOM     10  C   UNL     1      47.531   2.380   6.078  0.00  0.00    +0.000 C 
ATOM     11  O   UNL     1      48.441   1.562   6.047  0.00  0.00    +0.000 OA
ATOM     12  H   UNL     1      48.040   3.281   4.329  0.00  0.00    +0.000 HD
ATOM     13  H   UNL     1      46.783   4.111   5.173  0.00  0.00    +0.000 HD
ENDBRANCH   1  10
BRANCH   5  14
ATOM     14  C   UNL     1      43.349   3.508  10.965  0.00  0.00    +0.000 C 
BRANCH  14  15
ATOM     15  C   UNL     1      43.597   4.204  12.305  0.00  0.00    +0.000 C 
BRANCH  15  16
ATOM     16  C   UNL     1      44.551   5.360  12.112  0.00  0.00    +0.000 A 
ATOM     17  C   UNL     1      44.105   6.563  11.555  0.00  0.00    +0.000 A 
ATOM     18  C   UNL     1      44.970   7.651  11.443  0.00  0.00    +0.000 A 
ATOM     19  C   UNL     1      46.286   7.548  11.901  0.00  0.00    +0.000 A 
ATOM     20  C   UNL     1      46.752   6.355  12.469  0.00  0.00    +0.000 A 
ATOM     21  C   UNL     1      45.876   5.267  12.569  0.00  0.00    +0.000 A 
BRANCH  20  22
ATOM     22  C   UNL     1      48.173   6.244  12.976  0.00  0.00    +0.000 C 
BRANCH  22  23
ATOM     23  C   UNL     1      48.300   6.816  14.380  0.00  0.00    +0.000 C 
ATOM     24  C   UNL     1      49.695   7.176  14.910  0.00  0.00    +0.000 C 
ATOM     25  O   UNL     1      49.572   6.250  16.013  0.00  0.00    +0.000 OA
ATOM     26  C   UNL     1      48.304   5.773  15.510  0.00  0.00    +0.000 C 
ENDBRANCH  22  23
ENDBRANCH  20  22
ENDBRANCH  15  16
ENDBRANCH  14  15
ENDBRANCH   5  14
TORSDOF 6
ENDMDL
MODEL 4
REMARK VINA RESULT:    -7.389      2.942      4.418
REMARK INTER + INTRA:         -10.762
REMARK INTER:                 -10.076
REMARK INTRA:                  -0.685
REMARK UNBOUND:                -0.781
REMARK  Name = 
REMARK  6 active torsions:
REMARK  status: ('A' for Active; 'I' for Inactive)
REMARK    1  A    between atoms: C_2  and  C_4
REMARK    2  A    between atoms: N_8  and  C_9
REMARK    3  A    between atoms: C_9  and  C_10
REMARK    4  A    between atoms: C_10  and  C_11
REMARK    5  A    between atoms: C_15  and  C_16
REMARK    6  A    between atoms: C_16  and  C_17
REMARK                            x       y       z     vdW  Elec       q    Type
REMARK                         _______ _______ _______ _____ _____    ______ ____
ROOT
ATOM      1  C   UNL     1      46.155   2.811   7.844  0.00  0.00    +0.000 A 
ATOM      2  C   UNL     1      45.928   4.095   8.326  0.00  0.00    +0.000 A 
ATOM      3  C   UNL     1      45.086   4.263   9.424  0.00  0.00    +0.000 A 
ATOM      4  C   UNL     1      44.469   3.160  10.004  0.00  0.00    +0.000 A 
ATOM      5  N   UNL     1      43.702   3.241  11.157  0.00  0.00    +0.000 N 
ATOM      6  N   UNL     1      44.644   1.916   9.511  0.00  0.00    +0.000 NA
ATOM      7  C   UNL     1      45.475   1.764   8.444  0.00  0.00    +0.000 A 
ATOM      8  H   UNL     1      43.234   2.347  11.275  0.00  0.00    +0.000 HD
ENDROOT
BRANCH   1  10
ATOM      9  N   UNL     1      47.104   3.422   5.701  0.00  0.00    +0.000 N 
ATOM     10  C   UNL     1      47.099   2.537   6.743  0.00  0.00    +0.000 C 
ATOM     11  O   UNL     1      47.875   1.592   6.784  0.00  0.00    +0.000 OA
ATOM     12  H   UNL     1      47.835   3.298   5.008  0.00  0.00    +0.000 HD
ATOM     13  H   UNL     1      46.672   4.332   5.758  0.00  0.00    +0.000 HD
ENDBRANCH   1  10
BRANCH   5  14
ATOM     14  C   UNL     1      42.903   4.437  11.373  0.00  0.00    +0.000 C 
BRANCH  14  15
ATOM     15  C   UNL     1      43.110   4.997  12.782  0.00  0.00    +0.000 C 
BRANCH  15  16
ATOM     16  C   UNL     1      44.500   5.577  12.903  0.00  0.00    +0.000 A 
ATOM     17  C   UNL     1      45.565   4.785  13.343  0.00  0.00    +0.000 A 
ATOM     18  C   UNL     1      46.859   5.304  13.385  0.00  0.00    +0.000 A 
ATOM     19  C   UNL     1      47.100   6.616  12.973  0.00  0.00    +0.000 A 
ATOM     20  C   UNL     1      46.049   7.426  12.522  0.00  0.00    +0.000 A 
ATOM     21  C   UNL     1      44.753   6.897  12.491  0.00  0.00    +0.000 A 
BRANCH  20  22
ATOM     22  C   UNL     1      46.308   8.845  12.064  0.00  0.00    +0.000 C 
BRANCH  22  23
ATOM     23  C   UNL     1      45.025   9.662  12.062  0.00  0.00    +0.000 C 
ATOM     24  C   UNL     1      44.145   9.659  10.803  0.00  0.00    +0.000 C 
ATOM     25  O   UNL     1      44.277  11.090  10.645  0.00  0.00    +0.000 OA
ATOM     26  C   UNL     1      45.206  11.157  11.749  0.00  0.00    +0.000 C 
ENDBRANCH  22  23
ENDBRANCH  20  22
ENDBRANCH  15  16
ENDBRANCH  14  15
ENDBRANCH   5  14
TORSDOF 6
ENDMDL
MODEL 5
REMARK VINA RESULT:    -7.354      3.052      7.983
REMARK INTER + INTRA:         -10.715
REMARK INTER:                 -10.032
REMARK INTRA:                  -0.683
REMARK UNBOUND:                -0.781
REMARK  Name = 
REMARK  6 active torsions:
REMARK  status: ('A' for Active; 'I' for Inactive)
REMARK    1  A    between atoms: C_2  and  C_4
REMARK    2  A    between atoms: N_8  and  C_9
REMARK    3  A    between atoms: C_9  and  C_10
REMARK    4  A    between atoms: C_10  and  C_11
REMARK    5  A    between atoms: C_15  and  C_16
REMARK    6  A    between atoms: C_16  and  C_17
REMARK                            x       y       z     vdW  Elec       q    Type
REMARK                         _______ _______ _______ _____ _____    ______ ____
ROOT
ATOM      1  C   UNL     1      48.361   4.193  16.679  0.00  0.00    +0.000 A 
ATOM      2  C   UNL     1      47.345   3.687  15.875  0.00  0.00    +0.000 A 
ATOM      3  C   UNL     1      46.929   4.426  14.770  0.00  0.00    +0.000 A 
ATOM      4  C   UNL     1      47.509   5.660  14.499  0.00  0.00    +0.000 A 
ATOM      5  N   UNL     1      47.217   6.401  13.363  0.00  0.00    +0.000 N 
ATOM      6  N   UNL     1      48.461   6.182  15.301  0.00  0.00    +0.000 NA
ATOM      7  C   UNL     1      48.864   5.446  16.373  0.00  0.00    +0.000 A 
ATOM      8  H   UNL     1      47.634   7.320  13.483  0.00  0.00    +0.000 HD
ENDROOT
BRANCH   1  10
ATOM      9  N   UNL     1      48.081   3.193  18.867  0.00  0.00    +0.000 N 
ATOM     10  C   UNL     1      48.920   3.435  17.815  0.00  0.00    +0.000 C 
ATOM     11  O   UNL     1      50.063   3.001  17.795  0.00  0.00    +0.000 OA
ATOM     12  H   UNL     1      48.431   2.571  19.588  0.00  0.00    +0.000 HD
ATOM     13  H   UNL     1      47.081   3.310  18.803  0.00  0.00    +0.000 HD
ENDBRANCH   1  10
BRANCH   5  14
ATOM     14  C   UNL     1      45.861   6.356  12.839  0.00  0.00    +0.000 C 
BRANCH  14  15
ATOM     15  C   UNL     1      45.851   6.483  11.314  0.00  0.00    +0.000 C 
BRANCH  15  16
ATOM     16  C   UNL     1      45.386   5.184  10.696  0.00  0.00    +0.000 A 
ATOM     17  C   UNL     1      44.560   4.312  11.413  0.00  0.00    +0.000 A 
ATOM     18  C   UNL     1      44.076   3.149  10.815  0.00  0.00    +0.000 A 
ATOM     19  C   UNL     1      44.402   2.857   9.489  0.00  0.00    +0.000 A 
ATOM     20  C   UNL     1      45.222   3.719   8.749  0.00  0.00    +0.000 A 
ATOM     21  C   UNL     1      45.709   4.880   9.363  0.00  0.00    +0.000 A 
BRANCH  20  22
ATOM     22  C   UNL     1      45.568   3.411   7.309  0.00  0.00    +0.000 C 
BRANCH  22  23
ATOM     23  C   UNL     1      47.005   2.925   7.183  0.00  0.00    +0.000 C 
ATOM     24  C   UNL     1      47.554   2.590   5.790  0.00  0.00    +0.000 C 
ATOM     25  O   UNL     1      47.822   1.220   6.168  0.00  0.00    +0.000 OA
ATOM     26  C   UNL     1      47.211   1.427   7.461  0.00  0.00    +0.000 C 
ENDBRANCH  22  23
ENDBRANCH  20  22
ENDBRANCH  15  16
ENDBRANCH  14  15
ENDBRANCH   5  14
TORSDOF 6
ENDMDL
MODEL 6
REMARK VINA RESULT:    -6.759      3.121      7.426
REMARK INTER + INTRA:          -9.911
REMARK INTER:                  -9.293
REMARK INTRA:                  -0.618
REMARK UNBOUND:                -0.781
REMARK  Name = 
REMARK  6 active torsions:
REMARK  status: ('A' for Active; 'I' for Inactive)
REMARK    1  A    between atoms: C_2  and  C_4
REMARK    2  A    between atoms: N_8  and  C_9
REMARK    3  A    between atoms: C_9  and  C_10
REMARK    4  A    between atoms: C_10  and  C_11
REMARK    5  A    between atoms: C_15  and  C_16
REMARK    6  A    between atoms: C_16  and  C_17
REMARK                            x       y       z     vdW  Elec       q    Type
REMARK                         _______ _______ _______ _____ _____    ______ ____
ROOT
ATOM      1  C   UNL     1      48.800   7.624  13.034  0.00  0.00    +0.000 A 
ATOM      2  C   UNL     1      48.022   8.369  12.155  0.00  0.00    +0.000 A 
ATOM      3  C   UNL     1      46.688   8.014  11.967  0.00  0.00    +0.000 A 
ATOM      4  C   UNL     1      46.160   6.914  12.635  0.00  0.00    +0.000 A 
ATOM      5  N   UNL     1      44.818   6.565  12.575  0.00  0.00    +0.000 N 
ATOM      6  N   UNL     1      46.920   6.155  13.452  0.00  0.00    +0.000 NA
ATOM      7  C   UNL     1      48.219   6.517  13.632  0.00  0.00    +0.000 A 
ATOM      8  H   UNL     1      44.724   5.647  13.000  0.00  0.00    +0.000 HD
ENDROOT
BRANCH   1  10
ATOM      9  N   UNL     1      51.138   7.703  12.408  0.00  0.00    +0.000 N 
ATOM     10  C   UNL     1      50.193   7.985  13.355  0.00  0.00    +0.000 C 
ATOM     11  O   UNL     1      50.483   8.555  14.398  0.00  0.00    +0.000 OA
ATOM     12  H   UNL     1      52.071   8.061  12.581  0.00  0.00    +0.000 HD
ATOM     13  H   UNL     1      50.900   7.476  11.454  0.00  0.00    +0.000 HD
ENDBRANCH   1  10
BRANCH   5  14
ATOM     14  C   UNL     1      44.101   6.791  11.330  0.00  0.00    +0.000 C 
BRANCH  14  15
ATOM     15  C   UNL     1      43.124   5.650  11.037  0.00  0.00    +0.000 C 
BRANCH  15  16
ATOM     16  C   UNL     1      43.867   4.487  10.421  0.00  0.00    +0.000 A 
ATOM     17  C   UNL     1      43.634   3.180  10.863  0.00  0.00    +0.000 A 
ATOM     18  C   UNL     1      44.268   2.104  10.245  0.00  0.00    +0.000 A 
ATOM     19  C   UNL     1      45.131   2.324   9.169  0.00  0.00    +0.000 A 
ATOM     20  C   UNL     1      45.374   3.624   8.705  0.00  0.00    +0.000 A 
ATOM     21  C   UNL     1      44.738   4.698   9.339  0.00  0.00    +0.000 A 
BRANCH  20  22
ATOM     22  C   UNL     1      46.300   3.865   7.533  0.00  0.00    +0.000 C 
BRANCH  22  23
ATOM     23  C   UNL     1      46.524   2.587   6.739  0.00  0.00    +0.000 C 
ATOM     24  C   UNL     1      47.785   1.755   7.013  0.00  0.00    +0.000 C 
ATOM     25  O   UNL     1      48.239   1.899   5.648  0.00  0.00    +0.000 OA
ATOM     26  C   UNL     1      47.141   2.787   5.345  0.00  0.00    +0.000 C 
ENDBRANCH  22  23
ENDBRANCH  20  22
ENDBRANCH  15  16
ENDBRANCH  14  15
ENDBRANCH   5  14
TORSDOF 6
ENDMDL
MODEL 7
REMARK VINA RESULT:    -6.474      2.893      4.047
REMARK INTER + INTRA:          -9.526
REMARK INTER:                  -8.342
REMARK INTRA:                  -1.184
REMARK UNBOUND:                -0.781
REMARK  Name = 
REMARK  6 active torsions:
REMARK  status: ('A' for Active; 'I' for Inactive)
REMARK    1  A    between atoms: C_2  and  C_4
REMARK    2  A    between atoms: N_8  and  C_9
REMARK    3  A    between atoms: C_9  and  C_10
REMARK    4  A    between atoms: C_10  and  C_11
REMARK    5  A    between atoms: C_15  and  C_16
REMARK    6  A    between atoms: C_16  and  C_17
REMARK                            x       y       z     vdW  Elec       q    Type
REMARK                         _______ _______ _______ _____ _____    ______ ____
ROOT
ATOM      1  C   UNL     1      43.979   4.301  10.954  0.00  0.00    +0.000 A 
ATOM      2  C   UNL     1      45.205   4.947  10.841  0.00  0.00    +0.000 A 
ATOM      3  C   UNL     1      45.273   6.315  11.096  0.00  0.00    +0.000 A 
ATOM      4  C   UNL     1      44.122   7.018  11.434  0.00  0.00    +0.000 A 
ATOM      5  N   UNL     1      44.132   8.357  11.800  0.00  0.00    +0.000 N 
ATOM      6  N   UNL     1      42.919   6.410  11.498  0.00  0.00    +0.000 NA
ATOM      7  C   UNL     1      42.867   5.072  11.254  0.00  0.00    +0.000 A 
ATOM      8  H   UNL     1      43.167   8.671  11.831  0.00  0.00    +0.000 HD
ENDROOT
BRANCH   1  10
ATOM      9  N   UNL     1      44.668   2.241   9.884  0.00  0.00    +0.000 N 
ATOM     10  C   UNL     1      43.837   2.843  10.787  0.00  0.00    +0.000 C 
ATOM     11  O   UNL     1      43.047   2.194  11.461  0.00  0.00    +0.000 OA
ATOM     12  H   UNL     1      44.651   1.227   9.860  0.00  0.00    +0.000 HD
ATOM     13  H   UNL     1      45.487   2.698   9.512  0.00  0.00    +0.000 HD
ENDBRANCH   1  10
BRANCH   5  14
ATOM     14  C   UNL     1      45.092   9.240  11.158  0.00  0.00    +0.000 C 
BRANCH  14  15
ATOM     15  C   UNL     1      46.072   9.829  12.176  0.00  0.00    +0.000 C 
BRANCH  15  16
ATOM     16  C   UNL     1      47.223   8.872  12.389  0.00  0.00    +0.000 A 
ATOM     17  C   UNL     1      48.316   8.870  11.517  0.00  0.00    +0.000 A 
ATOM     18  C   UNL     1      49.407   8.036  11.759  0.00  0.00    +0.000 A 
ATOM     19  C   UNL     1      49.420   7.207  12.882  0.00  0.00    +0.000 A 
ATOM     20  C   UNL     1      48.338   7.198  13.773  0.00  0.00    +0.000 A 
ATOM     21  C   UNL     1      47.244   8.034  13.517  0.00  0.00    +0.000 A 
BRANCH  20  22
ATOM     22  C   UNL     1      48.353   6.310  14.998  0.00  0.00    +0.000 C 
BRANCH  22  23
ATOM     23  C   UNL     1      47.240   5.273  14.936  0.00  0.00    +0.000 C 
ATOM     24  C   UNL     1      47.404   3.963  15.719  0.00  0.00    +0.000 C 
ATOM     25  O   UNL     1      47.308   3.170  14.514  0.00  0.00    +0.000 OA
ATOM     26  C   UNL     1      47.269   4.362  13.698  0.00  0.00    +0.000 C 
ENDBRANCH  22  23
ENDBRANCH  20  22
ENDBRANCH  15  16
ENDBRANCH  14  15
ENDBRANCH   5  14
TORSDOF 6
ENDMDL
MODEL 8
REMARK VINA RESULT:    -6.290      3.933      7.565
REMARK INTER + INTRA:          -9.277
REMARK INTER:                  -8.435
REMARK INTRA:                  -0.843
REMARK UNBOUND:                -0.781
REMARK  Name = 
REMARK  6 active torsions:
REMARK  status: ('A' for Active; 'I' for Inactive)
REMARK    1  A    between atoms: C_2  and  C_4
REMARK    2  A    between atoms: N_8  and  C_9
REMARK    3  A    between atoms: C_9  and  C_10
REMARK    4  A    between atoms: C_10  and  C_11
REMARK    5  A    between atoms: C_15  and  C_16
REMARK    6  A    between atoms: C_16  and  C_17
REMARK                            x       y       z     vdW  Elec       q    Type
REMARK                         _______ _______ _______ _____ _____    ______ ____
ROOT
ATOM      1  C   UNL     1      48.149   4.479  16.903  0.00  0.00    +0.000 A 
ATOM      2  C   UNL     1      47.436   4.969  15.814  0.00  0.00    +0.000 A 
ATOM      3  C   UNL     1      48.028   5.933  14.999  0.00  0.00    +0.000 A 
ATOM      4  C   UNL     1      49.301   6.407  15.295  0.00  0.00    +0.000 A 
ATOM      5  N   UNL     1      49.990   7.288  14.473  0.00  0.00    +0.000 N 
ATOM      6  N   UNL     1      49.980   5.974  16.378  0.00  0.00    +0.000 NA
ATOM      7  C   UNL     1      49.394   5.027  17.160  0.00  0.00    +0.000 A 
ATOM      8  H   UNL     1      50.807   7.606  14.986  0.00  0.00    +0.000 HD
ENDROOT
BRANCH   1  10
ATOM      9  N   UNL     1      48.329   3.131  18.907  0.00  0.00    +0.000 N 
ATOM     10  C   UNL     1      47.631   3.397  17.762  0.00  0.00    +0.000 C 
ATOM     11  O   UNL     1      46.599   2.800  17.489  0.00  0.00    +0.000 OA
ATOM     12  H   UNL     1      47.905   2.473  19.552  0.00  0.00    +0.000 HD
ATOM     13  H   UNL     1      49.019   3.765  19.282  0.00  0.00    +0.000 HD
ENDBRANCH   1  10
BRANCH   5  14
ATOM     14  C   UNL     1      49.230   8.297  13.752  0.00  0.00    +0.000 C 
BRANCH  14  15
ATOM     15  C   UNL     1      48.953   7.859  12.312  0.00  0.00    +0.000 C 
BRANCH  15  16
ATOM     16  C   UNL     1      47.463   7.716  12.099  0.00  0.00    +0.000 A 
ATOM     17  C   UNL     1      46.585   8.717  12.527  0.00  0.00    +0.000 A 
ATOM     18  C   UNL     1      45.220   8.615  12.266  0.00  0.00    +0.000 A 
ATOM     19  C   UNL     1      44.722   7.516  11.562  0.00  0.00    +0.000 A 
ATOM     20  C   UNL     1      45.584   6.505  11.117  0.00  0.00    +0.000 A 
ATOM     21  C   UNL     1      46.953   6.614  11.392  0.00  0.00    +0.000 A 
BRANCH  20  22
ATOM     22  C   UNL     1      45.051   5.319  10.344  0.00  0.00    +0.000 C 
BRANCH  22  23
ATOM     23  C   UNL     1      44.717   4.163  11.276  0.00  0.00    +0.000 C 
ATOM     24  C   UNL     1      44.316   2.811  10.667  0.00  0.00    +0.000 C 
ATOM     25  O   UNL     1      43.026   2.842  11.318  0.00  0.00    +0.000 OA
ATOM     26  C   UNL     1      43.283   4.168  11.831  0.00  0.00    +0.000 C 
ENDBRANCH  22  23
ENDBRANCH  20  22
ENDBRANCH  15  16
ENDBRANCH  14  15
ENDBRANCH   5  14
TORSDOF 6
ENDMDL
MODEL 9
REMARK VINA RESULT:    -6.166      3.185      5.094
REMARK INTER + INTRA:          -9.111
REMARK INTER:                  -7.888
REMARK INTRA:                  -1.223
REMARK UNBOUND:                -0.781
REMARK  Name = 
REMARK  6 active torsions:
REMARK  status: ('A' for Active; 'I' for Inactive)
REMARK    1  A    between atoms: C_2  and  C_4
REMARK    2  A    between atoms: N_8  and  C_9
REMARK    3  A    between atoms: C_9  and  C_10
REMARK    4  A    between atoms: C_10  and  C_11
REMARK    5  A    between atoms: C_15  and  C_16
REMARK    6  A    between atoms: C_16  and  C_17
REMARK                            x       y       z     vdW  Elec       q    Type
REMARK                         _______ _______ _______ _____ _____    ______ ____
ROOT
ATOM      1  C   UNL     1      44.865   4.665  12.242  0.00  0.00    +0.000 A 
ATOM      2  C   UNL     1      45.656   4.854  13.370  0.00  0.00    +0.000 A 
ATOM      3  C   UNL     1      46.732   5.735  13.299  0.00  0.00    +0.000 A 
ATOM      4  C   UNL     1      47.017   6.392  12.107  0.00  0.00    +0.000 A 
ATOM      5  N   UNL     1      48.007   7.357  11.992  0.00  0.00    +0.000 N 
ATOM      6  N   UNL     1      46.285   6.177  10.993  0.00  0.00    +0.000 NA
ATOM      7  C   UNL     1      45.232   5.320  11.078  0.00  0.00    +0.000 A 
ATOM      8  H   UNL     1      48.126   7.554  11.003  0.00  0.00    +0.000 HD
ENDROOT
BRANCH   1  10
ATOM      9  N   UNL     1      42.538   4.328  11.661  0.00  0.00    +0.000 N 
ATOM     10  C   UNL     1      43.657   3.818  12.258  0.00  0.00    +0.000 C 
ATOM     11  O   UNL     1      43.670   2.693  12.738  0.00  0.00    +0.000 OA
ATOM     12  H   UNL     1      41.749   3.697  11.568  0.00  0.00    +0.000 HD
ATOM     13  H   UNL     1      42.567   5.125  11.042  0.00  0.00    +0.000 HD
ENDBRANCH   1  10
BRANCH   5  14
ATOM     14  C   UNL     1      49.217   7.203  12.784  0.00  0.00    +0.000 C 
BRANCH  14  15
ATOM     15  C   UNL     1      49.495   8.453  13.623  0.00  0.00    +0.000 C 
BRANCH  15  16
ATOM     16  C   UNL     1      49.217   8.163  15.079  0.00  0.00    +0.000 A 
ATOM     17  C   UNL     1      48.669   9.148  15.908  0.00  0.00    +0.000 A 
ATOM     18  C   UNL     1      48.348   8.855  17.233  0.00  0.00    +0.000 A 
ATOM     19  C   UNL     1      48.560   7.569  17.736  0.00  0.00    +0.000 A 
ATOM     20  C   UNL     1      49.101   6.565  16.923  0.00  0.00    +0.000 A 
ATOM     21  C   UNL     1      49.427   6.873  15.596  0.00  0.00    +0.000 A 
BRANCH  20  22
ATOM     22  C   UNL     1      49.321   5.169  17.461  0.00  0.00    +0.000 C 
BRANCH  22  23
ATOM     23  C   UNL     1      48.450   4.156  16.732  0.00  0.00    +0.000 C 
ATOM     24  C   UNL     1      46.923   4.288  16.826  0.00  0.00    +0.000 C 
ATOM     25  O   UNL     1      46.796   2.978  17.424  0.00  0.00    +0.000 OA
ATOM     26  C   UNL     1      48.232   2.830  17.478  0.00  0.00    +0.000 C 
ENDBRANCH  22  23
ENDBRANCH  20  22
ENDBRANCH  15  16
ENDBRANCH  14  15
ENDBRANCH   5  14
TORSDOF 6
ENDMDL
