MODEL 1
REMARK VINA RESULT:    -7.355      0.000      0.000
REMARK INTER + INTRA:         -14.326
REMARK INTER:                 -12.084
REMARK INTRA:                  -2.242
REMARK UNBOUND:                -2.242
REMARK  Name = 
REMARK  13 active torsions:
REMARK  status: ('A' for Active; 'I' for Inactive)
REMARK    1  A    between atoms: C_1  and  C_2
REMARK    2  A    between atoms: C_2  and  N_3
REMARK    3  A    between atoms: C_2  and  C_21
REMARK    4  A    between atoms: N_3  and  C_4
REMARK    5  A    between atoms: C_4  and  C_5
REMARK    6  A    between atoms: C_8  and  C_9
REMARK    7  A    between atoms: C_9  and  N_10
REMARK    8  A    between atoms: N_10  and  C_11
REMARK    9  A    between atoms: N_10  and  C_12
REMARK   10  A    between atoms: C_12  and  C_13
REMARK   11  A    between atoms: C_24  and  C_25
REMARK   12  A    between atoms: N_27  and  C_28
REMARK   13  A    between atoms: C_28  and  C_29
REMARK                            x       y       z     vdW  Elec       q    Type
REMARK                         _______ _______ _______ _____ _____    ______ ____
ROOT
ATOM      1  C   UNL     1      48.874   9.907  13.679  0.00  0.00    +0.000 C 
ATOM      2  C   UNL     1      48.335   8.693  14.447  0.00  0.00    +0.000 C 
ENDROOT
BRANCH   2   3
ATOM      3  C   UNL     1      47.680   7.658  13.535  0.00  0.00    +0.000 A 
ATOM      4  C   UNL     1      47.552   6.328  13.986  0.00  0.00    +0.000 A 
ATOM      5  C   UNL     1      46.816   5.387  13.263  0.00  0.00    +0.000 A 
ATOM      6  C   UNL     1      46.249   5.749  12.038  0.00  0.00    +0.000 A 
ATOM      7  C   UNL     1      46.380   7.062  11.574  0.00  0.00    +0.000 A 
ATOM      8  C   UNL     1      47.081   8.010  12.319  0.00  0.00    +0.000 A 
BRANCH   6   9
ATOM      9  C   UNL     1      45.484   4.790  11.204  0.00  0.00    +0.000 C 
ATOM     10  O   UNL     1      44.898   3.853  11.732  0.00  0.00    +0.000 OA
ATOM     11  N   UNL     1      45.442   5.054   9.854  0.00  0.00    +0.000 N 
ATOM     12  H   UNL     1      45.870   5.891   9.483  0.00  0.00    +0.000 HD
BRANCH  11  13
ATOM     13  C   UNL     1      44.660   4.241   8.951  0.00  0.00    +0.000 C 
BRANCH  13  14
ATOM     14  C   UNL     1      45.504   3.197   8.274  0.00  0.00    +0.000 A 
ATOM     15  C   UNL     1      46.249   3.477   7.126  0.00  0.00    +0.000 A 
ATOM     16  C   UNL     1      46.987   2.459   6.518  0.00  0.00    +0.000 A 
ATOM     17  C   UNL     1      46.950   1.196   7.085  0.00  0.00    +0.000 A 
ATOM     18  N   UNL     1      46.241   0.887   8.193  0.00  0.00    +0.000 NA
ATOM     19  C   UNL     1      45.531   1.892   8.755  0.00  0.00    +0.000 A 
ENDBRANCH  13  14
ENDBRANCH  11  13
ENDBRANCH   6   9
ENDBRANCH   2   3
BRANCH   2  20
ATOM     20  N   UNL     1      47.412   9.171  15.496  0.00  0.00    +0.000 NA
ATOM     21  H   UNL     1      47.008   8.372  15.980  0.00  0.00    +0.000 HD
BRANCH  20  22
ATOM     22  C   UNL     1      48.097  10.012  16.479  0.00  0.00    +0.000 C 
BRANCH  22  23
ATOM     23  C   UNL     1      48.484   9.281  17.731  0.00  0.00    +0.000 A 
ATOM     24  C   UNL     1      47.480   8.828  18.603  0.00  0.00    +0.000 A 
ATOM     25  C   UNL     1      47.800   8.018  19.682  0.00  0.00    +0.000 A 
ATOM     26  C   UNL     1      49.132   7.638  19.903  0.00  0.00    +0.000 A 
ATOM     27  C   UNL     1      50.139   8.140  19.068  0.00  0.00    +0.000 A 
ATOM     28  C   UNL     1      49.816   8.961  17.988  0.00  0.00    +0.000 A 
BRANCH  26  29
ATOM     29  C   UNL     1      49.472   6.664  21.007  0.00  0.00    +0.000 C 
BRANCH  29  30
ATOM     30  N   UNL     1      50.001   5.380  20.501  0.00  0.00    +0.000 NA
ATOM     31  C   UNL     1      51.022   4.819  21.390  0.00  0.00    +0.000 C 
BRANCH  30  32
ATOM     32  C   UNL     1      48.894   4.410  20.342  0.00  0.00    +0.000 C 
BRANCH  32  33
ATOM     33  C   UNL     1      48.590   4.095  18.886  0.00  0.00    +0.000 A 
ATOM     34  C   UNL     1      47.531   4.736  18.246  0.00  0.00    +0.000 A 
ATOM     35  C   UNL     1      47.157   4.309  16.974  0.00  0.00    +0.000 A 
ATOM     36  C   UNL     1      47.857   3.270  16.376  0.00  0.00    +0.000 A 
ATOM     37  C   UNL     1      48.914   2.705  17.071  0.00  0.00    +0.000 A 
ATOM     38  N   UNL     1      49.296   3.090  18.305  0.00  0.00    +0.000 NA
ENDBRANCH  32  33
ENDBRANCH  30  32
ENDBRANCH  29  30
ENDBRANCH  26  29
ENDBRANCH  22  23
ENDBRANCH  20  22
ENDBRANCH   2  20
TORSDOF 11
ENDMDL
MODEL 2
REMARK VINA RESULT:    -7.190      2.468      8.168
REMARK INTER + INTRA:         -14.056
REMARK INTER:                 -11.255
REMARK INTRA:                  -2.801
REMARK UNBOUND:                -2.242
REMARK  Name = 
REMARK  13 active torsions:
REMARK  status: ('A' for Active; 'I' for Inactive)
REMARK    1  A    between atoms: C_1  and  C_2
REMARK    2  A    between atoms: C_2  and  N_3
REMARK    3  A    between atoms: C_2  and  C_21
REMARK    4  A    between atoms: N_3  and  C_4
REMARK    5  A    between atoms: C_4  and  C_5
REMARK    6  A    between atoms: C_8  and  C_9
REMARK    7  A    between atoms: C_9  and  N_10
REMARK    8  A    between atoms: N_10  and  C_11
REMARK    9  A    between atoms: N_10  and  C_12
REMARK   10  A    between atoms: C_12  and  C_13
REMARK   11  A    between atoms: C_24  and  C_25
REMARK   12  A    between atoms: N_27  and  C_28
REMARK   13  A    between atoms: C_28  and  C_29
REMARK                            x       y       z     vdW  Elec       q    Type
REMARK                         _______ _______ _______ _____ _____    ______ ____
ROOT
ATOM      1  C   UNL     1      52.162  10.765  12.753  0.00  0.00    +0.000 C 
ATOM      2  C   UNL     1      50.882  10.996  13.568  0.00  0.00    +0.000 C 
ENDROOT
BRANCH   2   3
ATOM      3  C   UNL     1      50.421   9.744  14.313  0.00  0.00    +0.000 A 
ATOM      4  C   UNL     1      49.211   9.783  15.036  0.00  0.00    +0.000 A 
ATOM      5  C   UNL     1      48.665   8.624  15.593  0.00  0.00    +0.000 A 
ATOM      6  C   UNL     1      49.360   7.416  15.489  0.00  0.00    +0.000 A 
ATOM      7  C   UNL     1      50.567   7.369  14.787  0.00  0.00    +0.000 A 
ATOM      8  C   UNL     1      51.090   8.519  14.196  0.00  0.00    +0.000 A 
BRANCH   6   9
ATOM      9  C   UNL     1      48.853   6.157  16.087  0.00  0.00    +0.000 C 
ATOM     10  O   UNL     1      48.115   5.426  15.439  0.00  0.00    +0.000 OA
ATOM     11  N   UNL     1      49.301   5.860  17.355  0.00  0.00    +0.000 N 
ATOM     12  H   UNL     1      49.979   6.456  17.810  0.00  0.00    +0.000 HD
BRANCH  11  13
ATOM     13  C   UNL     1      48.945   4.622  18.009  0.00  0.00    +0.000 C 
BRANCH  13  14
ATOM     14  C   UNL     1      50.013   3.578  17.839  0.00  0.00    +0.000 A 
ATOM     15  C   UNL     1      51.335   3.801  18.231  0.00  0.00    +0.000 A 
ATOM     16  C   UNL     1      52.293   2.807  18.017  0.00  0.00    +0.000 A 
ATOM     17  C   UNL     1      51.890   1.627  17.416  0.00  0.00    +0.000 A 
ATOM     18  N   UNL     1      50.621   1.376  17.023  0.00  0.00    +0.000 NA
ATOM     19  C   UNL     1      49.717   2.359  17.238  0.00  0.00    +0.000 A 
ENDBRANCH  13  14
ENDBRANCH  11  13
ENDBRANCH   6   9
ENDBRANCH   2   3
BRANCH   2  20
ATOM     20  N   UNL     1      49.838  11.520  12.666  0.00  0.00    +0.000 NA
ATOM     21  H   UNL     1      50.101  12.451  12.349  0.00  0.00    +0.000 HD
BRANCH  20  22
ATOM     22  C   UNL     1      49.654  10.665  11.492  0.00  0.00    +0.000 C 
BRANCH  22  23
ATOM     23  C   UNL     1      48.552   9.657  11.649  0.00  0.00    +0.000 A 
ATOM     24  C   UNL     1      48.845   8.290  11.512  0.00  0.00    +0.000 A 
ATOM     25  C   UNL     1      47.883   7.334  11.804  0.00  0.00    +0.000 A 
ATOM     26  C   UNL     1      46.613   7.729  12.247  0.00  0.00    +0.000 A 
ATOM     27  C   UNL     1      46.304   9.094  12.324  0.00  0.00    +0.000 A 
ATOM     28  C   UNL     1      47.270  10.053  12.023  0.00  0.00    +0.000 A 
BRANCH  26  29
ATOM     29  C   UNL     1      45.601   6.693  12.676  0.00  0.00    +0.000 C 
BRANCH  29  30
ATOM     30  N   UNL     1      45.752   5.408  11.960  0.00  0.00    +0.000 NA
ATOM     31  C   UNL     1      45.831   4.273  12.884  0.00  0.00    +0.000 C 
BRANCH  30  32
ATOM     32  C   UNL     1      44.614   5.214  11.033  0.00  0.00    +0.000 C 
BRANCH  32  33
ATOM     33  C   UNL     1      44.983   4.381   9.815  0.00  0.00    +0.000 A 
ATOM     34  C   UNL     1      44.644   3.031   9.773  0.00  0.00    +0.000 A 
ATOM     35  C   UNL     1      45.142   2.245   8.735  0.00  0.00    +0.000 A 
ATOM     36  C   UNL     1      45.948   2.832   7.769  0.00  0.00    +0.000 A 
ATOM     37  C   UNL     1      46.215   4.187   7.872  0.00  0.00    +0.000 A 
ATOM     38  N   UNL     1      45.755   4.972   8.866  0.00  0.00    +0.000 NA
ENDBRANCH  32  33
ENDBRANCH  30  32
ENDBRANCH  29  30
ENDBRANCH  26  29
ENDBRANCH  22  23
ENDBRANCH  20  22
ENDBRANCH   2  20
TORSDOF 11
ENDMDL
MODEL 3
REMARK VINA RESULT:    -6.985      2.488      4.669
REMARK INTER + INTRA:         -13.720
REMARK INTER:                 -11.944
REMARK INTRA:                  -1.776
REMARK UNBOUND:                -2.242
REMARK  Name = 
REMARK  13 active torsions:
REMARK  status: ('A' for Active; 'I' for Inactive)
REMARK    1  A    between atoms: C_1  and  C_2
REMARK    2  A    between atoms: C_2  and  N_3
REMARK    3  A    between atoms: C_2  and  C_21
REMARK    4  A    between atoms: N_3  and  C_4
REMARK    5  A    between atoms: C_4  and  C_5
REMARK    6  A    between atoms: C_8  and  C_9
REMARK    7  A    between atoms: C_9  and  N_10
REMARK    8  A    between atoms: N_10  and  C_11
REMARK    9  A    between atoms: N_10  and  C_12
REMARK   10  A    between atoms: C_12  and  C_13
REMARK   11  A    between atoms: C_24  and  C_25
REMARK   12  A    between atoms: N_27  and  C_28
REMARK   13  A    between atoms: C_28  and  C_29
REMARK                            x       y       z     vdW  Elec       q    Type
REMARK                         _______ _______ _______ _____ _____    ______ ____
ROOT
ATOM      1  C   UNL     1      48.568   6.923  15.701  0.00  0.00    +0.000 C 
ATOM      2  C   UNL     1      48.126   5.454  15.728  0.00  0.00    +0.000 C 
ENDROOT
BRANCH   2   3
ATOM      3  C   UNL     1      47.239   5.080  14.541  0.00  0.00    +0.000 A 
ATOM      4  C   UNL     1      46.780   6.098  13.680  0.00  0.00    +0.000 A 
ATOM      5  C   UNL     1      46.110   5.793  12.493  0.00  0.00    +0.000 A 
ATOM      6  C   UNL     1      45.831   4.460  12.183  0.00  0.00    +0.000 A 
ATOM      7  C   UNL     1      46.269   3.442  13.036  0.00  0.00    +0.000 A 
ATOM      8  C   UNL     1      46.974   3.748  14.200  0.00  0.00    +0.000 A 
BRANCH   6   9
ATOM      9  C   UNL     1      45.093   4.069  10.957  0.00  0.00    +0.000 C 
ATOM     10  O   UNL     1      44.417   4.898  10.360  0.00  0.00    +0.000 OA
ATOM     11  N   UNL     1      45.263   2.772  10.529  0.00  0.00    +0.000 N 
ATOM     12  H   UNL     1      45.902   2.154  11.011  0.00  0.00    +0.000 HD
BRANCH  11  13
ATOM     13  C   UNL     1      44.664   2.298   9.303  0.00  0.00    +0.000 C 
BRANCH  13  14
ATOM     14  C   UNL     1      45.652   2.289   8.170  0.00  0.00    +0.000 A 
ATOM     15  C   UNL     1      45.792   3.374   7.302  0.00  0.00    +0.000 A 
ATOM     16  C   UNL     1      46.702   3.298   6.245  0.00  0.00    +0.000 A 
ATOM     17  C   UNL     1      47.436   2.134   6.097  0.00  0.00    +0.000 A 
ATOM     18  N   UNL     1      47.327   1.064   6.915  0.00  0.00    +0.000 NA
ATOM     19  C   UNL     1      46.434   1.165   7.925  0.00  0.00    +0.000 A 
ENDBRANCH  13  14
ENDBRANCH  11  13
ENDBRANCH   6   9
ENDBRANCH   2   3
BRANCH   2  20
ATOM     20  N   UNL     1      47.465   5.185  17.020  0.00  0.00    +0.000 NA
ATOM     21  H   UNL     1      46.467   5.368  16.935  0.00  0.00    +0.000 HD
BRANCH  20  22
ATOM     22  C   UNL     1      47.648   3.796  17.445  0.00  0.00    +0.000 C 
BRANCH  22  23
ATOM     23  C   UNL     1      49.083   3.422  17.677  0.00  0.00    +0.000 A 
ATOM     24  C   UNL     1      49.584   2.234  17.120  0.00  0.00    +0.000 A 
ATOM     25  C   UNL     1      50.939   1.943  17.187  0.00  0.00    +0.000 A 
ATOM     26  C   UNL     1      51.819   2.842  17.807  0.00  0.00    +0.000 A 
ATOM     27  C   UNL     1      51.308   3.997  18.416  0.00  0.00    +0.000 A 
ATOM     28  C   UNL     1      49.945   4.283  18.354  0.00  0.00    +0.000 A 
BRANCH  26  29
ATOM     29  C   UNL     1      53.308   2.588  17.784  0.00  0.00    +0.000 C 
BRANCH  29  30
ATOM     30  N   UNL     1      53.812   2.000  19.043  0.00  0.00    +0.000 NA
ATOM     31  C   UNL     1      54.432   0.690  18.826  0.00  0.00    +0.000 C 
BRANCH  30  32
ATOM     32  C   UNL     1      54.795   2.916  19.665  0.00  0.00    +0.000 C 
BRANCH  32  33
ATOM     33  C   UNL     1      54.138   4.020  20.479  0.00  0.00    +0.000 A 
ATOM     34  C   UNL     1      53.267   3.689  21.515  0.00  0.00    +0.000 A 
ATOM     35  C   UNL     1      52.540   4.705  22.132  0.00  0.00    +0.000 A 
ATOM     36  C   UNL     1      52.713   6.016  21.706  0.00  0.00    +0.000 A 
ATOM     37  C   UNL     1      53.618   6.260  20.686  0.00  0.00    +0.000 A 
ATOM     38  N   UNL     1      54.331   5.299  20.066  0.00  0.00    +0.000 NA
ENDBRANCH  32  33
ENDBRANCH  30  32
ENDBRANCH  29  30
ENDBRANCH  26  29
ENDBRANCH  22  23
ENDBRANCH  20  22
ENDBRANCH   2  20
TORSDOF 11
ENDMDL
MODEL 4
REMARK VINA RESULT:    -6.897      3.023      4.616
REMARK INTER + INTRA:         -13.574
REMARK INTER:                 -11.746
REMARK INTRA:                  -1.828
REMARK UNBOUND:                -2.242
REMARK  Name = 
REMARK  13 active torsions:
REMARK  status: ('A' for Active; 'I' for Inactive)
REMARK    1  A    between atoms: C_1  and  C_2
REMARK    2  A    between atoms: C_2  and  N_3
REMARK    3  A    between atoms: C_2  and  C_21
REMARK    4  A    between atoms: N_3  and  C_4
REMARK    5  A    between atoms: C_4  and  C_5
REMARK    6  A    between atoms: C_8  and  C_9
REMARK    7  A    between atoms: C_9  and  N_10
REMARK    8  A    between atoms: N_10  and  C_11
REMARK    9  A    between atoms: N_10  and  C_12
REMARK   10  A    between atoms: C_12  and  C_13
REMARK   11  A    between atoms: C_24  and  C_25
REMARK   12  A    between atoms: N_27  and  C_28
REMARK   13  A    between atoms: C_28  and  C_29
REMARK                            x       y       z     vdW  Elec       q    Type
REMARK                         _______ _______ _______ _____ _____    ______ ____
ROOT
ATOM      1  C   UNL     1      48.624   6.862  15.598  0.00  0.00    +0.000 C 
ATOM      2  C   UNL     1      48.084   5.428  15.684  0.00  0.00    +0.000 C 
ENDROOT
BRANCH   2   3
ATOM      3  C   UNL     1      47.194   5.058  14.499  0.00  0.00    +0.000 A 
ATOM      4  C   UNL     1      46.768   6.072  13.616  0.00  0.00    +0.000 A 
ATOM      5  C   UNL     1      46.096   5.764  12.431  0.00  0.00    +0.000 A 
ATOM      6  C   UNL     1      45.781   4.434  12.144  0.00  0.00    +0.000 A 
ATOM      7  C   UNL     1      46.186   3.420  13.018  0.00  0.00    +0.000 A 
ATOM      8  C   UNL     1      46.893   3.727  14.180  0.00  0.00    +0.000 A 
BRANCH   6   9
ATOM      9  C   UNL     1      45.039   4.042  10.921  0.00  0.00    +0.000 C 
ATOM     10  O   UNL     1      44.309   4.851  10.364  0.00  0.00    +0.000 OA
ATOM     11  N   UNL     1      45.267   2.768  10.451  0.00  0.00    +0.000 N 
ATOM     12  H   UNL     1      45.947   2.171  10.901  0.00  0.00    +0.000 HD
BRANCH  11  13
ATOM     13  C   UNL     1      44.668   2.300   9.222  0.00  0.00    +0.000 C 
BRANCH  13  14
ATOM     14  C   UNL     1      45.668   2.249   8.101  0.00  0.00    +0.000 A 
ATOM     15  C   UNL     1      45.771   3.271   7.155  0.00  0.00    +0.000 A 
ATOM     16  C   UNL     1      46.695   3.155   6.113  0.00  0.00    +0.000 A 
ATOM     17  C   UNL     1      47.481   2.016   6.060  0.00  0.00    +0.000 A 
ATOM     18  N   UNL     1      47.410   1.008   6.957  0.00  0.00    +0.000 NA
ATOM     19  C   UNL     1      46.501   1.146   7.949  0.00  0.00    +0.000 A 
ENDBRANCH  13  14
ENDBRANCH  11  13
ENDBRANCH   6   9
ENDBRANCH   2   3
BRANCH   2  20
ATOM     20  N   UNL     1      47.387   5.264  16.974  0.00  0.00    +0.000 NA
ATOM     21  H   UNL     1      46.394   5.454  16.849  0.00  0.00    +0.000 HD
BRANCH  20  22
ATOM     22  C   UNL     1      47.537   3.908  17.504  0.00  0.00    +0.000 C 
BRANCH  22  23
ATOM     23  C   UNL     1      48.966   3.503  17.723  0.00  0.00    +0.000 A 
ATOM     24  C   UNL     1      49.454   2.338  17.108  0.00  0.00    +0.000 A 
ATOM     25  C   UNL     1      50.804   2.026  17.166  0.00  0.00    +0.000 A 
ATOM     26  C   UNL     1      51.693   2.879  17.834  0.00  0.00    +0.000 A 
ATOM     27  C   UNL     1      51.196   4.008  18.499  0.00  0.00    +0.000 A 
ATOM     28  C   UNL     1      49.837   4.317  18.446  0.00  0.00    +0.000 A 
BRANCH  26  29
ATOM     29  C   UNL     1      53.178   2.606  17.804  0.00  0.00    +0.000 C 
BRANCH  29  30
ATOM     30  N   UNL     1      53.981   3.720  18.351  0.00  0.00    +0.000 NA
ATOM     31  C   UNL     1      54.724   3.322  19.551  0.00  0.00    +0.000 C 
BRANCH  30  32
ATOM     32  C   UNL     1      54.927   4.210  17.322  0.00  0.00    +0.000 C 
BRANCH  32  33
ATOM     33  C   UNL     1      54.493   5.530  16.705  0.00  0.00    +0.000 A 
ATOM     34  C   UNL     1      53.628   6.369  17.405  0.00  0.00    +0.000 A 
ATOM     35  C   UNL     1      53.102   7.485  16.756  0.00  0.00    +0.000 A 
ATOM     36  C   UNL     1      53.464   7.734  15.439  0.00  0.00    +0.000 A 
ATOM     37  C   UNL     1      54.350   6.863  14.825  0.00  0.00    +0.000 A 
ATOM     38  N   UNL     1      54.870   5.773  15.423  0.00  0.00    +0.000 NA
ENDBRANCH  32  33
ENDBRANCH  30  32
ENDBRANCH  29  30
ENDBRANCH  26  29
ENDBRANCH  22  23
ENDBRANCH  20  22
ENDBRANCH   2  20
TORSDOF 11
ENDMDL
MODEL 5
REMARK VINA RESULT:    -6.883      1.606      2.053
REMARK INTER + INTRA:         -13.551
REMARK INTER:                 -11.789
REMARK INTRA:                  -1.762
REMARK UNBOUND:                -2.242
REMARK  Name = 
REMARK  13 active torsions:
REMARK  status: ('A' for Active; 'I' for Inactive)
REMARK    1  A    between atoms: C_1  and  C_2
REMARK    2  A    between atoms: C_2  and  N_3
REMARK    3  A    between atoms: C_2  and  C_21
REMARK    4  A    between atoms: N_3  and  C_4
REMARK    5  A    between atoms: C_4  and  C_5
REMARK    6  A    between atoms: C_8  and  C_9
REMARK    7  A    between atoms: C_9  and  N_10
REMARK    8  A    between atoms: N_10  and  C_11
REMARK    9  A    between atoms: N_10  and  C_12
REMARK   10  A    between atoms: C_12  and  C_13
REMARK   11  A    between atoms: C_24  and  C_25
REMARK   12  A    between atoms: N_27  and  C_28
REMARK   13  A    between atoms: C_28  and  C_29
REMARK                            x       y       z     vdW  Elec       q    Type
REMARK                         _______ _______ _______ _____ _____    ______ ____
ROOT
ATOM      1  C   UNL     1      48.408  11.443  12.280  0.00  0.00    +0.000 C 
ATOM      2  C   UNL     1      48.532  10.100  13.012  0.00  0.00    +0.000 C 
ENDROOT
BRANCH   2   3
ATOM      3  C   UNL     1      47.712   8.990  12.357  0.00  0.00    +0.000 A 
ATOM      4  C   UNL     1      48.374   7.851  11.855  0.00  0.00    +0.000 A 
ATOM      5  C   UNL     1      47.660   6.740  11.401  0.00  0.00    +0.000 A 
ATOM      6  C   UNL     1      46.263   6.781  11.381  0.00  0.00    +0.000 A 
ATOM      7  C   UNL     1      45.595   7.911  11.862  0.00  0.00    +0.000 A 
ATOM      8  C   UNL     1      46.311   9.002  12.354  0.00  0.00    +0.000 A 
BRANCH   6   9
ATOM      9  C   UNL     1      45.445   5.651  10.878  0.00  0.00    +0.000 C 
ATOM     10  O   UNL     1      44.687   5.060  11.638  0.00  0.00    +0.000 OA
ATOM     11  N   UNL     1      45.558   5.364   9.537  0.00  0.00    +0.000 N 
ATOM     12  H   UNL     1      46.133   5.940   8.938  0.00  0.00    +0.000 HD
BRANCH  11  13
ATOM     13  C   UNL     1      44.750   4.341   8.913  0.00  0.00    +0.000 C 
BRANCH  13  14
ATOM     14  C   UNL     1      45.598   3.257   8.307  0.00  0.00    +0.000 A 
ATOM     15  C   UNL     1      46.476   3.509   7.251  0.00  0.00    +0.000 A 
ATOM     16  C   UNL     1      47.214   2.456   6.703  0.00  0.00    +0.000 A 
ATOM     17  C   UNL     1      47.040   1.190   7.235  0.00  0.00    +0.000 A 
ATOM     18  N   UNL     1      46.200   0.908   8.255  0.00  0.00    +0.000 NA
ATOM     19  C   UNL     1      45.495   1.946   8.760  0.00  0.00    +0.000 A 
ENDBRANCH  13  14
ENDBRANCH  11  13
ENDBRANCH   6   9
ENDBRANCH   2   3
BRANCH   2  20
ATOM     20  N   UNL     1      48.164  10.300  14.427  0.00  0.00    +0.000 NA
ATOM     21  H   UNL     1      47.326  10.876  14.481  0.00  0.00    +0.000 HD
BRANCH  20  22
ATOM     22  C   UNL     1      47.899   9.029  15.104  0.00  0.00    +0.000 C 
BRANCH  22  23
ATOM     23  C   UNL     1      49.098   8.459  15.805  0.00  0.00    +0.000 A 
ATOM     24  C   UNL     1      49.338   8.800  17.146  0.00  0.00    +0.000 A 
ATOM     25  C   UNL     1      50.345   8.168  17.862  0.00  0.00    +0.000 A 
ATOM     26  C   UNL     1      51.125   7.177  17.249  0.00  0.00    +0.000 A 
ATOM     27  C   UNL     1      50.924   6.883  15.894  0.00  0.00    +0.000 A 
ATOM     28  C   UNL     1      49.916   7.523  15.174  0.00  0.00    +0.000 A 
BRANCH  26  29
ATOM     29  C   UNL     1      52.145   6.407  18.053  0.00  0.00    +0.000 C 
BRANCH  29  30
ATOM     30  N   UNL     1      52.095   4.950  17.804  0.00  0.00    +0.000 NA
ATOM     31  C   UNL     1      53.400   4.314  18.010  0.00  0.00    +0.000 C 
BRANCH  30  32
ATOM     32  C   UNL     1      51.091   4.323  18.692  0.00  0.00    +0.000 C 
BRANCH  32  33
ATOM     33  C   UNL     1      49.753   4.103  18.006  0.00  0.00    +0.000 A 
ATOM     34  C   UNL     1      48.656   4.885  18.363  0.00  0.00    +0.000 A 
ATOM     35  C   UNL     1      47.401   4.555  17.856  0.00  0.00    +0.000 A 
ATOM     36  C   UNL     1      47.282   3.467  17.001  0.00  0.00    +0.000 A 
ATOM     37  C   UNL     1      48.427   2.758  16.677  0.00  0.00    +0.000 A 
ATOM     38  N   UNL     1      49.654   3.048  17.156  0.00  0.00    +0.000 NA
ENDBRANCH  32  33
ENDBRANCH  30  32
ENDBRANCH  29  30
ENDBRANCH  26  29
ENDBRANCH  22  23
ENDBRANCH  20  22
ENDBRANCH   2  20
TORSDOF 11
ENDMDL
MODEL 6
REMARK VINA RESULT:    -6.710      2.833      6.918
REMARK INTER + INTRA:         -13.267
REMARK INTER:                 -11.172
REMARK INTRA:                  -2.095
REMARK UNBOUND:                -2.242
REMARK  Name = 
REMARK  13 active torsions:
REMARK  status: ('A' for Active; 'I' for Inactive)
REMARK    1  A    between atoms: C_1  and  C_2
REMARK    2  A    between atoms: C_2  and  N_3
REMARK    3  A    between atoms: C_2  and  C_21
REMARK    4  A    between atoms: N_3  and  C_4
REMARK    5  A    between atoms: C_4  and  C_5
REMARK    6  A    between atoms: C_8  and  C_9
REMARK    7  A    between atoms: C_9  and  N_10
REMARK    8  A    between atoms: N_10  and  C_11
REMARK    9  A    between atoms: N_10  and  C_12
REMARK   10  A    between atoms: C_12  and  C_13
REMARK   11  A    between atoms: C_24  and  C_25
REMARK   12  A    between atoms: N_27  and  C_28
REMARK   13  A    between atoms: C_28  and  C_29
REMARK                            x       y       z     vdW  Elec       q    Type
REMARK                         _______ _______ _______ _____ _____    ______ ____
ROOT
ATOM      1  C   UNL     1      47.325   4.517  16.894  0.00  0.00    +0.000 C 
ATOM      2  C   UNL     1      47.561   5.432  15.685  0.00  0.00    +0.000 C 
ENDROOT
BRANCH   2   3
ATOM      3  C   UNL     1      46.799   4.979  14.441  0.00  0.00    +0.000 A 
ATOM      4  C   UNL     1      46.155   5.945  13.641  0.00  0.00    +0.000 A 
ATOM      5  C   UNL     1      45.589   5.604  12.410  0.00  0.00    +0.000 A 
ATOM      6  C   UNL     1      45.604   4.272  11.991  0.00  0.00    +0.000 A 
ATOM      7  C   UNL     1      46.228   3.302  12.782  0.00  0.00    +0.000 A 
ATOM      8  C   UNL     1      46.828   3.653  13.991  0.00  0.00    +0.000 A 
BRANCH   6   9
ATOM      9  C   UNL     1      44.991   3.837  10.713  0.00  0.00    +0.000 C 
ATOM     10  O   UNL     1      44.348   4.633  10.041  0.00  0.00    +0.000 OA
ATOM     11  N   UNL     1      45.236   2.537  10.329  0.00  0.00    +0.000 N 
ATOM     12  H   UNL     1      45.847   1.949  10.878  0.00  0.00    +0.000 HD
BRANCH  11  13
ATOM     13  C   UNL     1      44.764   2.023   9.064  0.00  0.00    +0.000 C 
BRANCH  13  14
ATOM     14  C   UNL     1      45.813   2.136   7.993  0.00  0.00    +0.000 A 
ATOM     15  C   UNL     1      45.867   3.227   7.122  0.00  0.00    +0.000 A 
ATOM     16  C   UNL     1      46.842   3.263   6.122  0.00  0.00    +0.000 A 
ATOM     17  C   UNL     1      47.727   2.202   6.033  0.00  0.00    +0.000 A 
ATOM     18  N   UNL     1      47.705   1.130   6.856  0.00  0.00    +0.000 NA
ATOM     19  C   UNL     1      46.746   1.120   7.810  0.00  0.00    +0.000 A 
ENDBRANCH  13  14
ENDBRANCH  11  13
ENDBRANCH   6   9
ENDBRANCH   2   3
BRANCH   2  20
ATOM     20  N   UNL     1      49.014   5.525  15.442  0.00  0.00    +0.000 NA
ATOM     21  H   UNL     1      49.226   5.166  14.513  0.00  0.00    +0.000 HD
BRANCH  20  22
ATOM     22  C   UNL     1      49.492   6.906  15.527  0.00  0.00    +0.000 C 
BRANCH  22  23
ATOM     23  C   UNL     1      49.060   7.764  14.374  0.00  0.00    +0.000 A 
ATOM     24  C   UNL     1      48.307   8.924  14.622  0.00  0.00    +0.000 A 
ATOM     25  C   UNL     1      48.029   9.814  13.596  0.00  0.00    +0.000 A 
ATOM     26  C   UNL     1      48.507   9.563  12.301  0.00  0.00    +0.000 A 
ATOM     27  C   UNL     1      49.205   8.376  12.043  0.00  0.00    +0.000 A 
ATOM     28  C   UNL     1      49.477   7.479  13.075  0.00  0.00    +0.000 A 
BRANCH  26  29
ATOM     29  C   UNL     1      48.306  10.583  11.205  0.00  0.00    +0.000 C 
BRANCH  29  30
ATOM     30  N   UNL     1      47.174  11.497  11.468  0.00  0.00    +0.000 NA
ATOM     31  C   UNL     1      47.617  12.757  12.073  0.00  0.00    +0.000 C 
BRANCH  30  32
ATOM     32  C   UNL     1      46.453  11.779  10.207  0.00  0.00    +0.000 C 
BRANCH  32  33
ATOM     33  C   UNL     1      45.004  11.319  10.241  0.00  0.00    +0.000 A 
ATOM     34  C   UNL     1      44.632  10.268  11.077  0.00  0.00    +0.000 A 
ATOM     35  C   UNL     1      43.346   9.744  10.967  0.00  0.00    +0.000 A 
ATOM     36  C   UNL     1      42.470  10.292  10.039  0.00  0.00    +0.000 A 
ATOM     37  C   UNL     1      42.912  11.352   9.265  0.00  0.00    +0.000 A 
ATOM     38  N   UNL     1      44.152  11.876   9.343  0.00  0.00    +0.000 NA
ENDBRANCH  32  33
ENDBRANCH  30  32
ENDBRANCH  29  30
ENDBRANCH  26  29
ENDBRANCH  22  23
ENDBRANCH  20  22
ENDBRANCH   2  20
TORSDOF 11
ENDMDL
MODEL 7
REMARK VINA RESULT:    -6.688      1.738      2.400
REMARK INTER + INTRA:         -13.230
REMARK INTER:                 -10.494
REMARK INTRA:                  -2.736
REMARK UNBOUND:                -2.242
REMARK  Name = 
REMARK  13 active torsions:
REMARK  status: ('A' for Active; 'I' for Inactive)
REMARK    1  A    between atoms: C_1  and  C_2
REMARK    2  A    between atoms: C_2  and  N_3
REMARK    3  A    between atoms: C_2  and  C_21
REMARK    4  A    between atoms: N_3  and  C_4
REMARK    5  A    between atoms: C_4  and  C_5
REMARK    6  A    between atoms: C_8  and  C_9
REMARK    7  A    between atoms: C_9  and  N_10
REMARK    8  A    between atoms: N_10  and  C_11
REMARK    9  A    between atoms: N_10  and  C_12
REMARK   10  A    between atoms: C_12  and  C_13
REMARK   11  A    between atoms: C_24  and  C_25
REMARK   12  A    between atoms: N_27  and  C_28
REMARK   13  A    between atoms: C_28  and  C_29
REMARK                            x       y       z     vdW  Elec       q    Type
REMARK                         _______ _______ _______ _____ _____    ______ ____
ROOT
ATOM      1  C   UNL     1      52.305   8.979  13.003  0.00  0.00    +0.000 C 
ATOM      2  C   UNL     1      51.222   8.869  14.085  0.00  0.00    +0.000 C 
ENDROOT
BRANCH   2   3
ATOM      3  C   UNL     1      50.070   7.953  13.678  0.00  0.00    +0.000 A 
ATOM      4  C   UNL     1      49.404   7.205  14.671  0.00  0.00    +0.000 A 
ATOM      5  C   UNL     1      48.244   6.484  14.378  0.00  0.00    +0.000 A 
ATOM      6  C   UNL     1      47.769   6.450  13.064  0.00  0.00    +0.000 A 
ATOM      7  C   UNL     1      48.428   7.177  12.068  0.00  0.00    +0.000 A 
ATOM      8  C   UNL     1      49.562   7.928  12.373  0.00  0.00    +0.000 A 
BRANCH   6   9
ATOM      9  C   UNL     1      46.563   5.677  12.678  0.00  0.00    +0.000 C 
ATOM     10  O   UNL     1      46.184   4.746  13.378  0.00  0.00    +0.000 OA
ATOM     11  N   UNL     1      45.900   6.104  11.550  0.00  0.00    +0.000 N 
ATOM     12  H   UNL     1      46.206   6.932  11.059  0.00  0.00    +0.000 HD
BRANCH  11  13
ATOM     13  C   UNL     1      44.667   5.485  11.121  0.00  0.00    +0.000 C 
BRANCH  13  14
ATOM     14  C   UNL     1      44.908   4.438  10.069  0.00  0.00    +0.000 A 
ATOM     15  C   UNL     1      45.603   4.719   8.891  0.00  0.00    +0.000 A 
ATOM     16  C   UNL     1      45.768   3.717   7.932  0.00  0.00    +0.000 A 
ATOM     17  C   UNL     1      45.226   2.469   8.190  0.00  0.00    +0.000 A 
ATOM     18  N   UNL     1      44.547   2.160   9.317  0.00  0.00    +0.000 NA
ATOM     19  C   UNL     1      44.399   3.153  10.224  0.00  0.00    +0.000 A 
ENDBRANCH  13  14
ENDBRANCH  11  13
ENDBRANCH   6   9
ENDBRANCH   2   3
BRANCH   2  20
ATOM     20  N   UNL     1      50.757  10.228  14.425  0.00  0.00    +0.000 NA
ATOM     21  H   UNL     1      49.748  10.283  14.295  0.00  0.00    +0.000 HD
BRANCH  20  22
ATOM     22  C   UNL     1      51.066  10.577  15.812  0.00  0.00    +0.000 C 
BRANCH  22  23
ATOM     23  C   UNL     1      50.128   9.962  16.811  0.00  0.00    +0.000 A 
ATOM     24  C   UNL     1      48.754  10.239  16.726  0.00  0.00    +0.000 A 
ATOM     25  C   UNL     1      47.850   9.565  17.535  0.00  0.00    +0.000 A 
ATOM     26  C   UNL     1      48.306   8.594  18.437  0.00  0.00    +0.000 A 
ATOM     27  C   UNL     1      49.683   8.363  18.563  0.00  0.00    +0.000 A 
ATOM     28  C   UNL     1      50.590   9.047  17.755  0.00  0.00    +0.000 A 
BRANCH  26  29
ATOM     29  C   UNL     1      47.320   7.777  19.238  0.00  0.00    +0.000 C 
BRANCH  29  30
ATOM     30  N   UNL     1      47.788   6.398  19.496  0.00  0.00    +0.000 NA
ATOM     31  C   UNL     1      47.483   5.963  20.861  0.00  0.00    +0.000 C 
BRANCH  30  32
ATOM     32  C   UNL     1      47.165   5.467  18.527  0.00  0.00    +0.000 C 
BRANCH  32  33
ATOM     33  C   UNL     1      48.163   4.492  17.923  0.00  0.00    +0.000 A 
ATOM     34  C   UNL     1      47.706   3.426  17.150  0.00  0.00    +0.000 A 
ATOM     35  C   UNL     1      48.613   2.446  16.753  0.00  0.00    +0.000 A 
ATOM     36  C   UNL     1      49.946   2.567  17.127  0.00  0.00    +0.000 A 
ATOM     37  C   UNL     1      50.320   3.671  17.874  0.00  0.00    +0.000 A 
ATOM     38  N   UNL     1      49.466   4.632  18.279  0.00  0.00    +0.000 NA
ENDBRANCH  32  33
ENDBRANCH  30  32
ENDBRANCH  29  30
ENDBRANCH  26  29
ENDBRANCH  22  23
ENDBRANCH  20  22
ENDBRANCH   2  20
TORSDOF 11
ENDMDL
MODEL 8
REMARK VINA RESULT:    -6.584      2.241      5.773
REMARK INTER + INTRA:         -13.060
REMARK INTER:                 -11.078
REMARK INTRA:                  -1.982
REMARK UNBOUND:                -2.242
REMARK  Name = 
REMARK  13 active torsions:
REMARK  status: ('A' for Active; 'I' for Inactive)
REMARK    1  A    between atoms: C_1  and  C_2
REMARK    2  A    between atoms: C_2  and  N_3
REMARK    3  A    between atoms: C_2  and  C_21
REMARK    4  A    between atoms: N_3  and  C_4
REMARK    5  A    between atoms: C_4  and  C_5
REMARK    6  A    between atoms: C_8  and  C_9
REMARK    7  A    between atoms: C_9  and  N_10
REMARK    8  A    between atoms: N_10  and  C_11
REMARK    9  A    between atoms: N_10  and  C_12
REMARK   10  A    between atoms: C_12  and  C_13
REMARK   11  A    between atoms: C_24  and  C_25
REMARK   12  A    between atoms: N_27  and  C_28
REMARK   13  A    between atoms: C_28  and  C_29
REMARK                            x       y       z     vdW  Elec       q    Type
REMARK                         _______ _______ _______ _____ _____    ______ ____
ROOT
ATOM      1  C   UNL     1      47.381   3.603  17.161  0.00  0.00    +0.000 C 
ATOM      2  C   UNL     1      47.701   4.802  16.258  0.00  0.00    +0.000 C 
ENDROOT
BRANCH   2   3
ATOM      3  C   UNL     1      47.142   4.646  14.845  0.00  0.00    +0.000 A 
ATOM      4  C   UNL     1      46.910   3.351  14.338  0.00  0.00    +0.000 A 
ATOM      5  C   UNL     1      46.247   3.158  13.123  0.00  0.00    +0.000 A 
ATOM      6  C   UNL     1      45.864   4.266  12.364  0.00  0.00    +0.000 A 
ATOM      7  C   UNL     1      46.100   5.556  12.850  0.00  0.00    +0.000 A 
ATOM      8  C   UNL     1      46.725   5.745  14.083  0.00  0.00    +0.000 A 
BRANCH   6   9
ATOM      9  C   UNL     1      45.188   4.132  11.051  0.00  0.00    +0.000 C 
ATOM     10  O   UNL     1      44.763   5.127  10.477  0.00  0.00    +0.000 OA
ATOM     11  N   UNL     1      45.126   2.862  10.524  0.00  0.00    +0.000 N 
ATOM     12  H   UNL     1      45.571   2.089  10.999  0.00  0.00    +0.000 HD
BRANCH  11  13
ATOM     13  C   UNL     1      44.569   2.615   9.214  0.00  0.00    +0.000 C 
BRANCH  13  14
ATOM     14  C   UNL     1      45.643   2.428   8.179  0.00  0.00    +0.000 A 
ATOM     15  C   UNL     1      45.977   3.433   7.269  0.00  0.00    +0.000 A 
ATOM     16  C   UNL     1      46.960   3.191   6.306  0.00  0.00    +0.000 A 
ATOM     17  C   UNL     1      47.571   1.949   6.292  0.00  0.00    +0.000 A 
ATOM     18  N   UNL     1      47.274   0.953   7.156  0.00  0.00    +0.000 NA
ATOM     19  C   UNL     1      46.315   1.214   8.072  0.00  0.00    +0.000 A 
ENDBRANCH  13  14
ENDBRANCH  11  13
ENDBRANCH   6   9
ENDBRANCH   2   3
BRANCH   2  20
ATOM     20  N   UNL     1      49.162   5.013  16.256  0.00  0.00    +0.000 NA
ATOM     21  H   UNL     1      49.474   5.212  15.307  0.00  0.00    +0.000 HD
BRANCH  20  22
ATOM     22  C   UNL     1      49.550   6.131  17.116  0.00  0.00    +0.000 C 
BRANCH  22  23
ATOM     23  C   UNL     1      49.819   7.403  16.365  0.00  0.00    +0.000 A 
ATOM     24  C   UNL     1      50.775   7.407  15.336  0.00  0.00    +0.000 A 
ATOM     25  C   UNL     1      50.931   8.522  14.526  0.00  0.00    +0.000 A 
ATOM     26  C   UNL     1      50.125   9.652  14.726  0.00  0.00    +0.000 A 
ATOM     27  C   UNL     1      49.215   9.669  15.792  0.00  0.00    +0.000 A 
ATOM     28  C   UNL     1      49.065   8.550  16.609  0.00  0.00    +0.000 A 
BRANCH  26  29
ATOM     29  C   UNL     1      50.210  10.824  13.777  0.00  0.00    +0.000 C 
BRANCH  29  30
ATOM     30  N   UNL     1      48.883  11.321  13.354  0.00  0.00    +0.000 NA
ATOM     31  C   UNL     1      48.820  12.785  13.358  0.00  0.00    +0.000 C 
BRANCH  30  32
ATOM     32  C   UNL     1      48.566  10.814  12.000  0.00  0.00    +0.000 C 
BRANCH  32  33
ATOM     33  C   UNL     1      47.091  10.492  11.822  0.00  0.00    +0.000 A 
ATOM     34  C   UNL     1      46.263  11.390  11.151  0.00  0.00    +0.000 A 
ATOM     35  C   UNL     1      44.888  11.166  11.151  0.00  0.00    +0.000 A 
ATOM     36  C   UNL     1      44.385  10.050  11.807  0.00  0.00    +0.000 A 
ATOM     37  C   UNL     1      45.280   9.194  12.427  0.00  0.00    +0.000 A 
ATOM     38  N   UNL     1      46.614   9.387  12.450  0.00  0.00    +0.000 NA
ENDBRANCH  32  33
ENDBRANCH  30  32
ENDBRANCH  29  30
ENDBRANCH  26  29
ENDBRANCH  22  23
ENDBRANCH  20  22
ENDBRANCH   2  20
TORSDOF 11
ENDMDL
MODEL 9
REMARK VINA RESULT:    -6.454      2.343      5.690
REMARK INTER + INTRA:         -12.846
REMARK INTER:                 -10.044
REMARK INTRA:                  -2.801
REMARK UNBOUND:                -2.242
REMARK  Name = 
REMARK  13 active torsions:
REMARK  status: ('A' for Active; 'I' for Inactive)
REMARK    1  A    between atoms: C_1  and  C_2
REMARK    2  A    between atoms: C_2  and  N_3
REMARK    3  A    between atoms: C_2  and  C_21
REMARK    4  A    between atoms: N_3  and  C_4
REMARK    5  A    between atoms: C_4  and  C_5
REMARK    6  A    between atoms: C_8  and  C_9
REMARK    7  A    between atoms: C_9  and  N_10
REMARK    8  A    between atoms: N_10  and  C_11
REMARK    9  A    between atoms: N_10  and  C_12
REMARK   10  A    between atoms: C_12  and  C_13
REMARK   11  A    between atoms: C_24  and  C_25
REMARK   12  A    between atoms: N_27  and  C_28
REMARK   13  A    between atoms: C_28  and  C_29
REMARK                            x       y       z     vdW  Elec       q    Type
REMARK                         _______ _______ _______ _____ _____    ______ ____
ROOT
ATOM      1  C   UNL     1      48.515   3.572  17.300  0.00  0.00    +0.000 C 
ATOM      2  C   UNL     1      48.425   4.982  16.702  0.00  0.00    +0.000 C 
ENDROOT
BRANCH   2   3
ATOM      3  C   UNL     1      47.786   4.997  15.314  0.00  0.00    +0.000 A 
ATOM      4  C   UNL     1      47.103   3.850  14.860  0.00  0.00    +0.000 A 
ATOM      5  C   UNL     1      46.364   3.870  13.675  0.00  0.00    +0.000 A 
ATOM      6  C   UNL     1      46.352   5.027  12.891  0.00  0.00    +0.000 A 
ATOM      7  C   UNL     1      47.037   6.166  13.324  0.00  0.00    +0.000 A 
ATOM      8  C   UNL     1      47.740   6.155  14.528  0.00  0.00    +0.000 A 
BRANCH   6   9
ATOM      9  C   UNL     1      45.616   5.104  11.605  0.00  0.00    +0.000 C 
ATOM     10  O   UNL     1      45.674   6.123  10.928  0.00  0.00    +0.000 OA
ATOM     11  N   UNL     1      44.936   3.970  11.222  0.00  0.00    +0.000 N 
ATOM     12  H   UNL     1      44.994   3.127  11.776  0.00  0.00    +0.000 HD
BRANCH  11  13
ATOM     13  C   UNL     1      44.252   3.894   9.951  0.00  0.00    +0.000 C 
BRANCH  13  14
ATOM     14  C   UNL     1      45.154   3.376   8.866  0.00  0.00    +0.000 A 
ATOM     15  C   UNL     1      45.545   2.037   8.805  0.00  0.00    +0.000 A 
ATOM     16  C   UNL     1      46.413   1.618   7.794  0.00  0.00    +0.000 A 
ATOM     17  C   UNL     1      46.858   2.560   6.881  0.00  0.00    +0.000 A 
ATOM     18  N   UNL     1      46.503   3.864   6.909  0.00  0.00    +0.000 NA
ATOM     19  C   UNL     1      45.666   4.241   7.903  0.00  0.00    +0.000 A 
ENDBRANCH  13  14
ENDBRANCH  11  13
ENDBRANCH   6   9
ENDBRANCH   2   3
BRANCH   2  20
ATOM     20  N   UNL     1      49.774   5.579  16.698  0.00  0.00    +0.000 NA
ATOM     21  H   UNL     1      50.046   5.797  15.741  0.00  0.00    +0.000 HD
BRANCH  20  22
ATOM     22  C   UNL     1      49.825   6.811  17.487  0.00  0.00    +0.000 C 
BRANCH  22  23
ATOM     23  C   UNL     1      50.035   8.046  16.660  0.00  0.00    +0.000 A 
ATOM     24  C   UNL     1      50.959   8.019  15.602  0.00  0.00    +0.000 A 
ATOM     25  C   UNL     1      51.059   9.092  14.729  0.00  0.00    +0.000 A 
ATOM     26  C   UNL     1      50.229  10.209  14.893  0.00  0.00    +0.000 A 
ATOM     27  C   UNL     1      49.351  10.261  15.984  0.00  0.00    +0.000 A 
ATOM     28  C   UNL     1      49.257   9.184  16.865  0.00  0.00    +0.000 A 
BRANCH  26  29
ATOM     29  C   UNL     1      50.252  11.330  13.880  0.00  0.00    +0.000 C 
BRANCH  29  30
ATOM     30  N   UNL     1      48.967  11.489  13.167  0.00  0.00    +0.000 NA
ATOM     31  C   UNL     1      48.351  12.792  13.433  0.00  0.00    +0.000 C 
BRANCH  30  32
ATOM     32  C   UNL     1      49.178  11.328  11.710  0.00  0.00    +0.000 C 
BRANCH  32  33
ATOM     33  C   UNL     1      49.794   9.985  11.350  0.00  0.00    +0.000 A 
ATOM     34  C   UNL     1      49.097   8.810  11.621  0.00  0.00    +0.000 A 
ATOM     35  C   UNL     1      49.745   7.589  11.449  0.00  0.00    +0.000 A 
ATOM     36  C   UNL     1      51.060   7.578  11.000  0.00  0.00    +0.000 A 
ATOM     37  C   UNL     1      51.670   8.792  10.729  0.00  0.00    +0.000 A 
ATOM     38  N   UNL     1      51.072   9.989  10.892  0.00  0.00    +0.000 NA
ENDBRANCH  32  33
ENDBRANCH  30  32
ENDBRANCH  29  30
ENDBRANCH  26  29
ENDBRANCH  22  23
ENDBRANCH  20  22
ENDBRANCH   2  20
TORSDOF 11
ENDMDL
