MODEL 1
REMARK VINA RESULT:    -8.669      0.000      0.000
REMARK INTER + INTRA:         -12.403
REMARK INTER:                 -11.456
REMARK INTRA:                  -0.947
REMARK UNBOUND:                -0.947
REMARK  Name = 
REMARK  6 active torsions:
REMARK  status: ('A' for Active; 'I' for Inactive)
REMARK    1  A    between atoms: C_2  and  C_19
REMARK    2  A    between atoms: N_3  and  C_4
REMARK    3  A    between atoms: C_4  and  C_5
REMARK    4  A    between atoms: C_8  and  C_9
REMARK    5  A    between atoms: C_9  and  O_10
REMARK    6  A    between atoms: C_9  and  C_11
REMARK                            x       y       z     vdW  Elec       q    Type
REMARK                         _______ _______ _______ _____ _____    ______ ____
ROOT
ATOM      1  C   UNL     1      46.994   7.618  13.174  0.00  0.00    +0.000 C 
ENDROOT
BRANCH   1   2
ATOM      2  C   UNL     1      46.381   6.625  12.220  0.00  0.00    +0.000 A 
ATOM      3  C   UNL     1      45.586   5.581  12.710  0.00  0.00    +0.000 A 
ATOM      4  C   UNL     1      44.981   4.671  11.840  0.00  0.00    +0.000 A 
ATOM      5  C   UNL     1      45.156   4.784  10.453  0.00  0.00    +0.000 A 
ATOM      6  C   UNL     1      45.990   5.805   9.968  0.00  0.00    +0.000 A 
ATOM      7  C   UNL     1      46.599   6.712  10.840  0.00  0.00    +0.000 A 
BRANCH   5   8
ATOM      8  C   UNL     1      44.450   3.825   9.499  0.00  0.00    +0.000 C 
BRANCH   8   9
ATOM      9  C   UNL     1      45.402   3.077   8.576  0.00  0.00    +0.000 A 
ATOM     10  C   UNL     1      45.580   1.693   8.735  0.00  0.00    +0.000 A 
ATOM     11  C   UNL     1      46.516   0.998   7.965  0.00  0.00    +0.000 A 
ATOM     12  C   UNL     1      47.267   1.671   7.004  0.00  0.00    +0.000 A 
ATOM     13  C   UNL     1      47.068   3.033   6.796  0.00  0.00    +0.000 A 
ATOM     14  C   UNL     1      46.140   3.730   7.573  0.00  0.00    +0.000 A 
ENDBRANCH   8   9
BRANCH   8  15
ATOM     15  O   UNL     1      43.482   4.550   8.733  0.00  0.00    +0.000 OA
ATOM     16  H   UNL     1      43.788   4.552   7.815  0.00  0.00    +0.000 HD
ENDBRANCH   8  15
ENDBRANCH   5   8
ENDBRANCH   1   2
BRANCH   1  19
ATOM     17  O   UNL     1      49.598   6.893  13.978  0.00  0.00    +0.000 OA
ATOM     18  C   UNL     1      48.661   6.736  14.753  0.00  0.00    +0.000 C 
ATOM     19  N   UNL     1      47.358   7.008  14.422  0.00  0.00    +0.000 N 
ATOM     20  H   UNL     1      46.663   7.067  15.156  0.00  0.00    +0.000 HD
BRANCH  18  21
ATOM     21  C   UNL     1      48.865   6.192  16.097  0.00  0.00    +0.000 A 
ATOM     22  C   UNL     1      49.584   6.898  17.051  0.00  0.00    +0.000 A 
ATOM     23  S   UNL     1      49.686   6.092  18.554  0.00  0.00    +0.000 S 
ATOM     24  C   UNL     1      48.754   4.779  17.980  0.00  0.00    +0.000 A 
ATOM     25  N   UNL     1      48.428   3.734  18.778  0.00  0.00    +0.000 NA
ATOM     26  C   UNL     1      47.687   2.842  18.217  0.00  0.00    +0.000 A 
ATOM     27  N   UNL     1      47.243   2.893  16.920  0.00  0.00    +0.000 N 
ATOM     28  C   UNL     1      47.607   3.888  16.052  0.00  0.00    +0.000 A 
ATOM     29  O   UNL     1      47.322   3.819  14.865  0.00  0.00    +0.000 OA
ATOM     30  C   UNL     1      48.394   4.953  16.657  0.00  0.00    +0.000 A 
ATOM     31  H   UNL     1      46.701   2.142  16.520  0.00  0.00    +0.000 HD
ENDBRANCH  18  21
ENDBRANCH   1  19
TORSDOF 6
ENDMDL
MODEL 2
REMARK VINA RESULT:    -8.525      1.627      2.363
REMARK INTER + INTRA:         -12.213
REMARK INTER:                 -11.337
REMARK INTRA:                  -0.876
REMARK UNBOUND:                -0.947
REMARK  Name = 
REMARK  6 active torsions:
REMARK  status: ('A' for Active; 'I' for Inactive)
REMARK    1  A    between atoms: C_2  and  C_19
REMARK    2  A    between atoms: N_3  and  C_4
REMARK    3  A    between atoms: C_4  and  C_5
REMARK    4  A    between atoms: C_8  and  C_9
REMARK    5  A    between atoms: C_9  and  O_10
REMARK    6  A    between atoms: C_9  and  C_11
REMARK                            x       y       z     vdW  Elec       q    Type
REMARK                         _______ _______ _______ _____ _____    ______ ____
ROOT
ATOM      1  C   UNL     1      47.366   6.830  13.595  0.00  0.00    +0.000 C 
ENDROOT
BRANCH   1   2
ATOM      2  C   UNL     1      46.573   6.065  12.567  0.00  0.00    +0.000 A 
ATOM      3  C   UNL     1      46.506   6.531  11.247  0.00  0.00    +0.000 A 
ATOM      4  C   UNL     1      45.806   5.818  10.270  0.00  0.00    +0.000 A 
ATOM      5  C   UNL     1      45.155   4.617  10.591  0.00  0.00    +0.000 A 
ATOM      6  C   UNL     1      45.187   4.177  11.925  0.00  0.00    +0.000 A 
ATOM      7  C   UNL     1      45.885   4.894  12.902  0.00  0.00    +0.000 A 
BRANCH   5   8
ATOM      8  C   UNL     1      44.437   3.809   9.514  0.00  0.00    +0.000 C 
BRANCH   8   9
ATOM      9  C   UNL     1      45.383   3.095   8.560  0.00  0.00    +0.000 A 
ATOM     10  C   UNL     1      45.586   1.711   8.688  0.00  0.00    +0.000 A 
ATOM     11  C   UNL     1      46.519   1.047   7.887  0.00  0.00    +0.000 A 
ATOM     12  C   UNL     1      47.241   1.750   6.927  0.00  0.00    +0.000 A 
ATOM     13  C   UNL     1      47.017   3.112   6.749  0.00  0.00    +0.000 A 
ATOM     14  C   UNL     1      46.092   3.779   7.556  0.00  0.00    +0.000 A 
ENDBRANCH   8   9
BRANCH   8  15
ATOM     15  O   UNL     1      43.556   4.672   8.788  0.00  0.00    +0.000 OA
ATOM     16  H   UNL     1      42.699   4.225   8.734  0.00  0.00    +0.000 HD
ENDBRANCH   8  15
ENDBRANCH   5   8
ENDBRANCH   1   2
BRANCH   1  19
ATOM     17  O   UNL     1      49.681   6.571  15.185  0.00  0.00    +0.000 OA
ATOM     18  C   UNL     1      48.625   6.083  15.572  0.00  0.00    +0.000 C 
ATOM     19  N   UNL     1      47.468   6.115  14.836  0.00  0.00    +0.000 N 
ATOM     20  H   UNL     1      46.589   5.895  15.287  0.00  0.00    +0.000 HD
BRANCH  18  21
ATOM     21  C   UNL     1      48.534   5.379  16.852  0.00  0.00    +0.000 A 
ATOM     22  C   UNL     1      48.637   3.996  16.915  0.00  0.00    +0.000 A 
ATOM     23  S   UNL     1      48.521   3.382  18.504  0.00  0.00    +0.000 S 
ATOM     24  C   UNL     1      48.348   4.949  19.162  0.00  0.00    +0.000 A 
ATOM     25  N   UNL     1      48.235   5.154  20.496  0.00  0.00    +0.000 NA
ATOM     26  C   UNL     1      48.152   6.392  20.843  0.00  0.00    +0.000 A 
ATOM     27  N   UNL     1      48.166   7.454  19.975  0.00  0.00    +0.000 N 
ATOM     28  C   UNL     1      48.202   7.296  18.614  0.00  0.00    +0.000 A 
ATOM     29  O   UNL     1      48.055   8.254  17.870  0.00  0.00    +0.000 OA
ATOM     30  C   UNL     1      48.358   5.917  18.175  0.00  0.00    +0.000 A 
ATOM     31  H   UNL     1      48.053   8.401  20.301  0.00  0.00    +0.000 HD
ENDBRANCH  18  21
ENDBRANCH   1  19
TORSDOF 6
ENDMDL
MODEL 3
REMARK VINA RESULT:    -8.294      2.533      4.497
REMARK INTER + INTRA:         -11.908
REMARK INTER:                 -10.609
REMARK INTRA:                  -1.300
REMARK UNBOUND:                -0.947
REMARK  Name = 
REMARK  6 active torsions:
REMARK  status: ('A' for Active; 'I' for Inactive)
REMARK    1  A    between atoms: C_2  and  C_19
REMARK    2  A    between atoms: N_3  and  C_4
REMARK    3  A    between atoms: C_4  and  C_5
REMARK    4  A    between atoms: C_8  and  C_9
REMARK    5  A    between atoms: C_9  and  O_10
REMARK    6  A    between atoms: C_9  and  C_11
REMARK                            x       y       z     vdW  Elec       q    Type
REMARK                         _______ _______ _______ _____ _____    ______ ____
ROOT
ATOM      1  C   UNL     1      47.246   5.318  14.466  0.00  0.00    +0.000 C 
ENDROOT
BRANCH   1   2
ATOM      2  C   UNL     1      46.468   4.880  13.253  0.00  0.00    +0.000 A 
ATOM      3  C   UNL     1      46.227   5.784  12.211  0.00  0.00    +0.000 A 
ATOM      4  C   UNL     1      45.537   5.388  11.062  0.00  0.00    +0.000 A 
ATOM      5  C   UNL     1      45.071   4.071  10.926  0.00  0.00    +0.000 A 
ATOM      6  C   UNL     1      45.276   3.180  11.993  0.00  0.00    +0.000 A 
ATOM      7  C   UNL     1      45.962   3.579  13.144  0.00  0.00    +0.000 A 
BRANCH   5   8
ATOM      8  C   UNL     1      44.368   3.623   9.650  0.00  0.00    +0.000 C 
BRANCH   8   9
ATOM      9  C   UNL     1      45.310   3.020   8.617  0.00  0.00    +0.000 A 
ATOM     10  C   UNL     1      45.602   1.647   8.659  0.00  0.00    +0.000 A 
ATOM     11  C   UNL     1      46.535   1.086   7.783  0.00  0.00    +0.000 A 
ATOM     12  C   UNL     1      47.167   1.883   6.833  0.00  0.00    +0.000 A 
ATOM     13  C   UNL     1      46.852   3.236   6.741  0.00  0.00    +0.000 A 
ATOM     14  C   UNL     1      45.928   3.799   7.623  0.00  0.00    +0.000 A 
ENDBRANCH   8   9
BRANCH   8  15
ATOM     15  O   UNL     1      43.658   4.732   9.088  0.00  0.00    +0.000 OA
ATOM     16  H   UNL     1      43.358   5.281   9.827  0.00  0.00    +0.000 HD
ENDBRANCH   8  15
ENDBRANCH   5   8
ENDBRANCH   1   2
BRANCH   1  19
ATOM     17  O   UNL     1      49.679   6.496  15.273  0.00  0.00    +0.000 OA
ATOM     18  C   UNL     1      48.800   7.198  14.786  0.00  0.00    +0.000 C 
ATOM     19  N   UNL     1      47.569   6.717  14.420  0.00  0.00    +0.000 N 
ATOM     20  H   UNL     1      46.971   7.284  13.833  0.00  0.00    +0.000 HD
BRANCH  18  21
ATOM     21  C   UNL     1      48.990   8.637  14.600  0.00  0.00    +0.000 A 
ATOM     22  C   UNL     1      49.072   9.494  15.689  0.00  0.00    +0.000 A 
ATOM     23  S   UNL     1      49.312  11.127  15.248  0.00  0.00    +0.000 S 
ATOM     24  C   UNL     1      49.332  10.738  13.585  0.00  0.00    +0.000 A 
ATOM     25  N   UNL     1      49.535  11.681  12.634  0.00  0.00    +0.000 NA
ATOM     26  C   UNL     1      49.564  11.229  11.428  0.00  0.00    +0.000 A 
ATOM     27  N   UNL     1      49.403   9.913  11.078  0.00  0.00    +0.000 N 
ATOM     28  C   UNL     1      49.120   8.933  11.994  0.00  0.00    +0.000 A 
ATOM     29  O   UNL     1      48.828   7.803  11.632  0.00  0.00    +0.000 OA
ATOM     30  C   UNL     1      49.137   9.384  13.379  0.00  0.00    +0.000 A 
ATOM     31  H   UNL     1      49.391   9.622  10.113  0.00  0.00    +0.000 HD
ENDBRANCH  18  21
ENDBRANCH   1  19
TORSDOF 6
ENDMDL
MODEL 4
REMARK VINA RESULT:    -8.164      1.436      1.862
REMARK INTER + INTRA:         -11.736
REMARK INTER:                 -10.853
REMARK INTRA:                  -0.883
REMARK UNBOUND:                -0.947
REMARK  Name = 
REMARK  6 active torsions:
REMARK  status: ('A' for Active; 'I' for Inactive)
REMARK    1  A    between atoms: C_2  and  C_19
REMARK    2  A    between atoms: N_3  and  C_4
REMARK    3  A    between atoms: C_4  and  C_5
REMARK    4  A    between atoms: C_8  and  C_9
REMARK    5  A    between atoms: C_9  and  O_10
REMARK    6  A    between atoms: C_9  and  C_11
REMARK                            x       y       z     vdW  Elec       q    Type
REMARK                         _______ _______ _______ _____ _____    ______ ____
ROOT
ATOM      1  C   UNL     1      48.117   7.566  13.678  0.00  0.00    +0.000 C 
ENDROOT
BRANCH   1   2
ATOM      2  C   UNL     1      47.124   6.741  12.901  0.00  0.00    +0.000 A 
ATOM      3  C   UNL     1      46.474   7.292  11.789  0.00  0.00    +0.000 A 
ATOM      4  C   UNL     1      45.576   6.533  11.034  0.00  0.00    +0.000 A 
ATOM      5  C   UNL     1      45.306   5.199  11.373  0.00  0.00    +0.000 A 
ATOM      6  C   UNL     1      45.926   4.664  12.515  0.00  0.00    +0.000 A 
ATOM      7  C   UNL     1      46.821   5.426  13.272  0.00  0.00    +0.000 A 
BRANCH   5   8
ATOM      8  C   UNL     1      44.369   4.352  10.518  0.00  0.00    +0.000 C 
BRANCH   8   9
ATOM      9  C   UNL     1      45.070   3.644   9.368  0.00  0.00    +0.000 A 
ATOM     10  C   UNL     1      45.167   2.243   9.369  0.00  0.00    +0.000 A 
ATOM     11  C   UNL     1      45.887   1.574   8.376  0.00  0.00    +0.000 A 
ATOM     12  C   UNL     1      46.495   2.293   7.350  0.00  0.00    +0.000 A 
ATOM     13  C   UNL     1      46.366   3.678   7.302  0.00  0.00    +0.000 A 
ATOM     14  C   UNL     1      45.657   4.348   8.301  0.00  0.00    +0.000 A 
ENDBRANCH   8   9
BRANCH   8  15
ATOM     15  O   UNL     1      43.310   5.178  10.022  0.00  0.00    +0.000 OA
ATOM     16  H   UNL     1      43.379   6.032  10.473  0.00  0.00    +0.000 HD
ENDBRANCH   8  15
ENDBRANCH   5   8
ENDBRANCH   1   2
BRANCH   1  19
ATOM     17  O   UNL     1      50.128   6.664  15.438  0.00  0.00    +0.000 OA
ATOM     18  C   UNL     1      49.032   6.981  15.886  0.00  0.00    +0.000 C 
ATOM     19  N   UNL     1      47.983   7.375  15.095  0.00  0.00    +0.000 N 
ATOM     20  H   UNL     1      47.183   7.826  15.522  0.00  0.00    +0.000 HD
BRANCH  18  21
ATOM     21  C   UNL     1      48.745   6.916  17.319  0.00  0.00    +0.000 A 
ATOM     22  C   UNL     1      48.356   8.047  18.023  0.00  0.00    +0.000 A 
ATOM     23  S   UNL     1      48.054   7.746  19.676  0.00  0.00    +0.000 S 
ATOM     24  C   UNL     1      48.417   6.085  19.501  0.00  0.00    +0.000 A 
ATOM     25  N   UNL     1      48.323   5.221  20.540  0.00  0.00    +0.000 NA
ATOM     26  C   UNL     1      48.589   3.996  20.245  0.00  0.00    +0.000 A 
ATOM     27  N   UNL     1      48.947   3.549  18.999  0.00  0.00    +0.000 N 
ATOM     28  C   UNL     1      49.129   4.392  17.934  0.00  0.00    +0.000 A 
ATOM     29  O   UNL     1      49.599   3.981  16.883  0.00  0.00    +0.000 OA
ATOM     30  C   UNL     1      48.781   5.780  18.203  0.00  0.00    +0.000 A 
ATOM     31  H   UNL     1      49.187   2.583  18.835  0.00  0.00    +0.000 HD
ENDBRANCH  18  21
ENDBRANCH   1  19
TORSDOF 6
ENDMDL
MODEL 5
REMARK VINA RESULT:    -8.095      2.757      4.336
REMARK INTER + INTRA:         -11.645
REMARK INTER:                 -10.621
REMARK INTRA:                  -1.024
REMARK UNBOUND:                -0.947
REMARK  Name = 
REMARK  6 active torsions:
REMARK  status: ('A' for Active; 'I' for Inactive)
REMARK    1  A    between atoms: C_2  and  C_19
REMARK    2  A    between atoms: N_3  and  C_4
REMARK    3  A    between atoms: C_4  and  C_5
REMARK    4  A    between atoms: C_8  and  C_9
REMARK    5  A    between atoms: C_9  and  O_10
REMARK    6  A    between atoms: C_9  and  C_11
REMARK                            x       y       z     vdW  Elec       q    Type
REMARK                         _______ _______ _______ _____ _____    ______ ____
ROOT
ATOM      1  C   UNL     1      47.022   5.361  14.348  0.00  0.00    +0.000 C 
ENDROOT
BRANCH   1   2
ATOM      2  C   UNL     1      46.311   4.894  13.103  0.00  0.00    +0.000 A 
ATOM      3  C   UNL     1      46.159   5.763  12.016  0.00  0.00    +0.000 A 
ATOM      4  C   UNL     1      45.534   5.339  10.840  0.00  0.00    +0.000 A 
ATOM      5  C   UNL     1      45.047   4.028  10.723  0.00  0.00    +0.000 A 
ATOM      6  C   UNL     1      45.163   3.173  11.832  0.00  0.00    +0.000 A 
ATOM      7  C   UNL     1      45.784   3.601  13.009  0.00  0.00    +0.000 A 
BRANCH   5   8
ATOM      8  C   UNL     1      44.416   3.546   9.421  0.00  0.00    +0.000 C 
BRANCH   8   9
ATOM      9  C   UNL     1      45.414   2.923   8.456  0.00  0.00    +0.000 A 
ATOM     10  C   UNL     1      45.930   3.689   7.398  0.00  0.00    +0.000 A 
ATOM     11  C   UNL     1      46.774   3.116   6.443  0.00  0.00    +0.000 A 
ATOM     12  C   UNL     1      47.138   1.776   6.548  0.00  0.00    +0.000 A 
ATOM     13  C   UNL     1      46.678   1.014   7.618  0.00  0.00    +0.000 A 
ATOM     14  C   UNL     1      45.826   1.583   8.567  0.00  0.00    +0.000 A 
ENDBRANCH   8   9
BRANCH   8  15
ATOM     15  O   UNL     1      43.735   4.639   8.795  0.00  0.00    +0.000 OA
ATOM     16  H   UNL     1      44.019   5.448   9.246  0.00  0.00    +0.000 HD
ENDBRANCH   8  15
ENDBRANCH   5   8
ENDBRANCH   1   2
BRANCH   1  19
ATOM     17  O   UNL     1      49.508   6.325  15.265  0.00  0.00    +0.000 OA
ATOM     18  C   UNL     1      48.763   7.074  14.644  0.00  0.00    +0.000 C 
ATOM     19  N   UNL     1      47.515   6.703  14.212  0.00  0.00    +0.000 N 
ATOM     20  H   UNL     1      47.037   7.277  13.528  0.00  0.00    +0.000 HD
BRANCH  18  21
ATOM     21  C   UNL     1      49.140   8.458  14.354  0.00  0.00    +0.000 A 
ATOM     22  C   UNL     1      49.726   8.800  13.143  0.00  0.00    +0.000 A 
ATOM     23  S   UNL     1      50.069  10.467  13.004  0.00  0.00    +0.000 S 
ATOM     24  C   UNL     1      49.426  10.789  14.555  0.00  0.00    +0.000 A 
ATOM     25  N   UNL     1      49.374  12.046  15.058  0.00  0.00    +0.000 NA
ATOM     26  C   UNL     1      48.825  12.135  16.221  0.00  0.00    +0.000 A 
ATOM     27  N   UNL     1      48.325  11.078  16.936  0.00  0.00    +0.000 N 
ATOM     28  C   UNL     1      48.422   9.781  16.505  0.00  0.00    +0.000 A 
ATOM     29  O   UNL     1      48.108   8.853  17.237  0.00  0.00    +0.000 OA
ATOM     30  C   UNL     1      48.980   9.634  15.168  0.00  0.00    +0.000 A 
ATOM     31  H   UNL     1      47.946  11.202  17.862  0.00  0.00    +0.000 HD
ENDBRANCH  18  21
ENDBRANCH   1  19
TORSDOF 6
ENDMDL
MODEL 6
REMARK VINA RESULT:    -7.878      2.550      3.477
REMARK INTER + INTRA:         -11.358
REMARK INTER:                 -10.169
REMARK INTRA:                  -1.189
REMARK UNBOUND:                -0.947
REMARK  Name = 
REMARK  6 active torsions:
REMARK  status: ('A' for Active; 'I' for Inactive)
REMARK    1  A    between atoms: C_2  and  C_19
REMARK    2  A    between atoms: N_3  and  C_4
REMARK    3  A    between atoms: C_4  and  C_5
REMARK    4  A    between atoms: C_8  and  C_9
REMARK    5  A    between atoms: C_9  and  O_10
REMARK    6  A    between atoms: C_9  and  C_11
REMARK                            x       y       z     vdW  Elec       q    Type
REMARK                         _______ _______ _______ _____ _____    ______ ____
ROOT
ATOM      1  C   UNL     1      46.468   5.825  14.026  0.00  0.00    +0.000 C 
ENDROOT
BRANCH   1   2
ATOM      2  C   UNL     1      45.994   5.202  12.738  0.00  0.00    +0.000 A 
ATOM      3  C   UNL     1      45.567   3.868  12.721  0.00  0.00    +0.000 A 
ATOM      4  C   UNL     1      45.091   3.282  11.545  0.00  0.00    +0.000 A 
ATOM      5  C   UNL     1      45.028   4.021  10.353  0.00  0.00    +0.000 A 
ATOM      6  C   UNL     1      45.499   5.345  10.365  0.00  0.00    +0.000 A 
ATOM      7  C   UNL     1      45.979   5.928  11.541  0.00  0.00    +0.000 A 
BRANCH   5   8
ATOM      8  C   UNL     1      44.457   3.400   9.083  0.00  0.00    +0.000 C 
BRANCH   8   9
ATOM      9  C   UNL     1      45.516   2.801   8.169  0.00  0.00    +0.000 A 
ATOM     10  C   UNL     1      46.000   3.547   7.082  0.00  0.00    +0.000 A 
ATOM     11  C   UNL     1      46.902   2.988   6.173  0.00  0.00    +0.000 A 
ATOM     12  C   UNL     1      47.356   1.684   6.355  0.00  0.00    +0.000 A 
ATOM     13  C   UNL     1      46.929   0.947   7.455  0.00  0.00    +0.000 A 
ATOM     14  C   UNL     1      46.019   1.502   8.357  0.00  0.00    +0.000 A 
ENDBRANCH   8   9
BRANCH   8  15
ATOM     15  O   UNL     1      43.693   4.386   8.380  0.00  0.00    +0.000 OA
ATOM     16  H   UNL     1      42.759   4.157   8.493  0.00  0.00    +0.000 HD
ENDBRANCH   8  15
ENDBRANCH   5   8
ENDBRANCH   1   2
BRANCH   1  19
ATOM     17  O   UNL     1      47.199   8.548  14.035  0.00  0.00    +0.000 OA
ATOM     18  C   UNL     1      48.072   7.689  13.978  0.00  0.00    +0.000 C 
ATOM     19  N   UNL     1      47.801   6.346  13.912  0.00  0.00    +0.000 N 
ATOM     20  H   UNL     1      48.545   5.682  14.084  0.00  0.00    +0.000 HD
BRANCH  18  21
ATOM     21  C   UNL     1      49.491   8.044  13.928  0.00  0.00    +0.000 A 
ATOM     22  C   UNL     1      49.976   8.914  12.962  0.00  0.00    +0.000 A 
ATOM     23  S   UNL     1      51.653   9.207  13.095  0.00  0.00    +0.000 S 
ATOM     24  C   UNL     1      51.782   8.191  14.464  0.00  0.00    +0.000 A 
ATOM     25  N   UNL     1      52.957   8.015  15.113  0.00  0.00    +0.000 NA
ATOM     26  C   UNL     1      52.888   7.254  16.150  0.00  0.00    +0.000 A 
ATOM     27  N   UNL     1      51.746   6.643  16.601  0.00  0.00    +0.000 N 
ATOM     28  C   UNL     1      50.550   6.728  15.937  0.00  0.00    +0.000 A 
ATOM     29  O   UNL     1      49.595   6.046  16.279  0.00  0.00    +0.000 OA
ATOM     30  C   UNL     1      50.563   7.627  14.792  0.00  0.00    +0.000 A 
ATOM     31  H   UNL     1      51.761   6.020  17.394  0.00  0.00    +0.000 HD
ENDBRANCH  18  21
ENDBRANCH   1  19
TORSDOF 6
ENDMDL
MODEL 7
REMARK VINA RESULT:    -7.784      2.688      4.154
REMARK INTER + INTRA:         -11.234
REMARK INTER:                  -9.976
REMARK INTRA:                  -1.258
REMARK UNBOUND:                -0.947
REMARK  Name = 
REMARK  6 active torsions:
REMARK  status: ('A' for Active; 'I' for Inactive)
REMARK    1  A    between atoms: C_2  and  C_19
REMARK    2  A    between atoms: N_3  and  C_4
REMARK    3  A    between atoms: C_4  and  C_5
REMARK    4  A    between atoms: C_8  and  C_9
REMARK    5  A    between atoms: C_9  and  O_10
REMARK    6  A    between atoms: C_9  and  C_11
REMARK                            x       y       z     vdW  Elec       q    Type
REMARK                         _______ _______ _______ _____ _____    ______ ____
ROOT
ATOM      1  C   UNL     1      46.289   5.674  14.049  0.00  0.00    +0.000 C 
ENDROOT
BRANCH   1   2
ATOM      2  C   UNL     1      45.875   5.081  12.727  0.00  0.00    +0.000 A 
ATOM      3  C   UNL     1      45.481   3.739  12.655  0.00  0.00    +0.000 A 
ATOM      4  C   UNL     1      45.061   3.179  11.445  0.00  0.00    +0.000 A 
ATOM      5  C   UNL     1      45.022   3.951  10.275  0.00  0.00    +0.000 A 
ATOM      6  C   UNL     1      45.460   5.285  10.343  0.00  0.00    +0.000 A 
ATOM      7  C   UNL     1      45.885   5.842  11.552  0.00  0.00    +0.000 A 
BRANCH   5   8
ATOM      8  C   UNL     1      44.510   3.357   8.967  0.00  0.00    +0.000 C 
BRANCH   8   9
ATOM      9  C   UNL     1      45.616   2.830   8.065  0.00  0.00    +0.000 A 
ATOM     10  C   UNL     1      46.073   3.614   6.993  0.00  0.00    +0.000 A 
ATOM     11  C   UNL     1      47.020   3.116   6.094  0.00  0.00    +0.000 A 
ATOM     12  C   UNL     1      47.545   1.839   6.270  0.00  0.00    +0.000 A 
ATOM     13  C   UNL     1      47.144   1.067   7.356  0.00  0.00    +0.000 A 
ATOM     14  C   UNL     1      46.190   1.559   8.249  0.00  0.00    +0.000 A 
ENDBRANCH   8   9
BRANCH   8  15
ATOM     15  O   UNL     1      43.731   4.340   8.276  0.00  0.00    +0.000 OA
ATOM     16  H   UNL     1      42.923   3.902   7.972  0.00  0.00    +0.000 HD
ENDBRANCH   8  15
ENDBRANCH   5   8
ENDBRANCH   1   2
BRANCH   1  19
ATOM     17  O   UNL     1      46.890   8.429  14.040  0.00  0.00    +0.000 OA
ATOM     18  C   UNL     1      47.804   7.612  14.042  0.00  0.00    +0.000 C 
ATOM     19  N   UNL     1      47.600   6.257  13.989  0.00  0.00    +0.000 N 
ATOM     20  H   UNL     1      48.366   5.632  14.210  0.00  0.00    +0.000 HD
BRANCH  18  21
ATOM     21  C   UNL     1      49.205   8.034  14.054  0.00  0.00    +0.000 A 
ATOM     22  C   UNL     1      49.808   8.478  15.224  0.00  0.00    +0.000 A 
ATOM     23  S   UNL     1      51.449   8.904  15.020  0.00  0.00    +0.000 S 
ATOM     24  C   UNL     1      51.412   8.490  13.362  0.00  0.00    +0.000 A 
ATOM     25  N   UNL     1      52.514   8.582  12.579  0.00  0.00    +0.000 NA
ATOM     26  C   UNL     1      52.341   8.197  11.362  0.00  0.00    +0.000 A 
ATOM     27  N   UNL     1      51.159   7.728  10.847  0.00  0.00    +0.000 N 
ATOM     28  C   UNL     1      49.999   7.687  11.576  0.00  0.00    +0.000 A 
ATOM     29  O   UNL     1      48.934   7.414  11.042  0.00  0.00    +0.000 OA
ATOM     30  C   UNL     1      50.158   8.055  12.976  0.00  0.00    +0.000 A 
ATOM     31  H   UNL     1      51.071   7.482   9.874  0.00  0.00    +0.000 HD
ENDBRANCH  18  21
ENDBRANCH   1  19
TORSDOF 6
ENDMDL
MODEL 8
REMARK VINA RESULT:    -7.134      3.807      8.083
REMARK INTER + INTRA:         -10.375
REMARK INTER:                  -9.074
REMARK INTRA:                  -1.301
REMARK UNBOUND:                -0.947
REMARK  Name = 
REMARK  6 active torsions:
REMARK  status: ('A' for Active; 'I' for Inactive)
REMARK    1  A    between atoms: C_2  and  C_19
REMARK    2  A    between atoms: N_3  and  C_4
REMARK    3  A    between atoms: C_4  and  C_5
REMARK    4  A    between atoms: C_8  and  C_9
REMARK    5  A    between atoms: C_9  and  O_10
REMARK    6  A    between atoms: C_9  and  C_11
REMARK                            x       y       z     vdW  Elec       q    Type
REMARK                         _______ _______ _______ _____ _____    ______ ____
ROOT
ATOM      1  C   UNL     1      48.427   7.697  14.172  0.00  0.00    +0.000 C 
ENDROOT
BRANCH   1   2
ATOM      2  C   UNL     1      49.007   6.867  15.288  0.00  0.00    +0.000 A 
ATOM      3  C   UNL     1      50.361   6.993  15.623  0.00  0.00    +0.000 A 
ATOM      4  C   UNL     1      50.911   6.258  16.677  0.00  0.00    +0.000 A 
ATOM      5  C   UNL     1      50.116   5.378  17.425  0.00  0.00    +0.000 A 
ATOM      6  C   UNL     1      48.769   5.221  17.058  0.00  0.00    +0.000 A 
ATOM      7  C   UNL     1      48.221   5.953  16.000  0.00  0.00    +0.000 A 
BRANCH   5   8
ATOM      8  C   UNL     1      50.701   4.617  18.611  0.00  0.00    +0.000 C 
BRANCH   8   9
ATOM      9  C   UNL     1      51.470   3.366  18.211  0.00  0.00    +0.000 A 
ATOM     10  C   UNL     1      50.813   2.340  17.514  0.00  0.00    +0.000 A 
ATOM     11  C   UNL     1      51.468   1.141  17.218  0.00  0.00    +0.000 A 
ATOM     12  C   UNL     1      52.798   0.964  17.589  0.00  0.00    +0.000 A 
ATOM     13  C   UNL     1      53.482   1.989  18.235  0.00  0.00    +0.000 A 
ATOM     14  C   UNL     1      52.825   3.183  18.541  0.00  0.00    +0.000 A 
ENDBRANCH   8   9
BRANCH   8  15
ATOM     15  O   UNL     1      49.649   4.285  19.523  0.00  0.00    +0.000 OA
ATOM     16  H   UNL     1      49.490   5.066  20.073  0.00  0.00    +0.000 HD
ENDBRANCH   8  15
ENDBRANCH   5   8
ENDBRANCH   1   2
BRANCH   1  19
ATOM     17  O   UNL     1      47.603   7.413  11.490  0.00  0.00    +0.000 OA
ATOM     18  C   UNL     1      46.865   7.032  12.392  0.00  0.00    +0.000 C 
ATOM     19  N   UNL     1      47.164   7.183  13.722  0.00  0.00    +0.000 N 
ATOM     20  H   UNL     1      46.633   6.665  14.410  0.00  0.00    +0.000 HD
BRANCH  18  21
ATOM     21  C   UNL     1      45.568   6.417  12.108  0.00  0.00    +0.000 A 
ATOM     22  C   UNL     1      44.529   7.160  11.564  0.00  0.00    +0.000 A 
ATOM     23  S   UNL     1      43.112   6.245  11.295  0.00  0.00    +0.000 S 
ATOM     24  C   UNL     1      43.848   4.820  11.883  0.00  0.00    +0.000 A 
ATOM     25  N   UNL     1      43.193   3.635  11.902  0.00  0.00    +0.000 NA
ATOM     26  C   UNL     1      43.892   2.642  12.334  0.00  0.00    +0.000 A 
ATOM     27  N   UNL     1      45.194   2.724  12.758  0.00  0.00    +0.000 N 
ATOM     28  C   UNL     1      45.875   3.912  12.829  0.00  0.00    +0.000 A 
ATOM     29  O   UNL     1      46.976   3.970  13.357  0.00  0.00    +0.000 OA
ATOM     30  C   UNL     1      45.148   5.053  12.294  0.00  0.00    +0.000 A 
ATOM     31  H   UNL     1      45.678   1.921  13.128  0.00  0.00    +0.000 HD
ENDBRANCH  18  21
ENDBRANCH   1  19
TORSDOF 6
ENDMDL
MODEL 9
REMARK VINA RESULT:    -6.890      4.772      7.399
REMARK INTER + INTRA:         -10.053
REMARK INTER:                  -8.908
REMARK INTRA:                  -1.145
REMARK UNBOUND:                -0.947
REMARK  Name = 
REMARK  6 active torsions:
REMARK  status: ('A' for Active; 'I' for Inactive)
REMARK    1  A    between atoms: C_2  and  C_19
REMARK    2  A    between atoms: N_3  and  C_4
REMARK    3  A    between atoms: C_4  and  C_5
REMARK    4  A    between atoms: C_8  and  C_9
REMARK    5  A    between atoms: C_9  and  O_10
REMARK    6  A    between atoms: C_9  and  C_11
REMARK                            x       y       z     vdW  Elec       q    Type
REMARK                         _______ _______ _______ _____ _____    ______ ____
ROOT
ATOM      1  C   UNL     1      46.695   8.434  12.517  0.00  0.00    +0.000 C 
ENDROOT
BRANCH   1   2
ATOM      2  C   UNL     1      48.156   8.471  12.150  0.00  0.00    +0.000 A 
ATOM      3  C   UNL     1      48.929   7.306  12.233  0.00  0.00    +0.000 A 
ATOM      4  C   UNL     1      50.277   7.311  11.864  0.00  0.00    +0.000 A 
ATOM      5  C   UNL     1      50.885   8.486  11.398  0.00  0.00    +0.000 A 
ATOM      6  C   UNL     1      50.118   9.663  11.358  0.00  0.00    +0.000 A 
ATOM      7  C   UNL     1      48.771   9.657  11.733  0.00  0.00    +0.000 A 
BRANCH   5   8
ATOM      8  C   UNL     1      52.341   8.480  10.941  0.00  0.00    +0.000 C 
BRANCH   8   9
ATOM      9  C   UNL     1      52.504   8.324   9.436  0.00  0.00    +0.000 A 
ATOM     10  C   UNL     1      52.477   7.043   8.863  0.00  0.00    +0.000 A 
ATOM     11  C   UNL     1      52.719   6.863   7.498  0.00  0.00    +0.000 A 
ATOM     12  C   UNL     1      52.963   7.965   6.682  0.00  0.00    +0.000 A 
ATOM     13  C   UNL     1      52.943   9.247   7.222  0.00  0.00    +0.000 A 
ATOM     14  C   UNL     1      52.712   9.426   8.588  0.00  0.00    +0.000 A 
ENDBRANCH   8   9
BRANCH   8  15
ATOM     15  O   UNL     1      53.045   7.441  11.629  0.00  0.00    +0.000 OA
ATOM     16  H   UNL     1      52.813   6.606  11.198  0.00  0.00    +0.000 HD
ENDBRANCH   8  15
ENDBRANCH   5   8
ENDBRANCH   1   2
BRANCH   1  19
ATOM     17  O   UNL     1      44.366   7.720  11.096  0.00  0.00    +0.000 OA
ATOM     18  C   UNL     1      45.032   6.847  11.641  0.00  0.00    +0.000 C 
ATOM     19  N   UNL     1      46.144   7.113  12.398  0.00  0.00    +0.000 N 
ATOM     20  H   UNL     1      46.771   6.355  12.639  0.00  0.00    +0.000 HD
BRANCH  18  21
ATOM     21  C   UNL     1      44.654   5.436  11.559  0.00  0.00    +0.000 A 
ATOM     22  C   UNL     1      43.998   4.810  12.610  0.00  0.00    +0.000 A 
ATOM     23  S   UNL     1      43.633   3.170  12.300  0.00  0.00    +0.000 S 
ATOM     24  C   UNL     1      44.327   3.249  10.740  0.00  0.00    +0.000 A 
ATOM     25  N   UNL     1      44.324   2.184   9.903  0.00  0.00    +0.000 NA
ATOM     26  C   UNL     1      44.847   2.408   8.747  0.00  0.00    +0.000 A 
ATOM     27  N   UNL     1      45.381   3.606   8.346  0.00  0.00    +0.000 N 
ATOM     28  C   UNL     1      45.475   4.690   9.180  0.00  0.00    +0.000 A 
ATOM     29  O   UNL     1      46.097   5.687   8.841  0.00  0.00    +0.000 OA
ATOM     30  C   UNL     1      44.843   4.505  10.478  0.00  0.00    +0.000 A 
ATOM     31  H   UNL     1      45.817   3.711   7.443  0.00  0.00    +0.000 HD
ENDBRANCH  18  21
ENDBRANCH   1  19
TORSDOF 6
ENDMDL
