MODEL 1
REMARK VINA RESULT:    -9.140      0.000      0.000
REMARK INTER + INTRA:         -13.709
REMARK INTER:                 -12.880
REMARK INTRA:                  -0.829
REMARK UNBOUND:                -0.829
REMARK  Name = 
REMARK  7 active torsions:
REMARK  status: ('A' for Active; 'I' for Inactive)
REMARK    1  A    between atoms: C_2  and  C_3
REMARK    2  A    between atoms: C_2  and  C_19
REMARK    3  A    between atoms: C_3  and  C_4
REMARK    4  A    between atoms: C_4  and  C_5
REMARK    5  A    between atoms: C_8  and  C_9
REMARK    6  A    between atoms: C_9  and  N_10
REMARK    7  A    between atoms: N_10  and  C_11
REMARK                            x       y       z     vdW  Elec       q    Type
REMARK                         _______ _______ _______ _____ _____    ______ ____
ROOT
ATOM      1  C   UNL     1      46.961   5.002  14.586  0.00  0.00    +0.000 C 
ENDROOT
BRANCH   1   2
ATOM      2  C   UNL     1      46.229   4.817  13.280  0.00  0.00    +0.000 A 
ATOM      3  C   UNL     1      45.459   3.672  13.038  0.00  0.00    +0.000 A 
ATOM      4  C   UNL     1      44.792   3.510  11.821  0.00  0.00    +0.000 A 
ATOM      5  C   UNL     1      44.874   4.494  10.829  0.00  0.00    +0.000 A 
ATOM      6  C   UNL     1      45.638   5.643  11.078  0.00  0.00    +0.000 A 
ATOM      7  C   UNL     1      46.310   5.802  12.290  0.00  0.00    +0.000 A 
BRANCH   5   8
ATOM      8  C   UNL     1      44.193   4.317   9.491  0.00  0.00    +0.000 C 
BRANCH   8   9
ATOM      9  N   UNL     1      45.100   4.584   8.372  0.00  0.00    +0.000 NA
ATOM     10  H   UNL     1      45.917   5.083   8.720  0.00  0.00    +0.000 HD
BRANCH   9  11
ATOM     11  C   UNL     1      45.510   3.365   7.658  0.00  0.00    +0.000 C 
ATOM     12  C   UNL     1      45.894   2.207   8.600  0.00  0.00    +0.000 C 
ATOM     13  C   UNL     1      46.444   1.005   7.834  0.00  0.00    +0.000 C 
ATOM     14  C   UNL     1      47.631   1.397   6.966  0.00  0.00    +0.000 C 
ATOM     15  C   UNL     1      47.251   2.515   6.001  0.00  0.00    +0.000 C 
ATOM     16  C   UNL     1      46.692   3.730   6.739  0.00  0.00    +0.000 C 
ENDBRANCH   9  11
ENDBRANCH   8   9
ENDBRANCH   5   8
ENDBRANCH   1   2
BRANCH   1  17
ATOM     17  C   UNL     1      47.511   3.682  15.118  0.00  0.00    +0.000 C 
BRANCH  17  19
ATOM     18  O   UNL     1      46.573   3.237  17.282  0.00  0.00    +0.000 OA
ATOM     19  C   UNL     1      47.529   3.655  16.636  0.00  0.00    +0.000 C 
BRANCH  19  20
ATOM     20  C   UNL     1      48.718   4.192  17.308  0.00  0.00    +0.000 A 
ATOM     21  C   UNL     1      48.768   5.461  17.862  0.00  0.00    +0.000 A 
ATOM     22  S   UNL     1      50.240   5.786  18.665  0.00  0.00    +0.000 S 
ATOM     23  C   UNL     1      50.858   4.250  18.269  0.00  0.00    +0.000 A 
ATOM     24  N   UNL     1      52.102   3.871  18.666  0.00  0.00    +0.000 NA
ATOM     25  C   UNL     1      52.435   2.680  18.297  0.00  0.00    +0.000 A 
ATOM     26  N   UNL     1      51.643   1.836  17.559  0.00  0.00    +0.000 N 
ATOM     27  C   UNL     1      50.416   2.208  17.055  0.00  0.00    +0.000 A 
ATOM     28  O   UNL     1      49.838   1.507  16.235  0.00  0.00    +0.000 OA
ATOM     29  C   UNL     1      49.966   3.508  17.517  0.00  0.00    +0.000 A 
ATOM     30  H   UNL     1      51.987   0.940  17.250  0.00  0.00    +0.000 HD
ENDBRANCH  19  20
ENDBRANCH  17  19
ENDBRANCH   1  17
TORSDOF 7
ENDMDL
MODEL 2
REMARK VINA RESULT:    -8.672      2.397      3.224
REMARK INTER + INTRA:         -13.050
REMARK INTER:                 -11.562
REMARK INTRA:                  -1.487
REMARK UNBOUND:                -0.829
REMARK  Name = 
REMARK  7 active torsions:
REMARK  status: ('A' for Active; 'I' for Inactive)
REMARK    1  A    between atoms: C_2  and  C_3
REMARK    2  A    between atoms: C_2  and  C_19
REMARK    3  A    between atoms: C_3  and  C_4
REMARK    4  A    between atoms: C_4  and  C_5
REMARK    5  A    between atoms: C_8  and  C_9
REMARK    6  A    between atoms: C_9  and  N_10
REMARK    7  A    between atoms: N_10  and  C_11
REMARK                            x       y       z     vdW  Elec       q    Type
REMARK                         _______ _______ _______ _____ _____    ______ ____
ROOT
ATOM      1  C   UNL     1      46.238   7.936  13.281  0.00  0.00    +0.000 C 
ENDROOT
BRANCH   1   2
ATOM      2  C   UNL     1      45.746   6.798  12.423  0.00  0.00    +0.000 A 
ATOM      3  C   UNL     1      46.216   6.623  11.114  0.00  0.00    +0.000 A 
ATOM      4  C   UNL     1      45.747   5.569  10.327  0.00  0.00    +0.000 A 
ATOM      5  C   UNL     1      44.807   4.664  10.836  0.00  0.00    +0.000 A 
ATOM      6  C   UNL     1      44.347   4.836  12.148  0.00  0.00    +0.000 A 
ATOM      7  C   UNL     1      44.809   5.893  12.933  0.00  0.00    +0.000 A 
BRANCH   5   8
ATOM      8  C   UNL     1      44.258   3.542   9.984  0.00  0.00    +0.000 C 
BRANCH   8   9
ATOM      9  N   UNL     1      44.290   3.868   8.557  0.00  0.00    +0.000 NA
ATOM     10  H   UNL     1      44.666   4.808   8.440  0.00  0.00    +0.000 HD
BRANCH   9  11
ATOM     11  C   UNL     1      45.065   2.904   7.761  0.00  0.00    +0.000 C 
ATOM     12  C   UNL     1      45.679   1.770   8.606  0.00  0.00    +0.000 C 
ATOM     13  C   UNL     1      46.587   0.865   7.777  0.00  0.00    +0.000 C 
ATOM     14  C   UNL     1      47.684   1.664   7.087  0.00  0.00    +0.000 C 
ATOM     15  C   UNL     1      47.088   2.764   6.216  0.00  0.00    +0.000 C 
ATOM     16  C   UNL     1      46.169   3.682   7.019  0.00  0.00    +0.000 C 
ENDBRANCH   9  11
ENDBRANCH   8   9
ENDBRANCH   5   8
ENDBRANCH   1   2
BRANCH   1  17
ATOM     17  C   UNL     1      47.720   8.214  13.058  0.00  0.00    +0.000 C 
BRANCH  17  19
ATOM     18  O   UNL     1      49.190   6.344  12.736  0.00  0.00    +0.000 OA
ATOM     19  C   UNL     1      48.584   7.058  13.530  0.00  0.00    +0.000 C 
BRANCH  19  20
ATOM     20  C   UNL     1      48.631   6.792  14.973  0.00  0.00    +0.000 A 
ATOM     21  C   UNL     1      49.207   7.661  15.886  0.00  0.00    +0.000 A 
ATOM     22  S   UNL     1      49.032   7.146  17.505  0.00  0.00    +0.000 S 
ATOM     23  C   UNL     1      48.206   5.737  17.025  0.00  0.00    +0.000 A 
ATOM     24  N   UNL     1      47.760   4.838  17.943  0.00  0.00    +0.000 NA
ATOM     25  C   UNL     1      47.149   3.822  17.435  0.00  0.00    +0.000 A 
ATOM     26  N   UNL     1      46.950   3.616  16.093  0.00  0.00    +0.000 N 
ATOM     27  C   UNL     1      47.463   4.447  15.121  0.00  0.00    +0.000 A 
ATOM     28  O   UNL     1      47.443   4.120  13.942  0.00  0.00    +0.000 OA
ATOM     29  C   UNL     1      48.084   5.648  15.651  0.00  0.00    +0.000 A 
ATOM     30  H   UNL     1      46.519   2.768  15.756  0.00  0.00    +0.000 HD
ENDBRANCH  19  20
ENDBRANCH  17  19
ENDBRANCH   1  17
TORSDOF 7
ENDMDL
MODEL 3
REMARK VINA RESULT:    -8.018      2.083      2.666
REMARK INTER + INTRA:         -12.128
REMARK INTER:                 -11.124
REMARK INTRA:                  -1.004
REMARK UNBOUND:                -0.829
REMARK  Name = 
REMARK  7 active torsions:
REMARK  status: ('A' for Active; 'I' for Inactive)
REMARK    1  A    between atoms: C_2  and  C_3
REMARK    2  A    between atoms: C_2  and  C_19
REMARK    3  A    between atoms: C_3  and  C_4
REMARK    4  A    between atoms: C_4  and  C_5
REMARK    5  A    between atoms: C_8  and  C_9
REMARK    6  A    between atoms: C_9  and  N_10
REMARK    7  A    between atoms: N_10  and  C_11
REMARK                            x       y       z     vdW  Elec       q    Type
REMARK                         _______ _______ _______ _____ _____    ______ ____
ROOT
ATOM      1  C   UNL     1      47.703   6.864  13.627  0.00  0.00    +0.000 C 
ENDROOT
BRANCH   1   2
ATOM      2  C   UNL     1      46.794   6.083  12.711  0.00  0.00    +0.000 A 
ATOM      3  C   UNL     1      46.530   6.523  11.408  0.00  0.00    +0.000 A 
ATOM      4  C   UNL     1      45.680   5.795  10.571  0.00  0.00    +0.000 A 
ATOM      5  C   UNL     1      45.088   4.608  11.019  0.00  0.00    +0.000 A 
ATOM      6  C   UNL     1      45.362   4.166  12.320  0.00  0.00    +0.000 A 
ATOM      7  C   UNL     1      46.204   4.896  13.159  0.00  0.00    +0.000 A 
BRANCH   5   8
ATOM      8  C   UNL     1      44.134   3.829  10.143  0.00  0.00    +0.000 C 
BRANCH   8   9
ATOM      9  N   UNL     1      44.265   4.190   8.729  0.00  0.00    +0.000 NA
ATOM     10  H   UNL     1      44.748   5.084   8.660  0.00  0.00    +0.000 HD
BRANCH   9  11
ATOM     11  C   UNL     1      44.962   3.168   7.934  0.00  0.00    +0.000 C 
ATOM     12  C   UNL     1      45.467   1.980   8.776  0.00  0.00    +0.000 C 
ATOM     13  C   UNL     1      46.303   1.006   7.949  0.00  0.00    +0.000 C 
ATOM     14  C   UNL     1      47.471   1.712   7.276  0.00  0.00    +0.000 C 
ATOM     15  C   UNL     1      46.981   2.864   6.407  0.00  0.00    +0.000 C 
ATOM     16  C   UNL     1      46.136   3.853   7.208  0.00  0.00    +0.000 C 
ENDBRANCH   9  11
ENDBRANCH   8   9
ENDBRANCH   5   8
ENDBRANCH   1   2
BRANCH   1  17
ATOM     17  C   UNL     1      48.185   6.019  14.802  0.00  0.00    +0.000 C 
BRANCH  17  19
ATOM     18  O   UNL     1      50.253   7.177  15.175  0.00  0.00    +0.000 OA
ATOM     19  C   UNL     1      49.199   6.765  15.650  0.00  0.00    +0.000 C 
BRANCH  19  20
ATOM     20  C   UNL     1      48.895   6.935  17.076  0.00  0.00    +0.000 A 
ATOM     21  C   UNL     1      48.458   8.131  17.621  0.00  0.00    +0.000 A 
ATOM     22  S   UNL     1      48.087   8.015  19.284  0.00  0.00    +0.000 S 
ATOM     23  C   UNL     1      48.527   6.371  19.324  0.00  0.00    +0.000 A 
ATOM     24  N   UNL     1      48.441   5.649  20.473  0.00  0.00    +0.000 NA
ATOM     25  C   UNL     1      48.804   4.417  20.352  0.00  0.00    +0.000 A 
ATOM     26  N   UNL     1      49.254   3.841  19.190  0.00  0.00    +0.000 N 
ATOM     27  C   UNL     1      49.446   4.552  18.026  0.00  0.00    +0.000 A 
ATOM     28  O   UNL     1      50.041   4.053  17.078  0.00  0.00    +0.000 OA
ATOM     29  C   UNL     1      48.971   5.922  18.094  0.00  0.00    +0.000 A 
ATOM     30  H   UNL     1      49.582   2.887  19.177  0.00  0.00    +0.000 HD
ENDBRANCH  19  20
ENDBRANCH  17  19
ENDBRANCH   1  17
TORSDOF 7
ENDMDL
MODEL 4
REMARK VINA RESULT:    -7.930      5.160      6.863
REMARK INTER + INTRA:         -12.003
REMARK INTER:                 -10.510
REMARK INTRA:                  -1.493
REMARK UNBOUND:                -0.829
REMARK  Name = 
REMARK  7 active torsions:
REMARK  status: ('A' for Active; 'I' for Inactive)
REMARK    1  A    between atoms: C_2  and  C_3
REMARK    2  A    between atoms: C_2  and  C_19
REMARK    3  A    between atoms: C_3  and  C_4
REMARK    4  A    between atoms: C_4  and  C_5
REMARK    5  A    between atoms: C_8  and  C_9
REMARK    6  A    between atoms: C_9  and  N_10
REMARK    7  A    between atoms: N_10  and  C_11
REMARK                            x       y       z     vdW  Elec       q    Type
REMARK                         _______ _______ _______ _____ _____    ______ ____
ROOT
ATOM      1  C   UNL     1      47.673   6.658  13.695  0.00  0.00    +0.000 C 
ENDROOT
BRANCH   1   2
ATOM      2  C   UNL     1      46.761   5.917  12.749  0.00  0.00    +0.000 A 
ATOM      3  C   UNL     1      46.503   6.406  11.461  0.00  0.00    +0.000 A 
ATOM      4  C   UNL     1      45.651   5.714  10.597  0.00  0.00    +0.000 A 
ATOM      5  C   UNL     1      45.050   4.516  11.000  0.00  0.00    +0.000 A 
ATOM      6  C   UNL     1      45.318   4.025  12.285  0.00  0.00    +0.000 A 
ATOM      7  C   UNL     1      46.162   4.719  13.151  0.00  0.00    +0.000 A 
BRANCH   5   8
ATOM      8  C   UNL     1      44.093   3.775  10.094  0.00  0.00    +0.000 C 
BRANCH   8   9
ATOM      9  N   UNL     1      44.260   4.154   8.689  0.00  0.00    +0.000 NA
ATOM     10  H   UNL     1      44.747   5.048   8.644  0.00  0.00    +0.000 HD
BRANCH   9  11
ATOM     11  C   UNL     1      44.975   3.141   7.898  0.00  0.00    +0.000 C 
ATOM     12  C   UNL     1      45.441   1.933   8.734  0.00  0.00    +0.000 C 
ATOM     13  C   UNL     1      46.295   0.966   7.915  0.00  0.00    +0.000 C 
ATOM     14  C   UNL     1      47.491   1.674   7.295  0.00  0.00    +0.000 C 
ATOM     15  C   UNL     1      47.040   2.847   6.432  0.00  0.00    +0.000 C 
ATOM     16  C   UNL     1      46.178   3.829   7.224  0.00  0.00    +0.000 C 
ENDBRANCH   9  11
ENDBRANCH   8   9
ENDBRANCH   5   8
ENDBRANCH   1   2
BRANCH   1  17
ATOM     17  C   UNL     1      48.521   7.696  12.968  0.00  0.00    +0.000 C 
BRANCH  17  19
ATOM     18  O   UNL     1      48.238   9.315  14.716  0.00  0.00    +0.000 OA
ATOM     19  C   UNL     1      48.282   9.094  13.510  0.00  0.00    +0.000 C 
BRANCH  19  20
ATOM     20  C   UNL     1      48.056  10.168  12.535  0.00  0.00    +0.000 A 
ATOM     21  C   UNL     1      49.056  11.026  12.106  0.00  0.00    +0.000 A 
ATOM     22  S   UNL     1      48.534  12.115  10.898  0.00  0.00    +0.000 S 
ATOM     23  C   UNL     1      46.953  11.487  10.938  0.00  0.00    +0.000 A 
ATOM     24  N   UNL     1      45.980  11.982  10.127  0.00  0.00    +0.000 NA
ATOM     25  C   UNL     1      44.834  11.406  10.264  0.00  0.00    +0.000 A 
ATOM     26  N   UNL     1      44.566  10.389  11.144  0.00  0.00    +0.000 N 
ATOM     27  C   UNL     1      45.490   9.917  12.050  0.00  0.00    +0.000 A 
ATOM     28  O   UNL     1      45.153   9.159  12.951  0.00  0.00    +0.000 OA
ATOM     29  C   UNL     1      46.818  10.477  11.873  0.00  0.00    +0.000 A 
ATOM     30  H   UNL     1      43.631  10.024  11.247  0.00  0.00    +0.000 HD
ENDBRANCH  19  20
ENDBRANCH  17  19
ENDBRANCH   1  17
TORSDOF 7
ENDMDL
MODEL 5
REMARK VINA RESULT:    -7.929      2.072      2.746
REMARK INTER + INTRA:         -12.002
REMARK INTER:                 -11.050
REMARK INTRA:                  -0.952
REMARK UNBOUND:                -0.829
REMARK  Name = 
REMARK  7 active torsions:
REMARK  status: ('A' for Active; 'I' for Inactive)
REMARK    1  A    between atoms: C_2  and  C_3
REMARK    2  A    between atoms: C_2  and  C_19
REMARK    3  A    between atoms: C_3  and  C_4
REMARK    4  A    between atoms: C_4  and  C_5
REMARK    5  A    between atoms: C_8  and  C_9
REMARK    6  A    between atoms: C_9  and  N_10
REMARK    7  A    between atoms: N_10  and  C_11
REMARK                            x       y       z     vdW  Elec       q    Type
REMARK                         _______ _______ _______ _____ _____    ______ ____
ROOT
ATOM      1  C   UNL     1      47.437   5.361  14.662  0.00  0.00    +0.000 C 
ENDROOT
BRANCH   1   2
ATOM      2  C   UNL     1      46.635   5.109  13.411  0.00  0.00    +0.000 A 
ATOM      3  C   UNL     1      46.462   6.113  12.448  0.00  0.00    +0.000 A 
ATOM      4  C   UNL     1      45.710   5.869  11.296  0.00  0.00    +0.000 A 
ATOM      5  C   UNL     1      45.126   4.616  11.080  0.00  0.00    +0.000 A 
ATOM      6  C   UNL     1      45.309   3.611  12.040  0.00  0.00    +0.000 A 
ATOM      7  C   UNL     1      46.053   3.855  13.194  0.00  0.00    +0.000 A 
BRANCH   5   8
ATOM      8  C   UNL     1      44.275   4.347   9.860  0.00  0.00    +0.000 C 
BRANCH   8   9
ATOM      9  N   UNL     1      44.975   4.677   8.617  0.00  0.00    +0.000 NA
ATOM     10  H   UNL     1      45.788   5.250   8.838  0.00  0.00    +0.000 HD
BRANCH   9  11
ATOM     11  C   UNL     1      45.379   3.491   7.848  0.00  0.00    +0.000 C 
ATOM     12  C   UNL     1      45.670   2.262   8.732  0.00  0.00    +0.000 C 
ATOM     13  C   UNL     1      46.216   1.089   7.921  0.00  0.00    +0.000 C 
ATOM     14  C   UNL     1      47.461   1.487   7.142  0.00  0.00    +0.000 C 
ATOM     15  C   UNL     1      47.176   2.677   6.233  0.00  0.00    +0.000 C 
ATOM     16  C   UNL     1      46.622   3.864   7.018  0.00  0.00    +0.000 C 
ENDBRANCH   9  11
ENDBRANCH   8   9
ENDBRANCH   5   8
ENDBRANCH   1   2
BRANCH   1  17
ATOM     17  C   UNL     1      47.201   4.281  15.714  0.00  0.00    +0.000 C 
BRANCH  17  19
ATOM     18  O   UNL     1      49.147   3.390  16.798  0.00  0.00    +0.000 OA
ATOM     19  C   UNL     1      48.296   4.274  16.765  0.00  0.00    +0.000 C 
BRANCH  19  20
ATOM     20  C   UNL     1      48.272   5.339  17.774  0.00  0.00    +0.000 A 
ATOM     21  C   UNL     1      47.293   5.439  18.750  0.00  0.00    +0.000 A 
ATOM     22  S   UNL     1      47.568   6.716  19.849  0.00  0.00    +0.000 S 
ATOM     23  C   UNL     1      48.988   7.185  19.034  0.00  0.00    +0.000 A 
ATOM     24  N   UNL     1      49.732   8.237  19.470  0.00  0.00    +0.000 NA
ATOM     25  C   UNL     1      50.781   8.473  18.756  0.00  0.00    +0.000 A 
ATOM     26  N   UNL     1      51.150   7.762  17.642  0.00  0.00    +0.000 N 
ATOM     27  C   UNL     1      50.382   6.750  17.109  0.00  0.00    +0.000 A 
ATOM     28  O   UNL     1      50.639   6.284  16.006  0.00  0.00    +0.000 OA
ATOM     29  C   UNL     1      49.237   6.394  17.928  0.00  0.00    +0.000 A 
ATOM     30  H   UNL     1      51.949   8.038  17.092  0.00  0.00    +0.000 HD
ENDBRANCH  19  20
ENDBRANCH  17  19
ENDBRANCH   1  17
TORSDOF 7
ENDMDL
MODEL 6
REMARK VINA RESULT:    -7.608      3.049      4.139
REMARK INTER + INTRA:         -11.550
REMARK INTER:                 -10.542
REMARK INTRA:                  -1.008
REMARK UNBOUND:                -0.829
REMARK  Name = 
REMARK  7 active torsions:
REMARK  status: ('A' for Active; 'I' for Inactive)
REMARK    1  A    between atoms: C_2  and  C_3
REMARK    2  A    between atoms: C_2  and  C_19
REMARK    3  A    between atoms: C_3  and  C_4
REMARK    4  A    between atoms: C_4  and  C_5
REMARK    5  A    between atoms: C_8  and  C_9
REMARK    6  A    between atoms: C_9  and  N_10
REMARK    7  A    between atoms: N_10  and  C_11
REMARK                            x       y       z     vdW  Elec       q    Type
REMARK                         _______ _______ _______ _____ _____    ______ ____
ROOT
ATOM      1  C   UNL     1      47.812   6.126  14.013  0.00  0.00    +0.000 C 
ENDROOT
BRANCH   1   2
ATOM      2  C   UNL     1      46.845   5.450  13.073  0.00  0.00    +0.000 A 
ATOM      3  C   UNL     1      46.364   6.109  11.934  0.00  0.00    +0.000 A 
ATOM      4  C   UNL     1      45.463   5.475  11.074  0.00  0.00    +0.000 A 
ATOM      5  C   UNL     1      45.035   4.167  11.332  0.00  0.00    +0.000 A 
ATOM      6  C   UNL     1      45.526   3.508  12.467  0.00  0.00    +0.000 A 
ATOM      7  C   UNL     1      46.420   4.143  13.330  0.00  0.00    +0.000 A 
BRANCH   5   8
ATOM      8  C   UNL     1      44.030   3.481  10.437  0.00  0.00    +0.000 C 
BRANCH   8   9
ATOM      9  N   UNL     1      44.572   2.262   9.833  0.00  0.00    +0.000 NA
ATOM     10  H   UNL     1      43.822   1.769   9.351  0.00  0.00    +0.000 HD
BRANCH   9  11
ATOM     11  C   UNL     1      45.689   2.520   8.912  0.00  0.00    +0.000 C 
ATOM     12  C   UNL     1      45.361   3.576   7.838  0.00  0.00    +0.000 C 
ATOM     13  C   UNL     1      46.487   3.724   6.817  0.00  0.00    +0.000 C 
ATOM     14  C   UNL     1      46.819   2.390   6.163  0.00  0.00    +0.000 C 
ATOM     15  C   UNL     1      47.186   1.347   7.213  0.00  0.00    +0.000 C 
ATOM     16  C   UNL     1      46.078   1.183   8.253  0.00  0.00    +0.000 C 
ENDBRANCH   9  11
ENDBRANCH   8   9
ENDBRANCH   5   8
ENDBRANCH   1   2
BRANCH   1  17
ATOM     17  C   UNL     1      47.786   5.495  15.401  0.00  0.00    +0.000 C 
BRANCH  17  19
ATOM     18  O   UNL     1      50.011   6.227  15.926  0.00  0.00    +0.000 OA
ATOM     19  C   UNL     1      48.852   6.088  16.305  0.00  0.00    +0.000 C 
BRANCH  19  20
ATOM     20  C   UNL     1      48.456   6.447  17.672  0.00  0.00    +0.000 A 
ATOM     21  C   UNL     1      48.348   5.522  18.699  0.00  0.00    +0.000 A 
ATOM     22  S   UNL     1      47.966   6.231  20.204  0.00  0.00    +0.000 S 
ATOM     23  C   UNL     1      47.909   7.788  19.518  0.00  0.00    +0.000 A 
ATOM     24  N   UNL     1      47.630   8.880  20.279  0.00  0.00    +0.000 NA
ATOM     25  C   UNL     1      47.625   9.993  19.625  0.00  0.00    +0.000 A 
ATOM     26  N   UNL     1      47.862  10.114  18.279  0.00  0.00    +0.000 N 
ATOM     27  C   UNL     1      48.056   9.030  17.451  0.00  0.00    +0.000 A 
ATOM     28  O   UNL     1      48.057   9.165  16.234  0.00  0.00    +0.000 OA
ATOM     29  C   UNL     1      48.155   7.766  18.158  0.00  0.00    +0.000 A 
ATOM     30  H   UNL     1      47.781  11.006  17.816  0.00  0.00    +0.000 HD
ENDBRANCH  19  20
ENDBRANCH  17  19
ENDBRANCH   1  17
TORSDOF 7
ENDMDL
MODEL 7
REMARK VINA RESULT:    -7.411      3.771      9.844
REMARK INTER + INTRA:         -11.272
REMARK INTER:                 -10.036
REMARK INTRA:                  -1.236
REMARK UNBOUND:                -0.829
REMARK  Name = 
REMARK  7 active torsions:
REMARK  status: ('A' for Active; 'I' for Inactive)
REMARK    1  A    between atoms: C_2  and  C_3
REMARK    2  A    between atoms: C_2  and  C_19
REMARK    3  A    between atoms: C_3  and  C_4
REMARK    4  A    between atoms: C_4  and  C_5
REMARK    5  A    between atoms: C_8  and  C_9
REMARK    6  A    between atoms: C_9  and  N_10
REMARK    7  A    between atoms: N_10  and  C_11
REMARK                            x       y       z     vdW  Elec       q    Type
REMARK                         _______ _______ _______ _____ _____    ______ ____
ROOT
ATOM      1  C   UNL     1      47.206   6.218  12.534  0.00  0.00    +0.000 C 
ENDROOT
BRANCH   1   2
ATOM      2  C   UNL     1      47.543   5.826  13.951  0.00  0.00    +0.000 A 
ATOM      3  C   UNL     1      48.420   6.597  14.725  0.00  0.00    +0.000 A 
ATOM      4  C   UNL     1      48.730   6.219  16.034  0.00  0.00    +0.000 A 
ATOM      5  C   UNL     1      48.162   5.070  16.596  0.00  0.00    +0.000 A 
ATOM      6  C   UNL     1      47.278   4.306  15.821  0.00  0.00    +0.000 A 
ATOM      7  C   UNL     1      46.973   4.678  14.512  0.00  0.00    +0.000 A 
BRANCH   5   8
ATOM      8  C   UNL     1      48.518   4.623  17.995  0.00  0.00    +0.000 C 
BRANCH   8   9
ATOM      9  N   UNL     1      47.489   4.993  18.969  0.00  0.00    +0.000 NA
ATOM     10  H   UNL     1      47.225   4.166  19.502  0.00  0.00    +0.000 HD
BRANCH   9  11
ATOM     11  C   UNL     1      47.912   6.071  19.876  0.00  0.00    +0.000 C 
ATOM     12  C   UNL     1      47.376   5.905  21.312  0.00  0.00    +0.000 C 
ATOM     13  C   UNL     1      47.718   7.105  22.193  0.00  0.00    +0.000 C 
ATOM     14  C   UNL     1      47.205   8.402  21.583  0.00  0.00    +0.000 C 
ATOM     15  C   UNL     1      47.760   8.598  20.177  0.00  0.00    +0.000 C 
ATOM     16  C   UNL     1      47.439   7.409  19.275  0.00  0.00    +0.000 C 
ENDBRANCH   9  11
ENDBRANCH   8   9
ENDBRANCH   5   8
ENDBRANCH   1   2
BRANCH   1  17
ATOM     17  C   UNL     1      46.179   7.344  12.487  0.00  0.00    +0.000 C 
BRANCH  17  19
ATOM     18  O   UNL     1      44.377   7.827  10.977  0.00  0.00    +0.000 OA
ATOM     19  C   UNL     1      44.986   6.979  11.623  0.00  0.00    +0.000 C 
BRANCH  19  20
ATOM     20  C   UNL     1      44.554   5.576  11.624  0.00  0.00    +0.000 A 
ATOM     21  C   UNL     1      43.894   4.986  12.690  0.00  0.00    +0.000 A 
ATOM     22  S   UNL     1      43.424   3.374  12.379  0.00  0.00    +0.000 S 
ATOM     23  C   UNL     1      44.114   3.415  10.823  0.00  0.00    +0.000 A 
ATOM     24  N   UNL     1      44.059   2.332  10.002  0.00  0.00    +0.000 NA
ATOM     25  C   UNL     1      44.620   2.510   8.854  0.00  0.00    +0.000 A 
ATOM     26  N   UNL     1      45.240   3.666   8.453  0.00  0.00    +0.000 N 
ATOM     27  C   UNL     1      45.403   4.756   9.280  0.00  0.00    +0.000 A 
ATOM     28  O   UNL     1      46.138   5.681   8.959  0.00  0.00    +0.000 OA
ATOM     29  C   UNL     1      44.713   4.631  10.552  0.00  0.00    +0.000 A 
ATOM     30  H   UNL     1      45.714   3.719   7.565  0.00  0.00    +0.000 HD
ENDBRANCH  19  20
ENDBRANCH  17  19
ENDBRANCH   1  17
TORSDOF 7
ENDMDL
MODEL 8
REMARK VINA RESULT:    -7.354      3.420      8.986
REMARK INTER + INTRA:         -11.193
REMARK INTER:                  -9.941
REMARK INTRA:                  -1.252
REMARK UNBOUND:                -0.829
REMARK  Name = 
REMARK  7 active torsions:
REMARK  status: ('A' for Active; 'I' for Inactive)
REMARK    1  A    between atoms: C_2  and  C_3
REMARK    2  A    between atoms: C_2  and  C_19
REMARK    3  A    between atoms: C_3  and  C_4
REMARK    4  A    between atoms: C_4  and  C_5
REMARK    5  A    between atoms: C_8  and  C_9
REMARK    6  A    between atoms: C_9  and  N_10
REMARK    7  A    between atoms: N_10  and  C_11
REMARK                            x       y       z     vdW  Elec       q    Type
REMARK                         _______ _______ _______ _____ _____    ______ ____
ROOT
ATOM      1  C   UNL     1      47.153   6.326  12.568  0.00  0.00    +0.000 C 
ENDROOT
BRANCH   1   2
ATOM      2  C   UNL     1      47.511   5.844  13.951  0.00  0.00    +0.000 A 
ATOM      3  C   UNL     1      46.978   4.653  14.462  0.00  0.00    +0.000 A 
ATOM      4  C   UNL     1      47.313   4.221  15.748  0.00  0.00    +0.000 A 
ATOM      5  C   UNL     1      48.194   4.965  16.542  0.00  0.00    +0.000 A 
ATOM      6  C   UNL     1      48.732   6.150  16.023  0.00  0.00    +0.000 A 
ATOM      7  C   UNL     1      48.393   6.587  14.743  0.00  0.00    +0.000 A 
BRANCH   5   8
ATOM      8  C   UNL     1      48.535   4.534  17.950  0.00  0.00    +0.000 C 
BRANCH   8   9
ATOM      9  N   UNL     1      49.946   4.760  18.268  0.00  0.00    +0.000 NA
ATOM     10  H   UNL     1      50.061   4.756  19.281  0.00  0.00    +0.000 HD
BRANCH   9  11
ATOM     11  C   UNL     1      50.844   3.774  17.648  0.00  0.00    +0.000 C 
ATOM     12  C   UNL     1      50.249   2.353  17.602  0.00  0.00    +0.000 C 
ATOM     13  C   UNL     1      51.254   1.329  17.078  0.00  0.00    +0.000 C 
ATOM     14  C   UNL     1      52.535   1.340  17.899  0.00  0.00    +0.000 C 
ATOM     15  C   UNL     1      53.155   2.733  17.918  0.00  0.00    +0.000 C 
ATOM     16  C   UNL     1      52.169   3.780  18.433  0.00  0.00    +0.000 C 
ENDBRANCH   9  11
ENDBRANCH   8   9
ENDBRANCH   5   8
ENDBRANCH   1   2
BRANCH   1  17
ATOM     17  C   UNL     1      46.036   7.364  12.601  0.00  0.00    +0.000 C 
BRANCH  17  19
ATOM     18  O   UNL     1      44.292   7.823  11.018  0.00  0.00    +0.000 OA
ATOM     19  C   UNL     1      44.889   6.982  11.684  0.00  0.00    +0.000 C 
BRANCH  19  20
ATOM     20  C   UNL     1      44.484   5.571  11.658  0.00  0.00    +0.000 A 
ATOM     21  C   UNL     1      43.815   4.954  12.702  0.00  0.00    +0.000 A 
ATOM     22  S   UNL     1      43.383   3.337  12.361  0.00  0.00    +0.000 S 
ATOM     23  C   UNL     1      44.103   3.412  10.820  0.00  0.00    +0.000 A 
ATOM     24  N   UNL     1      44.085   2.340   9.984  0.00  0.00    +0.000 NA
ATOM     25  C   UNL     1      44.665   2.544   8.850  0.00  0.00    +0.000 A 
ATOM     26  N   UNL     1      45.270   3.718   8.477  0.00  0.00    +0.000 N 
ATOM     27  C   UNL     1      45.396   4.799   9.322  0.00  0.00    +0.000 A 
ATOM     28  O   UNL     1      46.119   5.743   9.028  0.00  0.00    +0.000 OA
ATOM     29  C   UNL     1      44.684   4.643  10.577  0.00  0.00    +0.000 A 
ATOM     30  H   UNL     1      45.762   3.792   7.599  0.00  0.00    +0.000 HD
ENDBRANCH  19  20
ENDBRANCH  17  19
ENDBRANCH   1  17
TORSDOF 7
ENDMDL
MODEL 9
REMARK VINA RESULT:    -7.171      2.203      2.976
REMARK INTER + INTRA:         -10.934
REMARK INTER:                  -9.935
REMARK INTRA:                  -1.000
REMARK UNBOUND:                -0.829
REMARK  Name = 
REMARK  7 active torsions:
REMARK  status: ('A' for Active; 'I' for Inactive)
REMARK    1  A    between atoms: C_2  and  C_3
REMARK    2  A    between atoms: C_2  and  C_19
REMARK    3  A    between atoms: C_3  and  C_4
REMARK    4  A    between atoms: C_4  and  C_5
REMARK    5  A    between atoms: C_8  and  C_9
REMARK    6  A    between atoms: C_9  and  N_10
REMARK    7  A    between atoms: N_10  and  C_11
REMARK                            x       y       z     vdW  Elec       q    Type
REMARK                         _______ _______ _______ _____ _____    ______ ____
ROOT
ATOM      1  C   UNL     1      48.267   6.373  13.908  0.00  0.00    +0.000 C 
ENDROOT
BRANCH   1   2
ATOM      2  C   UNL     1      47.120   5.929  13.035  0.00  0.00    +0.000 A 
ATOM      3  C   UNL     1      46.846   6.570  11.820  0.00  0.00    +0.000 A 
ATOM      4  C   UNL     1      45.776   6.154  11.024  0.00  0.00    +0.000 A 
ATOM      5  C   UNL     1      44.967   5.083  11.423  0.00  0.00    +0.000 A 
ATOM      6  C   UNL     1      45.250   4.439  12.635  0.00  0.00    +0.000 A 
ATOM      7  C   UNL     1      46.313   4.858  13.434  0.00  0.00    +0.000 A 
BRANCH   5   8
ATOM      8  C   UNL     1      43.780   4.646  10.595  0.00  0.00    +0.000 C 
BRANCH   8   9
ATOM      9  N   UNL     1      43.957   3.299  10.049  0.00  0.00    +0.000 NA
ATOM     10  H   UNL     1      43.146   3.065   9.478  0.00  0.00    +0.000 HD
BRANCH   9  11
ATOM     11  C   UNL     1      45.193   3.150   9.267  0.00  0.00    +0.000 C 
ATOM     12  C   UNL     1      45.253   4.079   8.038  0.00  0.00    +0.000 C 
ATOM     13  C   UNL     1      46.481   3.806   7.172  0.00  0.00    +0.000 C 
ATOM     14  C   UNL     1      46.539   2.348   6.737  0.00  0.00    +0.000 C 
ATOM     15  C   UNL     1      46.522   1.420   7.947  0.00  0.00    +0.000 C 
ATOM     16  C   UNL     1      45.305   1.675   8.835  0.00  0.00    +0.000 C 
ENDBRANCH   9  11
ENDBRANCH   8   9
ENDBRANCH   5   8
ENDBRANCH   1   2
BRANCH   1  17
ATOM     17  C   UNL     1      48.092   7.810  14.387  0.00  0.00    +0.000 C 
BRANCH  17  19
ATOM     18  O   UNL     1      48.250   8.793  16.571  0.00  0.00    +0.000 OA
ATOM     19  C   UNL     1      48.740   8.033  15.741  0.00  0.00    +0.000 C 
BRANCH  19  20
ATOM     20  C   UNL     1      50.007   7.340  16.007  0.00  0.00    +0.000 A 
ATOM     21  C   UNL     1      51.233   7.798  15.550  0.00  0.00    +0.000 A 
ATOM     22  S   UNL     1      52.547   6.850  16.089  0.00  0.00    +0.000 S 
ATOM     23  C   UNL     1      51.510   5.789  16.924  0.00  0.00    +0.000 A 
ATOM     24  N   UNL     1      52.003   4.730  17.621  0.00  0.00    +0.000 NA
ATOM     25  C   UNL     1      51.101   4.016  18.205  0.00  0.00    +0.000 A 
ATOM     26  N   UNL     1      49.751   4.256  18.149  0.00  0.00    +0.000 N 
ATOM     27  C   UNL     1      49.197   5.257  17.381  0.00  0.00    +0.000 A 
ATOM     28  O   UNL     1      47.988   5.308  17.195  0.00  0.00    +0.000 OA
ATOM     29  C   UNL     1      50.180   6.138  16.775  0.00  0.00    +0.000 A 
ATOM     30  H   UNL     1      49.093   3.622  18.576  0.00  0.00    +0.000 HD
ENDBRANCH  19  20
ENDBRANCH  17  19
ENDBRANCH   1  17
TORSDOF 7
ENDMDL
