MODEL 1
REMARK VINA RESULT:    -7.310      0.000      0.000
REMARK INTER + INTRA:          -9.362
REMARK INTER:                  -8.592
REMARK INTRA:                  -0.770
REMARK UNBOUND:                -0.770
REMARK  Name = 
REMARK  3 active torsions:
REMARK  status: ('A' for Active; 'I' for Inactive)
REMARK    1  A    between atoms: N_5  and  C_6
REMARK    2  A    between atoms: C_6  and  C_7
REMARK    3  A    between atoms: C_11  and  C_12
REMARK                            x       y       z     vdW  Elec       q    Type
REMARK                         _______ _______ _______ _____ _____    ______ ____
ROOT
ATOM      1  C   UNL     1      45.112   5.159  12.212  0.00  0.00    +0.000 A 
ATOM      2  C   UNL     1      45.641   4.229  13.117  0.00  0.00    +0.000 A 
ATOM      3  C   UNL     1      46.869   4.445  13.739  0.00  0.00    +0.000 A 
ATOM      4  C   UNL     1      47.599   5.601  13.458  0.00  0.00    +0.000 A 
ATOM      5  C   UNL     1      47.112   6.571  12.567  0.00  0.00    +0.000 A 
ATOM      6  C   UNL     1      45.848   6.343  11.992  0.00  0.00    +0.000 A 
ENDROOT
BRANCH   5   7
ATOM      7  C   UNL     1      47.929   7.743  12.179  0.00  0.00    +0.000 A 
ATOM      8  C   UNL     1      47.385   9.036  12.193  0.00  0.00    +0.000 A 
ATOM      9  C   UNL     1      48.186  10.120  11.872  0.00  0.00    +0.000 A 
ATOM     10  N   UNL     1      49.488  10.018  11.541  0.00  0.00    +0.000 NA
ATOM     11  C   UNL     1      50.007   8.773  11.532  0.00  0.00    +0.000 A 
ATOM     12  C   UNL     1      49.281   7.628  11.833  0.00  0.00    +0.000 A 
ENDBRANCH   5   7
BRANCH   1  13
ATOM     13  C   UNL     1      43.838   4.850  11.428  0.00  0.00    +0.000 C 
ATOM     14  C   UNL     1      42.497   5.155  12.090  0.00  0.00    +0.000 C 
ATOM     15  C   UNL     1      43.006   6.049  11.009  0.00  0.00    +0.000 C 
BRANCH  13  20
ATOM     16  C   UNL     1      46.358   2.736   7.500  0.00  0.00    +0.000 A 
ATOM     17  C   UNL     1      45.891   1.793   8.380  0.00  0.00    +0.000 A 
ATOM     18  N   UNL     1      45.099   2.082   9.427  0.00  0.00    +0.000 NA
ATOM     19  C   UNL     1      44.769   3.372   9.613  0.00  0.00    +0.000 A 
ATOM     20  N   UNL     1      43.880   3.600  10.664  0.00  0.00    +0.000 N 
ATOM     21  N   UNL     1      45.196   4.368   8.817  0.00  0.00    +0.000 NA
ATOM     22  C   UNL     1      45.973   4.026   7.771  0.00  0.00    +0.000 A 
ATOM     23  H   UNL     1      43.842   2.729  11.184  0.00  0.00    +0.000 HD
ENDBRANCH  13  20
ENDBRANCH   1  13
TORSDOF 3
ENDMDL
MODEL 2
REMARK VINA RESULT:    -7.293      2.290      3.636
REMARK INTER + INTRA:          -9.342
REMARK INTER:                  -8.828
REMARK INTRA:                  -0.515
REMARK UNBOUND:                -0.770
REMARK  Name = 
REMARK  3 active torsions:
REMARK  status: ('A' for Active; 'I' for Inactive)
REMARK    1  A    between atoms: N_5  and  C_6
REMARK    2  A    between atoms: C_6  and  C_7
REMARK    3  A    between atoms: C_11  and  C_12
REMARK                            x       y       z     vdW  Elec       q    Type
REMARK                         _______ _______ _______ _____ _____    ______ ____
ROOT
ATOM      1  C   UNL     1      45.422   5.364  12.004  0.00  0.00    +0.000 A 
ATOM      2  C   UNL     1      46.126   6.385  11.351  0.00  0.00    +0.000 A 
ATOM      3  C   UNL     1      47.299   6.911  11.889  0.00  0.00    +0.000 A 
ATOM      4  C   UNL     1      47.788   6.427  13.103  0.00  0.00    +0.000 A 
ATOM      5  C   UNL     1      47.129   5.398  13.795  0.00  0.00    +0.000 A 
ATOM      6  C   UNL     1      45.973   4.858  13.201  0.00  0.00    +0.000 A 
ENDROOT
BRANCH   5   7
ATOM      7  C   UNL     1      47.578   4.958  15.135  0.00  0.00    +0.000 A 
ATOM      8  C   UNL     1      48.321   5.815  15.961  0.00  0.00    +0.000 A 
ATOM      9  C   UNL     1      48.688   5.395  17.230  0.00  0.00    +0.000 A 
ATOM     10  N   UNL     1      48.369   4.192  17.742  0.00  0.00    +0.000 NA
ATOM     11  C   UNL     1      47.653   3.373  16.945  0.00  0.00    +0.000 A 
ATOM     12  C   UNL     1      47.246   3.703  15.659  0.00  0.00    +0.000 A 
ENDBRANCH   5   7
BRANCH   1  13
ATOM     13  C   UNL     1      44.066   4.891  11.483  0.00  0.00    +0.000 C 
ATOM     14  C   UNL     1      42.843   5.104  12.371  0.00  0.00    +0.000 C 
ATOM     15  C   UNL     1      43.053   5.980  11.182  0.00  0.00    +0.000 C 
BRANCH  13  20
ATOM     16  C   UNL     1      46.321   2.704   7.436  0.00  0.00    +0.000 A 
ATOM     17  C   UNL     1      45.981   1.785   8.395  0.00  0.00    +0.000 A 
ATOM     18  N   UNL     1      45.273   2.089   9.496  0.00  0.00    +0.000 NA
ATOM     19  C   UNL     1      44.900   3.371   9.656  0.00  0.00    +0.000 A 
ATOM     20  N   UNL     1      44.099   3.609  10.773  0.00  0.00    +0.000 N 
ATOM     21  N   UNL     1      45.206   4.345   8.782  0.00  0.00    +0.000 NA
ATOM     22  C   UNL     1      45.902   3.988   7.685  0.00  0.00    +0.000 A 
ATOM     23  H   UNL     1      44.148   2.763  11.332  0.00  0.00    +0.000 HD
ENDBRANCH  13  20
ENDBRANCH   1  13
TORSDOF 3
ENDMDL
MODEL 3
REMARK VINA RESULT:    -6.349      2.617      7.145
REMARK INTER + INTRA:          -8.233
REMARK INTER:                  -7.544
REMARK INTRA:                  -0.688
REMARK UNBOUND:                -0.770
REMARK  Name = 
REMARK  3 active torsions:
REMARK  status: ('A' for Active; 'I' for Inactive)
REMARK    1  A    between atoms: N_5  and  C_6
REMARK    2  A    between atoms: C_6  and  C_7
REMARK    3  A    between atoms: C_11  and  C_12
REMARK                            x       y       z     vdW  Elec       q    Type
REMARK                         _______ _______ _______ _____ _____    ______ ____
ROOT
ATOM      1  C   UNL     1      47.529   7.722  12.309  0.00  0.00    +0.000 A 
ATOM      2  C   UNL     1      46.640   8.785  12.519  0.00  0.00    +0.000 A 
ATOM      3  C   UNL     1      45.298   8.685  12.159  0.00  0.00    +0.000 A 
ATOM      4  C   UNL     1      44.819   7.515  11.570  0.00  0.00    +0.000 A 
ATOM      5  C   UNL     1      45.662   6.415  11.345  0.00  0.00    +0.000 A 
ATOM      6  C   UNL     1      47.001   6.532  11.763  0.00  0.00    +0.000 A 
ENDROOT
BRANCH   5   7
ATOM      7  C   UNL     1      45.189   5.214  10.620  0.00  0.00    +0.000 A 
ATOM      8  C   UNL     1      45.499   5.025   9.265  0.00  0.00    +0.000 A 
ATOM      9  C   UNL     1      45.084   3.869   8.622  0.00  0.00    +0.000 A 
ATOM     10  N   UNL     1      44.389   2.886   9.225  0.00  0.00    +0.000 NA
ATOM     11  C   UNL     1      44.096   3.071  10.527  0.00  0.00    +0.000 A 
ATOM     12  C   UNL     1      44.463   4.198  11.252  0.00  0.00    +0.000 A 
ENDBRANCH   5   7
BRANCH   1  13
ATOM     13  C   UNL     1      49.025   7.888  12.574  0.00  0.00    +0.000 C 
ATOM     14  C   UNL     1      49.948   8.085  11.374  0.00  0.00    +0.000 C 
ATOM     15  C   UNL     1      49.612   9.248  12.246  0.00  0.00    +0.000 C 
BRANCH  13  20
ATOM     16  C   UNL     1      48.682   7.203  17.640  0.00  0.00    +0.000 A 
ATOM     17  C   UNL     1      49.000   6.041  16.983  0.00  0.00    +0.000 A 
ATOM     18  N   UNL     1      49.264   5.981  15.666  0.00  0.00    +0.000 NA
ATOM     19  C   UNL     1      49.193   7.129  14.970  0.00  0.00    +0.000 A 
ATOM     20  N   UNL     1      49.556   7.019  13.628  0.00  0.00    +0.000 N 
ATOM     21  N   UNL     1      48.868   8.311  15.522  0.00  0.00    +0.000 NA
ATOM     22  C   UNL     1      48.629   8.323  16.847  0.00  0.00    +0.000 A 
ATOM     23  H   UNL     1      49.604   6.023  13.437  0.00  0.00    +0.000 HD
ENDBRANCH  13  20
ENDBRANCH   1  13
TORSDOF 3
ENDMDL
MODEL 4
REMARK VINA RESULT:    -5.961      1.889      6.460
REMARK INTER + INTRA:          -7.777
REMARK INTER:                  -7.299
REMARK INTRA:                  -0.478
REMARK UNBOUND:                -0.770
REMARK  Name = 
REMARK  3 active torsions:
REMARK  status: ('A' for Active; 'I' for Inactive)
REMARK    1  A    between atoms: N_5  and  C_6
REMARK    2  A    between atoms: C_6  and  C_7
REMARK    3  A    between atoms: C_11  and  C_12
REMARK                            x       y       z     vdW  Elec       q    Type
REMARK                         _______ _______ _______ _____ _____    ______ ____
ROOT
ATOM      1  C   UNL     1      45.268   5.209  11.994  0.00  0.00    +0.000 A 
ATOM      2  C   UNL     1      43.899   5.505  11.924  0.00  0.00    +0.000 A 
ATOM      3  C   UNL     1      43.120   5.062  10.858  0.00  0.00    +0.000 A 
ATOM      4  C   UNL     1      43.700   4.315   9.832  0.00  0.00    +0.000 A 
ATOM      5  C   UNL     1      45.064   3.980   9.857  0.00  0.00    +0.000 A 
ATOM      6  C   UNL     1      45.812   4.405  10.970  0.00  0.00    +0.000 A 
ENDROOT
BRANCH   5   7
ATOM      7  C   UNL     1      45.709   3.287   8.720  0.00  0.00    +0.000 A 
ATOM      8  C   UNL     1      45.870   1.893   8.725  0.00  0.00    +0.000 A 
ATOM      9  C   UNL     1      46.434   1.265   7.626  0.00  0.00    +0.000 A 
ATOM     10  N   UNL     1      46.847   1.915   6.521  0.00  0.00    +0.000 NA
ATOM     11  C   UNL     1      46.688   3.253   6.520  0.00  0.00    +0.000 A 
ATOM     12  C   UNL     1      46.140   3.971   7.575  0.00  0.00    +0.000 A 
ENDBRANCH   5   7
BRANCH   1  13
ATOM     13  C   UNL     1      46.145   5.817  13.089  0.00  0.00    +0.000 C 
ATOM     14  C   UNL     1      46.402   4.988  14.344  0.00  0.00    +0.000 C 
ATOM     15  C   UNL     1      47.481   5.138  13.324  0.00  0.00    +0.000 C 
BRANCH  13  20
ATOM     16  C   UNL     1      47.936  10.375  11.583  0.00  0.00    +0.000 A 
ATOM     17  C   UNL     1      46.625  10.442  11.982  0.00  0.00    +0.000 A 
ATOM     18  N   UNL     1      45.962   9.410  12.531  0.00  0.00    +0.000 NA
ATOM     19  C   UNL     1      46.632   8.253  12.676  0.00  0.00    +0.000 A 
ATOM     20  N   UNL     1      45.920   7.245  13.326  0.00  0.00    +0.000 N 
ATOM     21  N   UNL     1      47.910   8.085  12.295  0.00  0.00    +0.000 NA
ATOM     22  C   UNL     1      48.537   9.154  11.766  0.00  0.00    +0.000 A 
ATOM     23  H   UNL     1      44.959   7.570  13.365  0.00  0.00    +0.000 HD
ENDBRANCH  13  20
ENDBRANCH   1  13
TORSDOF 3
ENDMDL
MODEL 5
REMARK VINA RESULT:    -5.500      1.233      1.763
REMARK INTER + INTRA:          -7.235
REMARK INTER:                  -8.032
REMARK INTRA:                   0.796
REMARK UNBOUND:                -0.770
REMARK  Name = 
REMARK  3 active torsions:
REMARK  status: ('A' for Active; 'I' for Inactive)
REMARK    1  A    between atoms: N_5  and  C_6
REMARK    2  A    between atoms: C_6  and  C_7
REMARK    3  A    between atoms: C_11  and  C_12
REMARK                            x       y       z     vdW  Elec       q    Type
REMARK                         _______ _______ _______ _____ _____    ______ ____
ROOT
ATOM      1  C   UNL     1      45.626   5.062  11.559  0.00  0.00    +0.000 A 
ATOM      2  C   UNL     1      45.600   4.210  12.672  0.00  0.00    +0.000 A 
ATOM      3  C   UNL     1      46.405   4.452  13.783  0.00  0.00    +0.000 A 
ATOM      4  C   UNL     1      47.262   5.553  13.798  0.00  0.00    +0.000 A 
ATOM      5  C   UNL     1      47.321   6.444  12.715  0.00  0.00    +0.000 A 
ATOM      6  C   UNL     1      46.462   6.197  11.628  0.00  0.00    +0.000 A 
ENDROOT
BRANCH   5   7
ATOM      7  C   UNL     1      48.307   7.547  12.675  0.00  0.00    +0.000 A 
ATOM      8  C   UNL     1      48.534   8.349  13.804  0.00  0.00    +0.000 A 
ATOM      9  C   UNL     1      49.498   9.344  13.755  0.00  0.00    +0.000 A 
ATOM     10  N   UNL     1      50.255   9.601  12.672  0.00  0.00    +0.000 NA
ATOM     11  C   UNL     1      50.035   8.826  11.590  0.00  0.00    +0.000 A 
ATOM     12  C   UNL     1      49.088   7.810  11.543  0.00  0.00    +0.000 A 
ENDBRANCH   5   7
BRANCH   1  13
ATOM     13  C   UNL     1      44.850   4.714  10.289  0.00  0.00    +0.000 C 
ATOM     14  C   UNL     1      43.900   3.520  10.334  0.00  0.00    +0.000 C 
ATOM     15  C   UNL     1      43.346   4.905  10.356  0.00  0.00    +0.000 C 
BRANCH  13  20
ATOM     16  C   UNL     1      46.778   1.807   6.537  0.00  0.00    +0.000 A 
ATOM     17  C   UNL     1      46.504   3.082   6.112  0.00  0.00    +0.000 A 
ATOM     18  N   UNL     1      46.104   4.069   6.933  0.00  0.00    +0.000 NA
ATOM     19  C   UNL     1      45.956   3.766   8.235  0.00  0.00    +0.000 A 
ATOM     20  N   UNL     1      45.619   4.847   9.049  0.00  0.00    +0.000 N 
ATOM     21  N   UNL     1      46.178   2.540   8.740  0.00  0.00    +0.000 NA
ATOM     22  C   UNL     1      46.594   1.589   7.880  0.00  0.00    +0.000 A 
ATOM     23  H   UNL     1      45.365   5.599   8.416  0.00  0.00    +0.000 HD
ENDBRANCH  13  20
ENDBRANCH   1  13
TORSDOF 3
ENDMDL
MODEL 6
REMARK VINA RESULT:    -5.475      3.814      7.221
REMARK INTER + INTRA:          -7.206
REMARK INTER:                  -6.665
REMARK INTRA:                  -0.540
REMARK UNBOUND:                -0.770
REMARK  Name = 
REMARK  3 active torsions:
REMARK  status: ('A' for Active; 'I' for Inactive)
REMARK    1  A    between atoms: N_5  and  C_6
REMARK    2  A    between atoms: C_6  and  C_7
REMARK    3  A    between atoms: C_11  and  C_12
REMARK                            x       y       z     vdW  Elec       q    Type
REMARK                         _______ _______ _______ _____ _____    ______ ____
ROOT
ATOM      1  C   UNL     1      49.111   7.635  14.618  0.00  0.00    +0.000 A 
ATOM      2  C   UNL     1      50.083   7.952  13.658  0.00  0.00    +0.000 A 
ATOM      3  C   UNL     1      49.875   7.687  12.306  0.00  0.00    +0.000 A 
ATOM      4  C   UNL     1      48.686   7.090  11.887  0.00  0.00    +0.000 A 
ATOM      5  C   UNL     1      47.674   6.761  12.803  0.00  0.00    +0.000 A 
ATOM      6  C   UNL     1      47.897   7.083  14.155  0.00  0.00    +0.000 A 
ENDROOT
BRANCH   5   7
ATOM      7  C   UNL     1      46.460   6.025  12.382  0.00  0.00    +0.000 A 
ATOM      8  C   UNL     1      45.709   5.287  13.309  0.00  0.00    +0.000 A 
ATOM      9  C   UNL     1      44.550   4.647  12.898  0.00  0.00    +0.000 A 
ATOM     10  N   UNL     1      44.078   4.690  11.637  0.00  0.00    +0.000 NA
ATOM     11  C   UNL     1      44.802   5.403  10.751  0.00  0.00    +0.000 A 
ATOM     12  C   UNL     1      45.978   6.071  11.068  0.00  0.00    +0.000 A 
ENDBRANCH   5   7
BRANCH   1  13
ATOM     13  C   UNL     1      49.402   7.796  16.109  0.00  0.00    +0.000 C 
ATOM     14  C   UNL     1      49.913   9.148  16.598  0.00  0.00    +0.000 C 
ATOM     15  C   UNL     1      48.499   8.754  16.864  0.00  0.00    +0.000 C 
BRANCH  13  20
ATOM     16  C   UNL     1      48.195   3.118  17.816  0.00  0.00    +0.000 A 
ATOM     17  C   UNL     1      49.506   3.199  17.420  0.00  0.00    +0.000 A 
ATOM     18  N   UNL     1      50.098   4.347  17.045  0.00  0.00    +0.000 NA
ATOM     19  C   UNL     1      49.345   5.461  17.053  0.00  0.00    +0.000 A 
ATOM     20  N   UNL     1      50.034   6.631  16.735  0.00  0.00    +0.000 N 
ATOM     21  N   UNL     1      48.048   5.475  17.404  0.00  0.00    +0.000 NA
ATOM     22  C   UNL     1      47.504   4.304  17.787  0.00  0.00    +0.000 A 
ATOM     23  H   UNL     1      50.933   6.330  16.369  0.00  0.00    +0.000 HD
ENDBRANCH  13  20
ENDBRANCH   1  13
TORSDOF 3
ENDMDL
MODEL 7
REMARK VINA RESULT:    -5.316      2.926      4.667
REMARK INTER + INTRA:          -7.019
REMARK INTER:                  -6.435
REMARK INTRA:                  -0.584
REMARK UNBOUND:                -0.770
REMARK  Name = 
REMARK  3 active torsions:
REMARK  status: ('A' for Active; 'I' for Inactive)
REMARK    1  A    between atoms: N_5  and  C_6
REMARK    2  A    between atoms: C_6  and  C_7
REMARK    3  A    between atoms: C_11  and  C_12
REMARK                            x       y       z     vdW  Elec       q    Type
REMARK                         _______ _______ _______ _____ _____    ______ ____
ROOT
ATOM      1  C   UNL     1      46.627   7.323  12.732  0.00  0.00    +0.000 A 
ATOM      2  C   UNL     1      47.769   7.851  12.113  0.00  0.00    +0.000 A 
ATOM      3  C   UNL     1      49.044   7.585  12.607  0.00  0.00    +0.000 A 
ATOM      4  C   UNL     1      49.202   6.787  13.740  0.00  0.00    +0.000 A 
ATOM      5  C   UNL     1      48.093   6.223  14.393  0.00  0.00    +0.000 A 
ATOM      6  C   UNL     1      46.823   6.474  13.842  0.00  0.00    +0.000 A 
ENDROOT
BRANCH   5   7
ATOM      7  C   UNL     1      48.244   5.470  15.659  0.00  0.00    +0.000 A 
ATOM      8  C   UNL     1      49.218   5.835  16.600  0.00  0.00    +0.000 A 
ATOM      9  C   UNL     1      49.306   5.143  17.798  0.00  0.00    +0.000 A 
ATOM     10  N   UNL     1      48.496   4.120  18.133  0.00  0.00    +0.000 NA
ATOM     11  C   UNL     1      47.560   3.776  17.227  0.00  0.00    +0.000 A 
ATOM     12  C   UNL     1      47.401   4.405  15.998  0.00  0.00    +0.000 A 
ENDBRANCH   5   7
BRANCH   1  13
ATOM     13  C   UNL     1      45.228   7.732  12.273  0.00  0.00    +0.000 C 
ATOM     14  C   UNL     1      44.802   9.183  12.479  0.00  0.00    +0.000 C 
ATOM     15  C   UNL     1      45.168   8.708  11.112  0.00  0.00    +0.000 C 
BRANCH  13  20
ATOM     16  C   UNL     1      43.834   3.023  10.813  0.00  0.00    +0.000 A 
ATOM     17  C   UNL     1      43.415   3.313  12.087  0.00  0.00    +0.000 A 
ATOM     18  N   UNL     1      43.552   4.523  12.656  0.00  0.00    +0.000 NA
ATOM     19  C   UNL     1      44.146   5.484  11.927  0.00  0.00    +0.000 A 
ATOM     20  N   UNL     1      44.185   6.737  12.538  0.00  0.00    +0.000 N 
ATOM     21  N   UNL     1      44.608   5.288  10.680  0.00  0.00    +0.000 NA
ATOM     22  C   UNL     1      44.433   4.064  10.146  0.00  0.00    +0.000 A 
ATOM     23  H   UNL     1      43.920   6.579  13.505  0.00  0.00    +0.000 HD
ENDBRANCH  13  20
ENDBRANCH   1  13
TORSDOF 3
ENDMDL
MODEL 8
REMARK VINA RESULT:    -5.218      5.494      8.091
REMARK INTER + INTRA:          -6.904
REMARK INTER:                  -6.380
REMARK INTRA:                  -0.524
REMARK UNBOUND:                -0.770
REMARK  Name = 
REMARK  3 active torsions:
REMARK  status: ('A' for Active; 'I' for Inactive)
REMARK    1  A    between atoms: N_5  and  C_6
REMARK    2  A    between atoms: C_6  and  C_7
REMARK    3  A    between atoms: C_11  and  C_12
REMARK                            x       y       z     vdW  Elec       q    Type
REMARK                         _______ _______ _______ _____ _____    ______ ____
ROOT
ATOM      1  C   UNL     1      48.970   5.341  16.990  0.00  0.00    +0.000 A 
ATOM      2  C   UNL     1      47.868   4.566  16.603  0.00  0.00    +0.000 A 
ATOM      3  C   UNL     1      47.917   3.174  16.637  0.00  0.00    +0.000 A 
ATOM      4  C   UNL     1      49.080   2.527  17.055  0.00  0.00    +0.000 A 
ATOM      5  C   UNL     1      50.211   3.254  17.463  0.00  0.00    +0.000 A 
ATOM      6  C   UNL     1      50.112   4.658  17.460  0.00  0.00    +0.000 A 
ENDROOT
BRANCH   5   7
ATOM      7  C   UNL     1      51.484   2.577  17.798  0.00  0.00    +0.000 A 
ATOM      8  C   UNL     1      52.486   3.246  18.516  0.00  0.00    +0.000 A 
ATOM      9  C   UNL     1      53.649   2.573  18.859  0.00  0.00    +0.000 A 
ATOM     10  N   UNL     1      53.889   1.285  18.546  0.00  0.00    +0.000 NA
ATOM     11  C   UNL     1      52.921   0.646  17.859  0.00  0.00    +0.000 A 
ATOM     12  C   UNL     1      51.728   1.238  17.466  0.00  0.00    +0.000 A 
ENDBRANCH   5   7
BRANCH   1  13
ATOM     13  C   UNL     1      48.960   6.859  16.815  0.00  0.00    +0.000 C 
ATOM     14  C   UNL     1      48.957   7.725  18.072  0.00  0.00    +0.000 C 
ATOM     15  C   UNL     1      50.209   7.590  17.271  0.00  0.00    +0.000 C 
BRANCH  13  20
ATOM     16  C   UNL     1      49.101   7.642  11.754  0.00  0.00    +0.000 A 
ATOM     17  C   UNL     1      47.829   7.393  12.201  0.00  0.00    +0.000 A 
ATOM     18  N   UNL     1      47.509   7.273  13.501  0.00  0.00    +0.000 NA
ATOM     19  C   UNL     1      48.507   7.393  14.395  0.00  0.00    +0.000 A 
ATOM     20  N   UNL     1      48.102   7.341  15.729  0.00  0.00    +0.000 N 
ATOM     21  N   UNL     1      49.787   7.614  14.051  0.00  0.00    +0.000 NA
ATOM     22  C   UNL     1      50.055   7.744  12.737  0.00  0.00    +0.000 A 
ATOM     23  H   UNL     1      47.139   7.019  15.712  0.00  0.00    +0.000 HD
ENDBRANCH  13  20
ENDBRANCH   1  13
TORSDOF 3
ENDMDL
MODEL 9
REMARK VINA RESULT:    -5.134      1.902      6.789
REMARK INTER + INTRA:          -6.805
REMARK INTER:                  -6.264
REMARK INTRA:                  -0.541
REMARK UNBOUND:                -0.770
REMARK  Name = 
REMARK  3 active torsions:
REMARK  status: ('A' for Active; 'I' for Inactive)
REMARK    1  A    between atoms: N_5  and  C_6
REMARK    2  A    between atoms: C_6  and  C_7
REMARK    3  A    between atoms: C_11  and  C_12
REMARK                            x       y       z     vdW  Elec       q    Type
REMARK                         _______ _______ _______ _____ _____    ______ ____
ROOT
ATOM      1  C   UNL     1      48.043   7.374  12.934  0.00  0.00    +0.000 A 
ATOM      2  C   UNL     1      48.436   6.927  14.204  0.00  0.00    +0.000 A 
ATOM      3  C   UNL     1      47.901   5.766  14.757  0.00  0.00    +0.000 A 
ATOM      4  C   UNL     1      46.951   5.029  14.050  0.00  0.00    +0.000 A 
ATOM      5  C   UNL     1      46.529   5.423  12.770  0.00  0.00    +0.000 A 
ATOM      6  C   UNL     1      47.122   6.576  12.221  0.00  0.00    +0.000 A 
ENDROOT
BRANCH   5   7
ATOM      7  C   UNL     1      45.442   4.711  12.061  0.00  0.00    +0.000 A 
ATOM      8  C   UNL     1      44.688   3.723  12.712  0.00  0.00    +0.000 A 
ATOM      9  C   UNL     1      43.644   3.105  12.040  0.00  0.00    +0.000 A 
ATOM     10  N   UNL     1      43.290   3.399  10.774  0.00  0.00    +0.000 NA
ATOM     11  C   UNL     1      44.016   4.351  10.155  0.00  0.00    +0.000 A 
ATOM     12  C   UNL     1      45.082   5.019  10.743  0.00  0.00    +0.000 A 
ENDBRANCH   5   7
BRANCH   1  13
ATOM     13  C   UNL     1      48.524   8.720  12.394  0.00  0.00    +0.000 C 
ATOM     14  C   UNL     1      47.489   9.824  12.197  0.00  0.00    +0.000 C 
ATOM     15  C   UNL     1      48.431   9.893  13.352  0.00  0.00    +0.000 C 
BRANCH  13  20
ATOM     16  C   UNL     1      53.569   8.007  11.852  0.00  0.00    +0.000 A 
ATOM     17  C   UNL     1      52.867   7.577  10.755  0.00  0.00    +0.000 A 
ATOM     18  N   UNL     1      51.544   7.761  10.600  0.00  0.00    +0.000 NA
ATOM     19  C   UNL     1      50.889   8.391  11.592  0.00  0.00    +0.000 A 
ATOM     20  N   UNL     1      49.537   8.625  11.340  0.00  0.00    +0.000 N 
ATOM     21  N   UNL     1      51.487   8.827  12.714  0.00  0.00    +0.000 NA
ATOM     22  C   UNL     1      52.816   8.635  12.815  0.00  0.00    +0.000 A 
ATOM     23  H   UNL     1      49.312   8.073  10.518  0.00  0.00    +0.000 HD
ENDBRANCH  13  20
ENDBRANCH   1  13
TORSDOF 3
ENDMDL
