MODEL 1
REMARK VINA RESULT:    -8.197      0.000      0.000
REMARK INTER + INTRA:         -13.172
REMARK INTER:                 -12.031
REMARK INTRA:                  -1.141
REMARK UNBOUND:                -1.141
REMARK  Name = 
REMARK  10 active torsions:
REMARK  status: ('A' for Active; 'I' for Inactive)
REMARK    1  A    between atoms: C_1  and  C_2
REMARK    2  A    between atoms: C_2  and  C_3
REMARK    3  A    between atoms: C_2  and  N_10
REMARK    4  A    between atoms: C_3  and  C_4
REMARK    5  A    between atoms: N_10  and  C_11
REMARK    6  A    between atoms: C_11  and  C_12
REMARK    7  A    between atoms: C_15  and  C_16
REMARK    8  A    between atoms: C_16  and  N_17
REMARK    9  A    between atoms: N_17  and  C_18
REMARK   10  A    between atoms: C_19  and  C_21
REMARK                            x       y       z     vdW  Elec       q    Type
REMARK                         _______ _______ _______ _____ _____    ______ ____
ROOT
ATOM      1  C   UNL     1      46.768   5.548  12.969  0.00  0.00    +0.000 A 
ATOM      2  C   UNL     1      46.771   4.624  14.023  0.00  0.00    +0.000 A 
ATOM      3  C   UNL     1      47.425   4.906  15.219  0.00  0.00    +0.000 A 
ATOM      4  C   UNL     1      48.082   6.126  15.401  0.00  0.00    +0.000 A 
ATOM      5  C   UNL     1      48.136   7.032  14.333  0.00  0.00    +0.000 A 
ATOM      6  C   UNL     1      47.480   6.745  13.126  0.00  0.00    +0.000 A 
ENDROOT
BRANCH   1   7
ATOM      7  C   UNL     1      46.006   5.238  11.695  0.00  0.00    +0.000 C 
BRANCH   7   8
ATOM      8  N   UNL     1      45.254   3.996  11.857  0.00  0.00    +0.000 NA
ATOM      9  H   UNL     1      45.906   3.215  11.889  0.00  0.00    +0.000 HD
BRANCH   8  11
ATOM     10  C   UNL     1      42.961   4.368  11.382  0.00  0.00    +0.000 C 
ATOM     11  C   UNL     1      44.236   3.706  10.837  0.00  0.00    +0.000 C 
BRANCH  11  12
ATOM     12  C   UNL     1      44.636   4.252   9.453  0.00  0.00    +0.000 C 
BRANCH  12  13
ATOM     13  C   UNL     1      45.434   3.329   8.561  0.00  0.00    +0.000 A 
ATOM     14  C   UNL     1      46.263   3.859   7.561  0.00  0.00    +0.000 A 
ATOM     15  C   UNL     1      47.118   3.027   6.836  0.00  0.00    +0.000 A 
ATOM     16  C   UNL     1      47.141   1.658   7.091  0.00  0.00    +0.000 A 
ATOM     17  C   UNL     1      46.295   1.116   8.057  0.00  0.00    +0.000 A 
ATOM     18  C   UNL     1      45.448   1.947   8.791  0.00  0.00    +0.000 A 
ENDBRANCH  12  13
ENDBRANCH  11  12
ENDBRANCH   8  11
ENDBRANCH   7   8
ENDBRANCH   1   7
BRANCH   4  19
ATOM     19  C   UNL     1      48.651   6.482  16.760  0.00  0.00    +0.000 C 
BRANCH  19  20
ATOM     20  N   UNL     1      49.970   5.943  17.086  0.00  0.00    +0.000 N 
ATOM     21  C   UNL     1      51.115   6.369  16.295  0.00  0.00    +0.000 C 
ATOM     22  C   UNL     1      49.990   4.843  17.965  0.00  0.00    +0.000 C 
ATOM     23  O   UNL     1      48.952   4.414  18.473  0.00  0.00    +0.000 OA
BRANCH  22  24
ATOM     24  C   UNL     1      51.282   4.236  18.324  0.00  0.00    +0.000 A 
ATOM     25  C   UNL     1      52.230   4.838  19.136  0.00  0.00    +0.000 A 
ATOM     26  S   UNL     1      53.627   3.903  19.383  0.00  0.00    +0.000 S 
ATOM     27  C   UNL     1      52.948   2.589  18.549  0.00  0.00    +0.000 A 
ATOM     28  N   UNL     1      53.596   1.395  18.492  0.00  0.00    +0.000 NA
ATOM     29  C   UNL     1      52.943   0.472  17.876  0.00  0.00    +0.000 A 
ATOM     30  N   UNL     1      51.727   0.641  17.272  0.00  0.00    +0.000 N 
ATOM     31  C   UNL     1      51.085   1.866  17.191  0.00  0.00    +0.000 A 
ATOM     32  O   UNL     1      50.126   2.023  16.451  0.00  0.00    +0.000 OA
ATOM     33  C   UNL     1      51.721   2.899  17.989  0.00  0.00    +0.000 A 
ATOM     34  H   UNL     1      51.302  -0.102  16.736  0.00  0.00    +0.000 HD
ENDBRANCH  22  24
ENDBRANCH  19  20
ENDBRANCH   4  19
TORSDOF 8
ENDMDL
MODEL 2
REMARK VINA RESULT:    -8.079      3.387      3.857
REMARK INTER + INTRA:         -12.998
REMARK INTER:                 -11.865
REMARK INTRA:                  -1.133
REMARK UNBOUND:                -1.141
REMARK  Name = 
REMARK  10 active torsions:
REMARK  status: ('A' for Active; 'I' for Inactive)
REMARK    1  A    between atoms: C_1  and  C_2
REMARK    2  A    between atoms: C_2  and  C_3
REMARK    3  A    between atoms: C_2  and  N_10
REMARK    4  A    between atoms: C_3  and  C_4
REMARK    5  A    between atoms: N_10  and  C_11
REMARK    6  A    between atoms: C_11  and  C_12
REMARK    7  A    between atoms: C_15  and  C_16
REMARK    8  A    between atoms: C_16  and  N_17
REMARK    9  A    between atoms: N_17  and  C_18
REMARK   10  A    between atoms: C_19  and  C_21
REMARK                            x       y       z     vdW  Elec       q    Type
REMARK                         _______ _______ _______ _____ _____    ______ ____
ROOT
ATOM      1  C   UNL     1      45.413   5.915  12.074  0.00  0.00    +0.000 A 
ATOM      2  C   UNL     1      46.001   5.168  13.105  0.00  0.00    +0.000 A 
ATOM      3  C   UNL     1      47.223   5.548  13.654  0.00  0.00    +0.000 A 
ATOM      4  C   UNL     1      47.882   6.694  13.201  0.00  0.00    +0.000 A 
ATOM      5  C   UNL     1      47.331   7.414  12.133  0.00  0.00    +0.000 A 
ATOM      6  C   UNL     1      46.103   7.028  11.576  0.00  0.00    +0.000 A 
ENDROOT
BRANCH   1   7
ATOM      7  C   UNL     1      44.058   5.508  11.527  0.00  0.00    +0.000 C 
BRANCH   7   8
ATOM      8  N   UNL     1      44.229   4.746  10.293  0.00  0.00    +0.000 NA
ATOM      9  H   UNL     1      43.400   4.859   9.715  0.00  0.00    +0.000 HD
BRANCH   8  11
ATOM     10  C   UNL     1      43.482   2.843  11.494  0.00  0.00    +0.000 C 
ATOM     11  C   UNL     1      44.498   3.308  10.441  0.00  0.00    +0.000 C 
BRANCH  11  12
ATOM     12  C   UNL     1      44.348   2.555   9.105  0.00  0.00    +0.000 C 
BRANCH  12  13
ATOM     13  C   UNL     1      45.567   2.498   8.214  0.00  0.00    +0.000 A 
ATOM     14  C   UNL     1      46.321   1.319   8.126  0.00  0.00    +0.000 A 
ATOM     15  C   UNL     1      47.354   1.206   7.194  0.00  0.00    +0.000 A 
ATOM     16  C   UNL     1      47.656   2.276   6.354  0.00  0.00    +0.000 A 
ATOM     17  C   UNL     1      46.937   3.466   6.459  0.00  0.00    +0.000 A 
ATOM     18  C   UNL     1      45.896   3.576   7.381  0.00  0.00    +0.000 A 
ENDBRANCH  12  13
ENDBRANCH  11  12
ENDBRANCH   8  11
ENDBRANCH   7   8
ENDBRANCH   1   7
BRANCH   4  19
ATOM     19  C   UNL     1      49.127   7.182  13.917  0.00  0.00    +0.000 C 
BRANCH  19  20
ATOM     20  N   UNL     1      48.966   7.605  15.307  0.00  0.00    +0.000 N 
ATOM     21  C   UNL     1      48.310   8.874  15.581  0.00  0.00    +0.000 C 
ATOM     22  C   UNL     1      49.700   6.879  16.264  0.00  0.00    +0.000 C 
ATOM     23  O   UNL     1      50.384   5.906  15.939  0.00  0.00    +0.000 OA
BRANCH  22  24
ATOM     24  C   UNL     1      49.601   7.259  17.682  0.00  0.00    +0.000 A 
ATOM     25  C   UNL     1      50.282   8.320  18.256  0.00  0.00    +0.000 A 
ATOM     26  S   UNL     1      49.974   8.528  19.915  0.00  0.00    +0.000 S 
ATOM     27  C   UNL     1      48.790   7.311  19.891  0.00  0.00    +0.000 A 
ATOM     28  N   UNL     1      48.036   7.058  20.994  0.00  0.00    +0.000 NA
ATOM     29  C   UNL     1      47.141   6.149  20.820  0.00  0.00    +0.000 A 
ATOM     30  N   UNL     1      46.960   5.437  19.665  0.00  0.00    +0.000 N 
ATOM     31  C   UNL     1      47.782   5.566  18.558  0.00  0.00    +0.000 A 
ATOM     32  O   UNL     1      47.734   4.758  17.644  0.00  0.00    +0.000 OA
ATOM     33  C   UNL     1      48.715   6.675  18.665  0.00  0.00    +0.000 A 
ATOM     34  H   UNL     1      46.291   4.681  19.616  0.00  0.00    +0.000 HD
ENDBRANCH  22  24
ENDBRANCH  19  20
ENDBRANCH   4  19
TORSDOF 8
ENDMDL
MODEL 3
REMARK VINA RESULT:    -7.535      2.469      3.274
REMARK INTER + INTRA:         -12.200
REMARK INTER:                 -11.053
REMARK INTRA:                  -1.146
REMARK UNBOUND:                -1.141
REMARK  Name = 
REMARK  10 active torsions:
REMARK  status: ('A' for Active; 'I' for Inactive)
REMARK    1  A    between atoms: C_1  and  C_2
REMARK    2  A    between atoms: C_2  and  C_3
REMARK    3  A    between atoms: C_2  and  N_10
REMARK    4  A    between atoms: C_3  and  C_4
REMARK    5  A    between atoms: N_10  and  C_11
REMARK    6  A    between atoms: C_11  and  C_12
REMARK    7  A    between atoms: C_15  and  C_16
REMARK    8  A    between atoms: C_16  and  N_17
REMARK    9  A    between atoms: N_17  and  C_18
REMARK   10  A    between atoms: C_19  and  C_21
REMARK                            x       y       z     vdW  Elec       q    Type
REMARK                         _______ _______ _______ _____ _____    ______ ____
ROOT
ATOM      1  C   UNL     1      45.881   7.015  11.775  0.00  0.00    +0.000 A 
ATOM      2  C   UNL     1      47.256   6.767  11.650  0.00  0.00    +0.000 A 
ATOM      3  C   UNL     1      48.190   7.596  12.265  0.00  0.00    +0.000 A 
ATOM      4  C   UNL     1      47.777   8.686  13.035  0.00  0.00    +0.000 A 
ATOM      5  C   UNL     1      46.409   8.977  13.118  0.00  0.00    +0.000 A 
ATOM      6  C   UNL     1      45.467   8.144  12.495  0.00  0.00    +0.000 A 
ENDROOT
BRANCH   1   7
ATOM      7  C   UNL     1      44.883   6.067  11.138  0.00  0.00    +0.000 C 
BRANCH   7   8
ATOM      8  N   UNL     1      45.316   4.686  11.332  0.00  0.00    +0.000 NA
ATOM      9  H   UNL     1      46.282   4.595  11.027  0.00  0.00    +0.000 HD
BRANCH   8  11
ATOM     10  C   UNL     1      43.143   3.736  11.337  0.00  0.00    +0.000 C 
ATOM     11  C   UNL     1      44.520   3.648  10.661  0.00  0.00    +0.000 C 
BRANCH  11  12
ATOM     12  C   UNL     1      44.444   3.874   9.139  0.00  0.00    +0.000 C 
BRANCH  12  13
ATOM     13  C   UNL     1      45.372   3.047   8.280  0.00  0.00    +0.000 A 
ATOM     14  C   UNL     1      46.125   3.658   7.267  0.00  0.00    +0.000 A 
ATOM     15  C   UNL     1      47.095   2.935   6.571  0.00  0.00    +0.000 A 
ATOM     16  C   UNL     1      47.310   1.591   6.869  0.00  0.00    +0.000 A 
ATOM     17  C   UNL     1      46.542   0.964   7.848  0.00  0.00    +0.000 A 
ATOM     18  C   UNL     1      45.580   1.689   8.553  0.00  0.00    +0.000 A 
ENDBRANCH  12  13
ENDBRANCH  11  12
ENDBRANCH   8  11
ENDBRANCH   7   8
ENDBRANCH   1   7
BRANCH   4  19
ATOM     19  C   UNL     1      48.797   9.482  13.826  0.00  0.00    +0.000 C 
BRANCH  19  20
ATOM     20  N   UNL     1      49.541   8.761  14.857  0.00  0.00    +0.000 N 
ATOM     21  C   UNL     1      50.724   8.009  14.469  0.00  0.00    +0.000 C 
ATOM     22  C   UNL     1      48.900   8.627  16.104  0.00  0.00    +0.000 C 
ATOM     23  O   UNL     1      47.804   9.148  16.316  0.00  0.00    +0.000 OA
BRANCH  22  24
ATOM     24  C   UNL     1      49.582   7.897  17.185  0.00  0.00    +0.000 A 
ATOM     25  C   UNL     1      50.321   8.499  18.190  0.00  0.00    +0.000 A 
ATOM     26  S   UNL     1      50.994   7.409  19.306  0.00  0.00    +0.000 S 
ATOM     27  C   UNL     1      50.184   6.103  18.584  0.00  0.00    +0.000 A 
ATOM     28  N   UNL     1      50.239   4.862  19.139  0.00  0.00    +0.000 NA
ATOM     29  C   UNL     1      49.536   3.979  18.519  0.00  0.00    +0.000 A 
ATOM     30  N   UNL     1      48.823   4.207  17.374  0.00  0.00    +0.000 N 
ATOM     31  C   UNL     1      48.837   5.416  16.700  0.00  0.00    +0.000 A 
ATOM     32  O   UNL     1      48.382   5.510  15.570  0.00  0.00    +0.000 OA
ATOM     33  C   UNL     1      49.505   6.475  17.437  0.00  0.00    +0.000 A 
ATOM     34  H   UNL     1      48.354   3.453  16.891  0.00  0.00    +0.000 HD
ENDBRANCH  22  24
ENDBRANCH  19  20
ENDBRANCH   4  19
TORSDOF 8
ENDMDL
MODEL 4
REMARK VINA RESULT:    -7.397      3.107      3.706
REMARK INTER + INTRA:         -11.998
REMARK INTER:                 -10.805
REMARK INTRA:                  -1.193
REMARK UNBOUND:                -1.141
REMARK  Name = 
REMARK  10 active torsions:
REMARK  status: ('A' for Active; 'I' for Inactive)
REMARK    1  A    between atoms: C_1  and  C_2
REMARK    2  A    between atoms: C_2  and  C_3
REMARK    3  A    between atoms: C_2  and  N_10
REMARK    4  A    between atoms: C_3  and  C_4
REMARK    5  A    between atoms: N_10  and  C_11
REMARK    6  A    between atoms: C_11  and  C_12
REMARK    7  A    between atoms: C_15  and  C_16
REMARK    8  A    between atoms: C_16  and  N_17
REMARK    9  A    between atoms: N_17  and  C_18
REMARK   10  A    between atoms: C_19  and  C_21
REMARK                            x       y       z     vdW  Elec       q    Type
REMARK                         _______ _______ _______ _____ _____    ______ ____
ROOT
ATOM      1  C   UNL     1      45.905   6.318  12.287  0.00  0.00    +0.000 A 
ATOM      2  C   UNL     1      46.266   5.336  13.221  0.00  0.00    +0.000 A 
ATOM      3  C   UNL     1      47.389   5.497  14.028  0.00  0.00    +0.000 A 
ATOM      4  C   UNL     1      48.174   6.650  13.936  0.00  0.00    +0.000 A 
ATOM      5  C   UNL     1      47.855   7.610  12.965  0.00  0.00    +0.000 A 
ATOM      6  C   UNL     1      46.726   7.445  12.149  0.00  0.00    +0.000 A 
ENDROOT
BRANCH   1   7
ATOM      7  C   UNL     1      44.649   6.143  11.455  0.00  0.00    +0.000 C 
BRANCH   7   8
ATOM      8  N   UNL     1      44.949   5.354  10.263  0.00  0.00    +0.000 NA
ATOM      9  H   UNL     1      44.456   5.753   9.468  0.00  0.00    +0.000 HD
BRANCH   8  11
ATOM     10  C   UNL     1      43.438   3.839  11.285  0.00  0.00    +0.000 C 
ATOM     11  C   UNL     1      44.636   3.919  10.328  0.00  0.00    +0.000 C 
BRANCH  11  12
ATOM     12  C   UNL     1      44.318   3.336   8.938  0.00  0.00    +0.000 C 
BRANCH  12  13
ATOM     13  C   UNL     1      45.478   2.759   8.159  0.00  0.00    +0.000 A 
ATOM     14  C   UNL     1      46.292   3.597   7.384  0.00  0.00    +0.000 A 
ATOM     15  C   UNL     1      47.452   3.102   6.785  0.00  0.00    +0.000 A 
ATOM     16  C   UNL     1      47.801   1.762   6.942  0.00  0.00    +0.000 A 
ATOM     17  C   UNL     1      46.979   0.912   7.680  0.00  0.00    +0.000 A 
ATOM     18  C   UNL     1      45.825   1.408   8.289  0.00  0.00    +0.000 A 
ENDBRANCH  12  13
ENDBRANCH  11  12
ENDBRANCH   8  11
ENDBRANCH   7   8
ENDBRANCH   1   7
BRANCH   4  19
ATOM     19  C   UNL     1      49.296   6.881  14.928  0.00  0.00    +0.000 C 
BRANCH  19  20
ATOM     20  N   UNL     1      48.909   7.124  16.317  0.00  0.00    +0.000 N 
ATOM     21  C   UNL     1      48.628   8.487  16.738  0.00  0.00    +0.000 C 
ATOM     22  C   UNL     1      49.101   6.052  17.210  0.00  0.00    +0.000 C 
ATOM     23  O   UNL     1      49.513   4.959  16.815  0.00  0.00    +0.000 OA
BRANCH  22  24
ATOM     24  C   UNL     1      48.750   6.229  18.628  0.00  0.00    +0.000 A 
ATOM     25  C   UNL     1      47.526   5.886  19.179  0.00  0.00    +0.000 A 
ATOM     26  S   UNL     1      47.402   6.200  20.845  0.00  0.00    +0.000 S 
ATOM     27  C   UNL     1      49.037   6.650  20.926  0.00  0.00    +0.000 A 
ATOM     28  N   UNL     1      49.620   6.931  22.122  0.00  0.00    +0.000 NA
ATOM     29  C   UNL     1      50.876   7.204  22.043  0.00  0.00    +0.000 A 
ATOM     30  N   UNL     1      51.592   7.269  20.879  0.00  0.00    +0.000 N 
ATOM     31  C   UNL     1      51.020   7.118  19.627  0.00  0.00    +0.000 A 
ATOM     32  O   UNL     1      51.639   7.412  18.616  0.00  0.00    +0.000 OA
ATOM     33  C   UNL     1      49.638   6.675  19.679  0.00  0.00    +0.000 A 
ATOM     34  H   UNL     1      52.558   7.566  20.876  0.00  0.00    +0.000 HD
ENDBRANCH  22  24
ENDBRANCH  19  20
ENDBRANCH   4  19
TORSDOF 8
ENDMDL
MODEL 5
REMARK VINA RESULT:    -7.242      4.128      5.348
REMARK INTER + INTRA:         -11.769
REMARK INTER:                 -10.430
REMARK INTRA:                  -1.339
REMARK UNBOUND:                -1.141
REMARK  Name = 
REMARK  10 active torsions:
REMARK  status: ('A' for Active; 'I' for Inactive)
REMARK    1  A    between atoms: C_1  and  C_2
REMARK    2  A    between atoms: C_2  and  C_3
REMARK    3  A    between atoms: C_2  and  N_10
REMARK    4  A    between atoms: C_3  and  C_4
REMARK    5  A    between atoms: N_10  and  C_11
REMARK    6  A    between atoms: C_11  and  C_12
REMARK    7  A    between atoms: C_15  and  C_16
REMARK    8  A    between atoms: C_16  and  N_17
REMARK    9  A    between atoms: N_17  and  C_18
REMARK   10  A    between atoms: C_19  and  C_21
REMARK                            x       y       z     vdW  Elec       q    Type
REMARK                         _______ _______ _______ _____ _____    ______ ____
ROOT
ATOM      1  C   UNL     1      45.189   5.921  12.757  0.00  0.00    +0.000 A 
ATOM      2  C   UNL     1      45.656   7.075  12.112  0.00  0.00    +0.000 A 
ATOM      3  C   UNL     1      46.988   7.466  12.223  0.00  0.00    +0.000 A 
ATOM      4  C   UNL     1      47.893   6.704  12.967  0.00  0.00    +0.000 A 
ATOM      5  C   UNL     1      47.424   5.582  13.662  0.00  0.00    +0.000 A 
ATOM      6  C   UNL     1      46.081   5.191  13.554  0.00  0.00    +0.000 A 
ENDROOT
BRANCH   1   7
ATOM      7  C   UNL     1      43.745   5.490  12.579  0.00  0.00    +0.000 C 
BRANCH   7   8
ATOM      8  N   UNL     1      43.511   5.099  11.192  0.00  0.00    +0.000 NA
ATOM      9  H   UNL     1      42.512   4.973  11.046  0.00  0.00    +0.000 HD
BRANCH   8  11
ATOM     10  C   UNL     1      43.480   2.742  11.443  0.00  0.00    +0.000 C 
ATOM     11  C   UNL     1      44.203   3.890  10.724  0.00  0.00    +0.000 C 
BRANCH  11  12
ATOM     12  C   UNL     1      44.145   3.751   9.190  0.00  0.00    +0.000 C 
BRANCH  12  13
ATOM     13  C   UNL     1      45.333   3.100   8.519  0.00  0.00    +0.000 A 
ATOM     14  C   UNL     1      45.543   1.719   8.644  0.00  0.00    +0.000 A 
ATOM     15  C   UNL     1      46.545   1.086   7.907  0.00  0.00    +0.000 A 
ATOM     16  C   UNL     1      47.358   1.828   7.052  0.00  0.00    +0.000 A 
ATOM     17  C   UNL     1      47.182   3.207   6.950  0.00  0.00    +0.000 A 
ATOM     18  C   UNL     1      46.173   3.840   7.676  0.00  0.00    +0.000 A 
ENDBRANCH  12  13
ENDBRANCH  11  12
ENDBRANCH   8  11
ENDBRANCH   7   8
ENDBRANCH   1   7
BRANCH   4  19
ATOM     19  C   UNL     1      49.369   7.053  12.946  0.00  0.00    +0.000 C 
BRANCH  19  20
ATOM     20  N   UNL     1      49.799   8.155  13.806  0.00  0.00    +0.000 N 
ATOM     21  C   UNL     1      49.962   9.477  13.221  0.00  0.00    +0.000 C 
ATOM     22  C   UNL     1      50.284   7.795  15.078  0.00  0.00    +0.000 C 
ATOM     23  O   UNL     1      50.280   6.620  15.453  0.00  0.00    +0.000 OA
BRANCH  22  24
ATOM     24  C   UNL     1      50.751   8.849  15.992  0.00  0.00    +0.000 A 
ATOM     25  C   UNL     1      52.083   9.130  16.246  0.00  0.00    +0.000 A 
ATOM     26  S   UNL     1      52.328  10.405  17.343  0.00  0.00    +0.000 S 
ATOM     27  C   UNL     1      50.665  10.740  17.392  0.00  0.00    +0.000 A 
ATOM     28  N   UNL     1      50.195  11.818  18.074  0.00  0.00    +0.000 NA
ATOM     29  C   UNL     1      48.922  11.983  17.982  0.00  0.00    +0.000 A 
ATOM     30  N   UNL     1      48.068  11.149  17.313  0.00  0.00    +0.000 N 
ATOM     31  C   UNL     1      48.478   9.971  16.711  0.00  0.00    +0.000 A 
ATOM     32  O   UNL     1      47.662   9.145  16.331  0.00  0.00    +0.000 OA
ATOM     33  C   UNL     1      49.922   9.818  16.675  0.00  0.00    +0.000 A 
ATOM     34  H   UNL     1      47.068  11.289  17.344  0.00  0.00    +0.000 HD
ENDBRANCH  22  24
ENDBRANCH  19  20
ENDBRANCH   4  19
TORSDOF 8
ENDMDL
MODEL 6
REMARK VINA RESULT:    -7.107      5.223      6.402
REMARK INTER + INTRA:         -11.571
REMARK INTER:                 -10.300
REMARK INTRA:                  -1.271
REMARK UNBOUND:                -1.141
REMARK  Name = 
REMARK  10 active torsions:
REMARK  status: ('A' for Active; 'I' for Inactive)
REMARK    1  A    between atoms: C_1  and  C_2
REMARK    2  A    between atoms: C_2  and  C_3
REMARK    3  A    between atoms: C_2  and  N_10
REMARK    4  A    between atoms: C_3  and  C_4
REMARK    5  A    between atoms: N_10  and  C_11
REMARK    6  A    between atoms: C_11  and  C_12
REMARK    7  A    between atoms: C_15  and  C_16
REMARK    8  A    between atoms: C_16  and  N_17
REMARK    9  A    between atoms: N_17  and  C_18
REMARK   10  A    between atoms: C_19  and  C_21
REMARK                            x       y       z     vdW  Elec       q    Type
REMARK                         _______ _______ _______ _____ _____    ______ ____
ROOT
ATOM      1  C   UNL     1      46.068   5.930  13.032  0.00  0.00    +0.000 A 
ATOM      2  C   UNL     1      45.441   7.143  12.712  0.00  0.00    +0.000 A 
ATOM      3  C   UNL     1      46.079   8.359  12.940  0.00  0.00    +0.000 A 
ATOM      4  C   UNL     1      47.368   8.397  13.479  0.00  0.00    +0.000 A 
ATOM      5  C   UNL     1      47.980   7.193  13.855  0.00  0.00    +0.000 A 
ATOM      6  C   UNL     1      47.334   5.968  13.630  0.00  0.00    +0.000 A 
ENDROOT
BRANCH   1   7
ATOM      7  C   UNL     1      45.372   4.617  12.727  0.00  0.00    +0.000 C 
BRANCH   7   8
ATOM      8  N   UNL     1      45.531   4.288  11.313  0.00  0.00    +0.000 NA
ATOM      9  H   UNL     1      45.657   5.147  10.783  0.00  0.00    +0.000 HD
BRANCH   8  11
ATOM     10  C   UNL     1      43.175   4.033  11.379  0.00  0.00    +0.000 C 
ATOM     11  C   UNL     1      44.446   3.515  10.691  0.00  0.00    +0.000 C 
BRANCH  11  12
ATOM     12  C   UNL     1      44.407   3.706   9.163  0.00  0.00    +0.000 C 
BRANCH  12  13
ATOM     13  C   UNL     1      45.499   3.033   8.363  0.00  0.00    +0.000 A 
ATOM     14  C   UNL     1      45.789   1.677   8.570  0.00  0.00    +0.000 A 
ATOM     15  C   UNL     1      46.687   1.009   7.735  0.00  0.00    +0.000 A 
ATOM     16  C   UNL     1      47.315   1.694   6.696  0.00  0.00    +0.000 A 
ATOM     17  C   UNL     1      47.061   3.051   6.506  0.00  0.00    +0.000 A 
ATOM     18  C   UNL     1      46.156   3.717   7.332  0.00  0.00    +0.000 A 
ENDBRANCH  12  13
ENDBRANCH  11  12
ENDBRANCH   8  11
ENDBRANCH   7   8
ENDBRANCH   1   7
BRANCH   4  19
ATOM     19  C   UNL     1      48.109   9.716  13.571  0.00  0.00    +0.000 C 
BRANCH  19  20
ATOM     20  N   UNL     1      49.455   9.759  13.001  0.00  0.00    +0.000 N 
ATOM     21  C   UNL     1      50.597   9.647  13.895  0.00  0.00    +0.000 C 
ATOM     22  C   UNL     1      49.546  10.177  11.660  0.00  0.00    +0.000 C 
ATOM     23  O   UNL     1      48.536  10.428  11.000  0.00  0.00    +0.000 OA
BRANCH  22  24
ATOM     24  C   UNL     1      50.871  10.261  11.025  0.00  0.00    +0.000 A 
ATOM     25  C   UNL     1      51.536  11.446  10.757  0.00  0.00    +0.000 A 
ATOM     26  S   UNL     1      53.053  11.241  10.019  0.00  0.00    +0.000 S 
ATOM     27  C   UNL     1      52.952   9.554  10.182  0.00  0.00    +0.000 A 
ATOM     28  N   UNL     1      54.004   8.761   9.843  0.00  0.00    +0.000 NA
ATOM     29  C   UNL     1      53.810   7.508  10.068  0.00  0.00    +0.000 A 
ATOM     30  N   UNL     1      52.651   6.968  10.554  0.00  0.00    +0.000 N 
ATOM     31  C   UNL     1      51.509   7.715  10.793  0.00  0.00    +0.000 A 
ATOM     32  O   UNL     1      50.436   7.170  11.001  0.00  0.00    +0.000 OA
ATOM     33  C   UNL     1      51.728   9.147  10.683  0.00  0.00    +0.000 A 
ATOM     34  H   UNL     1      52.533   5.968  10.635  0.00  0.00    +0.000 HD
ENDBRANCH  22  24
ENDBRANCH  19  20
ENDBRANCH   4  19
TORSDOF 8
ENDMDL
MODEL 7
REMARK VINA RESULT:    -7.094      1.299      2.238
REMARK INTER + INTRA:         -11.553
REMARK INTER:                 -10.455
REMARK INTRA:                  -1.098
REMARK UNBOUND:                -1.141
REMARK  Name = 
REMARK  10 active torsions:
REMARK  status: ('A' for Active; 'I' for Inactive)
REMARK    1  A    between atoms: C_1  and  C_2
REMARK    2  A    between atoms: C_2  and  C_3
REMARK    3  A    between atoms: C_2  and  N_10
REMARK    4  A    between atoms: C_3  and  C_4
REMARK    5  A    between atoms: N_10  and  C_11
REMARK    6  A    between atoms: C_11  and  C_12
REMARK    7  A    between atoms: C_15  and  C_16
REMARK    8  A    between atoms: C_16  and  N_17
REMARK    9  A    between atoms: N_17  and  C_18
REMARK   10  A    between atoms: C_19  and  C_21
REMARK                            x       y       z     vdW  Elec       q    Type
REMARK                         _______ _______ _______ _____ _____    ______ ____
ROOT
ATOM      1  C   UNL     1      46.639   5.492  12.936  0.00  0.00    +0.000 A 
ATOM      2  C   UNL     1      46.573   4.531  13.955  0.00  0.00    +0.000 A 
ATOM      3  C   UNL     1      47.231   4.728  15.166  0.00  0.00    +0.000 A 
ATOM      4  C   UNL     1      47.959   5.897  15.399  0.00  0.00    +0.000 A 
ATOM      5  C   UNL     1      48.080   6.837  14.367  0.00  0.00    +0.000 A 
ATOM      6  C   UNL     1      47.421   6.636  13.145  0.00  0.00    +0.000 A 
ENDROOT
BRANCH   1   7
ATOM      7  C   UNL     1      45.873   5.277  11.645  0.00  0.00    +0.000 C 
BRANCH   7   8
ATOM      8  N   UNL     1      45.201   3.981  11.677  0.00  0.00    +0.000 NA
ATOM      9  H   UNL     1      45.876   3.251  11.461  0.00  0.00    +0.000 HD
BRANCH   8  11
ATOM     10  C   UNL     1      42.963   4.717  11.407  0.00  0.00    +0.000 C 
ATOM     11  C   UNL     1      44.042   3.819  10.787  0.00  0.00    +0.000 C 
BRANCH  11  12
ATOM     12  C   UNL     1      44.373   4.214   9.335  0.00  0.00    +0.000 C 
BRANCH  12  13
ATOM     13  C   UNL     1      45.398   3.369   8.614  0.00  0.00    +0.000 A 
ATOM     14  C   UNL     1      45.451   1.985   8.836  0.00  0.00    +0.000 A 
ATOM     15  C   UNL     1      46.288   1.176   8.066  0.00  0.00    +0.000 A 
ATOM     16  C   UNL     1      47.092   1.743   7.079  0.00  0.00    +0.000 A 
ATOM     17  C   UNL     1      47.074   3.122   6.876  0.00  0.00    +0.000 A 
ATOM     18  C   UNL     1      46.230   3.931   7.637  0.00  0.00    +0.000 A 
ENDBRANCH  12  13
ENDBRANCH  11  12
ENDBRANCH   8  11
ENDBRANCH   7   8
ENDBRANCH   1   7
BRANCH   4  19
ATOM     19  C   UNL     1      48.534   6.167  16.776  0.00  0.00    +0.000 C 
BRANCH  19  20
ATOM     20  N   UNL     1      49.825   5.553  17.084  0.00  0.00    +0.000 N 
ATOM     21  C   UNL     1      51.022   6.087  16.455  0.00  0.00    +0.000 C 
ATOM     22  C   UNL     1      49.777   4.317  17.757  0.00  0.00    +0.000 C 
ATOM     23  O   UNL     1      48.704   3.826  18.114  0.00  0.00    +0.000 OA
BRANCH  22  24
ATOM     24  C   UNL     1      51.037   3.631  18.085  0.00  0.00    +0.000 A 
ATOM     25  C   UNL     1      51.540   2.544  17.388  0.00  0.00    +0.000 A 
ATOM     26  S   UNL     1      53.017   1.957  17.989  0.00  0.00    +0.000 S 
ATOM     27  C   UNL     1      53.125   3.237  19.099  0.00  0.00    +0.000 A 
ATOM     28  N   UNL     1      54.236   3.398  19.866  0.00  0.00    +0.000 NA
ATOM     29  C   UNL     1      54.206   4.438  20.622  0.00  0.00    +0.000 A 
ATOM     30  N   UNL     1      53.152   5.306  20.721  0.00  0.00    +0.000 N 
ATOM     31  C   UNL     1      51.950   5.117  20.060  0.00  0.00    +0.000 A 
ATOM     32  O   UNL     1      50.965   5.777  20.351  0.00  0.00    +0.000 OA
ATOM     33  C   UNL     1      51.993   4.033  19.093  0.00  0.00    +0.000 A 
ATOM     34  H   UNL     1      53.158   6.061  21.392  0.00  0.00    +0.000 HD
ENDBRANCH  22  24
ENDBRANCH  19  20
ENDBRANCH   4  19
TORSDOF 8
ENDMDL
MODEL 8
REMARK VINA RESULT:    -7.025      5.222      9.478
REMARK INTER + INTRA:         -11.451
REMARK INTER:                  -8.792
REMARK INTRA:                  -2.660
REMARK UNBOUND:                -1.141
REMARK  Name = 
REMARK  10 active torsions:
REMARK  status: ('A' for Active; 'I' for Inactive)
REMARK    1  A    between atoms: C_1  and  C_2
REMARK    2  A    between atoms: C_2  and  C_3
REMARK    3  A    between atoms: C_2  and  N_10
REMARK    4  A    between atoms: C_3  and  C_4
REMARK    5  A    between atoms: N_10  and  C_11
REMARK    6  A    between atoms: C_11  and  C_12
REMARK    7  A    between atoms: C_15  and  C_16
REMARK    8  A    between atoms: C_16  and  N_17
REMARK    9  A    between atoms: N_17  and  C_18
REMARK   10  A    between atoms: C_19  and  C_21
REMARK                            x       y       z     vdW  Elec       q    Type
REMARK                         _______ _______ _______ _____ _____    ______ ____
ROOT
ATOM      1  C   UNL     1      50.235   9.493  11.248  0.00  0.00    +0.000 A 
ATOM      2  C   UNL     1      49.252  10.440  11.574  0.00  0.00    +0.000 A 
ATOM      3  C   UNL     1      48.001  10.041  12.035  0.00  0.00    +0.000 A 
ATOM      4  C   UNL     1      47.701   8.686  12.200  0.00  0.00    +0.000 A 
ATOM      5  C   UNL     1      48.654   7.731  11.822  0.00  0.00    +0.000 A 
ATOM      6  C   UNL     1      49.914   8.133  11.353  0.00  0.00    +0.000 A 
ENDROOT
BRANCH   1   7
ATOM      7  C   UNL     1      51.607   9.955  10.796  0.00  0.00    +0.000 C 
BRANCH   7   8
ATOM      8  N   UNL     1      52.345  10.503  11.931  0.00  0.00    +0.000 NA
ATOM      9  H   UNL     1      52.994  11.210  11.594  0.00  0.00    +0.000 HD
BRANCH   8  11
ATOM     10  C   UNL     1      54.565   9.892  12.496  0.00  0.00    +0.000 C 
ATOM     11  C   UNL     1      53.092   9.543  12.755  0.00  0.00    +0.000 C 
BRANCH  11  12
ATOM     12  C   UNL     1      52.717   9.649  14.246  0.00  0.00    +0.000 C 
BRANCH  12  13
ATOM     13  C   UNL     1      51.346   9.150  14.641  0.00  0.00    +0.000 A 
ATOM     14  C   UNL     1      51.102   7.774  14.751  0.00  0.00    +0.000 A 
ATOM     15  C   UNL     1      49.889   7.307  15.260  0.00  0.00    +0.000 A 
ATOM     16  C   UNL     1      48.902   8.211  15.650  0.00  0.00    +0.000 A 
ATOM     17  C   UNL     1      49.120   9.580  15.509  0.00  0.00    +0.000 A 
ATOM     18  C   UNL     1      50.336  10.049  15.011  0.00  0.00    +0.000 A 
ENDBRANCH  12  13
ENDBRANCH  11  12
ENDBRANCH   8  11
ENDBRANCH   7   8
ENDBRANCH   1   7
BRANCH   4  19
ATOM     19  C   UNL     1      46.395   8.276  12.852  0.00  0.00    +0.000 C 
BRANCH  19  20
ATOM     20  N   UNL     1      46.014   6.869  12.738  0.00  0.00    +0.000 N 
ATOM     21  C   UNL     1      46.843   5.864  13.386  0.00  0.00    +0.000 C 
ATOM     22  C   UNL     1      45.025   6.571  11.781  0.00  0.00    +0.000 C 
ATOM     23  O   UNL     1      44.477   7.464  11.131  0.00  0.00    +0.000 OA
BRANCH  22  24
ATOM     24  C   UNL     1      44.603   5.173  11.598  0.00  0.00    +0.000 A 
ATOM     25  C   UNL     1      43.872   4.449  12.526  0.00  0.00    +0.000 A 
ATOM     26  S   UNL     1      43.524   2.856  12.046  0.00  0.00    +0.000 S 
ATOM     27  C   UNL     1      44.193   3.127  10.509  0.00  0.00    +0.000 A 
ATOM     28  N   UNL     1      44.112   2.175   9.541  0.00  0.00    +0.000 NA
ATOM     29  C   UNL     1      44.612   2.534   8.410  0.00  0.00    +0.000 A 
ATOM     30  N   UNL     1      45.226   3.733   8.168  0.00  0.00    +0.000 N 
ATOM     31  C   UNL     1      45.447   4.683   9.151  0.00  0.00    +0.000 A 
ATOM     32  O   UNL     1      46.196   5.627   8.952  0.00  0.00    +0.000 OA
ATOM     33  C   UNL     1      44.780   4.376  10.404  0.00  0.00    +0.000 A 
ATOM     34  H   UNL     1      45.668   3.924   7.280  0.00  0.00    +0.000 HD
ENDBRANCH  22  24
ENDBRANCH  19  20
ENDBRANCH   4  19
TORSDOF 8
ENDMDL
MODEL 9
REMARK VINA RESULT:    -6.691      3.991      9.059
REMARK INTER + INTRA:         -10.961
REMARK INTER:                  -9.381
REMARK INTRA:                  -1.580
REMARK UNBOUND:                -1.141
REMARK  Name = 
REMARK  10 active torsions:
REMARK  status: ('A' for Active; 'I' for Inactive)
REMARK    1  A    between atoms: C_1  and  C_2
REMARK    2  A    between atoms: C_2  and  C_3
REMARK    3  A    between atoms: C_2  and  N_10
REMARK    4  A    between atoms: C_3  and  C_4
REMARK    5  A    between atoms: N_10  and  C_11
REMARK    6  A    between atoms: C_11  and  C_12
REMARK    7  A    between atoms: C_15  and  C_16
REMARK    8  A    between atoms: C_16  and  N_17
REMARK    9  A    between atoms: N_17  and  C_18
REMARK   10  A    between atoms: C_19  and  C_21
REMARK                            x       y       z     vdW  Elec       q    Type
REMARK                         _______ _______ _______ _____ _____    ______ ____
ROOT
ATOM      1  C   UNL     1      50.704   8.610  15.206  0.00  0.00    +0.000 A 
ATOM      2  C   UNL     1      49.461   8.655  15.855  0.00  0.00    +0.000 A 
ATOM      3  C   UNL     1      48.275   8.601  15.129  0.00  0.00    +0.000 A 
ATOM      4  C   UNL     1      48.295   8.484  13.737  0.00  0.00    +0.000 A 
ATOM      5  C   UNL     1      49.530   8.497  13.075  0.00  0.00    +0.000 A 
ATOM      6  C   UNL     1      50.727   8.556  13.806  0.00  0.00    +0.000 A 
ENDROOT
BRANCH   1   7
ATOM      7  C   UNL     1      51.982   8.620  16.022  0.00  0.00    +0.000 C 
BRANCH   7   8
ATOM      8  N   UNL     1      51.835   7.747  17.184  0.00  0.00    +0.000 NA
ATOM      9  H   UNL     1      52.563   7.969  17.860  0.00  0.00    +0.000 HD
BRANCH   8  11
ATOM     10  C   UNL     1      53.357   5.938  17.006  0.00  0.00    +0.000 C 
ATOM     11  C   UNL     1      51.867   6.300  16.928  0.00  0.00    +0.000 C 
BRANCH  11  12
ATOM     12  C   UNL     1      51.017   5.517  17.947  0.00  0.00    +0.000 C 
BRANCH  12  13
ATOM     13  C   UNL     1      49.934   4.624  17.387  0.00  0.00    +0.000 A 
ATOM     14  C   UNL     1      50.104   3.232  17.375  0.00  0.00    +0.000 A 
ATOM     15  C   UNL     1      49.053   2.393  17.003  0.00  0.00    +0.000 A 
ATOM     16  C   UNL     1      47.827   2.935  16.625  0.00  0.00    +0.000 A 
ATOM     17  C   UNL     1      47.658   4.319  16.598  0.00  0.00    +0.000 A 
ATOM     18  C   UNL     1      48.705   5.159  16.980  0.00  0.00    +0.000 A 
ENDBRANCH  12  13
ENDBRANCH  11  12
ENDBRANCH   8  11
ENDBRANCH   7   8
ENDBRANCH   1   7
BRANCH   4  19
ATOM     19  C   UNL     1      47.001   8.266  12.978  0.00  0.00    +0.000 C 
BRANCH  19  20
ATOM     20  N   UNL     1      46.545   6.884  12.834  0.00  0.00    +0.000 N 
ATOM     21  C   UNL     1      47.450   5.807  13.203  0.00  0.00    +0.000 C 
ATOM     22  C   UNL     1      45.363   6.696  12.093  0.00  0.00    +0.000 C 
ATOM     23  O   UNL     1      44.727   7.656  11.653  0.00  0.00    +0.000 OA
BRANCH  22  24
ATOM     24  C   UNL     1      44.853   5.330  11.892  0.00  0.00    +0.000 A 
ATOM     25  C   UNL     1      44.138   4.615  12.839  0.00  0.00    +0.000 A 
ATOM     26  S   UNL     1      43.674   3.061  12.331  0.00  0.00    +0.000 S 
ATOM     27  C   UNL     1      44.266   3.348  10.766  0.00  0.00    +0.000 A 
ATOM     28  N   UNL     1      44.075   2.437   9.775  0.00  0.00    +0.000 NA
ATOM     29  C   UNL     1      44.527   2.807   8.628  0.00  0.00    +0.000 A 
ATOM     30  N   UNL     1      45.192   3.978   8.387  0.00  0.00    +0.000 N 
ATOM     31  C   UNL     1      45.524   4.880   9.384  0.00  0.00    +0.000 A 
ATOM     32  O   UNL     1      46.312   5.788   9.171  0.00  0.00    +0.000 OA
ATOM     33  C   UNL     1      44.915   4.566  10.665  0.00  0.00    +0.000 A 
ATOM     34  H   UNL     1      45.591   4.175   7.480  0.00  0.00    +0.000 HD
ENDBRANCH  22  24
ENDBRANCH  19  20
ENDBRANCH   4  19
TORSDOF 8
ENDMDL
