MODEL 1
REMARK VINA RESULT:    -7.659      0.000      0.000
REMARK INTER + INTRA:         -13.439
REMARK INTER:                 -12.136
REMARK INTRA:                  -1.303
REMARK UNBOUND:                -1.303
REMARK  Name = 
REMARK  11 active torsions:
REMARK  status: ('A' for Active; 'I' for Inactive)
REMARK    1  A    between atoms: C_1  and  C_2
REMARK    2  A    between atoms: C_2  and  C_3
REMARK    3  A    between atoms: C_3  and  C_4
REMARK    4  A    between atoms: C_4  and  C_5
REMARK    5  A    between atoms: C_5  and  C_6
REMARK    6  A    between atoms: C_5  and  C_17
REMARK    7  A    between atoms: C_6  and  O_7
REMARK    8  A    between atoms: O_7  and  C_8
REMARK    9  A    between atoms: C_11  and  C_12
REMARK   10  A    between atoms: C_21  and  O_22
REMARK   11  A    between atoms: O_22  and  C_23
REMARK                            x       y       z     vdW  Elec       q    Type
REMARK                         _______ _______ _______ _____ _____    ______ ____
ROOT
ATOM      1  C   UNL     1      45.404   5.582  12.025  0.00  0.00    +0.000 C 
ENDROOT
BRANCH   1   2
ATOM      2  C   UNL     1      46.721   5.998  12.671  0.00  0.00    +0.000 A 
ATOM      3  C   UNL     1      47.514   6.980  12.064  0.00  0.00    +0.000 A 
ATOM      4  C   UNL     1      48.639   7.489  12.718  0.00  0.00    +0.000 A 
ATOM      5  C   UNL     1      48.996   7.013  13.983  0.00  0.00    +0.000 A 
ATOM      6  C   UNL     1      48.242   6.006  14.577  0.00  0.00    +0.000 A 
ATOM      7  C   UNL     1      47.111   5.505  13.926  0.00  0.00    +0.000 A 
BRANCH   6   8
ATOM      8  O   UNL     1      48.476   5.477  15.822  0.00  0.00    +0.000 OA
BRANCH   8   9
ATOM      9  C   UNL     1      47.519   4.550  16.383  0.00  0.00    +0.000 C 
ATOM     10  C   UNL     1      47.250   4.616  17.899  0.00  0.00    +0.000 C 
ATOM     11  N   UNL     1      47.544   3.182  18.033  0.00  0.00    +0.000 NA
ATOM     12  C   UNL     1      48.082   3.142  16.666  0.00  0.00    +0.000 C 
ATOM     13  H   UNL     1      46.722   2.596  18.172  0.00  0.00    +0.000 HD
ENDBRANCH   8   9
ENDBRANCH   6   8
ENDBRANCH   1   2
BRANCH   1  14
ATOM     14  C   UNL     1      44.179   6.076  12.834  0.00  0.00    +0.000 C 
BRANCH  14  15
ATOM     15  C   UNL     1      43.080   5.012  12.972  0.00  0.00    +0.000 C 
BRANCH  15  17
ATOM     16  C   UNL     1      43.212   2.748  11.892  0.00  0.00    +0.000 C 
ATOM     17  C   UNL     1      43.648   3.597  13.079  0.00  0.00    +0.000 C 
ENDBRANCH  15  17
ENDBRANCH  14  15
ENDBRANCH   1  14
BRANCH   1  18
ATOM     18  C   UNL     1      45.354   6.063  10.562  0.00  0.00    +0.000 C 
BRANCH  18  19
ATOM     19  O   UNL     1      44.534   5.195   9.766  0.00  0.00    +0.000 OA
BRANCH  19  20
ATOM     20  C   UNL     1      45.291   4.305   9.034  0.00  0.00    +0.000 A 
ATOM     21  C   UNL     1      45.116   2.958   9.295  0.00  0.00    +0.000 A 
ATOM     22  C   UNL     1      45.819   2.041   8.513  0.00  0.00    +0.000 A 
ATOM     23  C   UNL     1      46.674   2.496   7.502  0.00  0.00    +0.000 A 
ATOM     24  C   UNL     1      46.794   3.869   7.341  0.00  0.00    +0.000 A 
ATOM     25  N   UNL     1      46.124   4.778   8.081  0.00  0.00    +0.000 NA
BRANCH  23  26
ATOM     26  C   UNL     1      47.387   1.522   6.644  0.00  0.00    +0.000 C 
ATOM     27  N   UNL     1      48.395   1.957   5.837  0.00  0.00    +0.000 N 
ATOM     28  O   UNL     1      47.075   0.337   6.649  0.00  0.00    +0.000 OA
ATOM     29  H   UNL     1      48.725   2.906   5.740  0.00  0.00    +0.000 HD
ATOM     30  H   UNL     1      48.837   1.255   5.251  0.00  0.00    +0.000 HD
ENDBRANCH  23  26
ENDBRANCH  19  20
ENDBRANCH  18  19
ENDBRANCH   1  18
TORSDOF 10
ENDMDL
MODEL 2
REMARK VINA RESULT:    -7.505      1.484      2.360
REMARK INTER + INTRA:         -13.194
REMARK INTER:                 -11.768
REMARK INTRA:                  -1.427
REMARK UNBOUND:                -1.303
REMARK  Name = 
REMARK  11 active torsions:
REMARK  status: ('A' for Active; 'I' for Inactive)
REMARK    1  A    between atoms: C_1  and  C_2
REMARK    2  A    between atoms: C_2  and  C_3
REMARK    3  A    between atoms: C_3  and  C_4
REMARK    4  A    between atoms: C_4  and  C_5
REMARK    5  A    between atoms: C_5  and  C_6
REMARK    6  A    between atoms: C_5  and  C_17
REMARK    7  A    between atoms: C_6  and  O_7
REMARK    8  A    between atoms: O_7  and  C_8
REMARK    9  A    between atoms: C_11  and  C_12
REMARK   10  A    between atoms: C_21  and  O_22
REMARK   11  A    between atoms: O_22  and  C_23
REMARK                            x       y       z     vdW  Elec       q    Type
REMARK                         _______ _______ _______ _____ _____    ______ ____
ROOT
ATOM      1  C   UNL     1      44.220   5.922  11.804  0.00  0.00    +0.000 C 
ENDROOT
BRANCH   1   2
ATOM      2  C   UNL     1      45.554   5.670  12.499  0.00  0.00    +0.000 A 
ATOM      3  C   UNL     1      46.696   6.367  12.085  0.00  0.00    +0.000 A 
ATOM      4  C   UNL     1      47.887   6.272  12.810  0.00  0.00    +0.000 A 
ATOM      5  C   UNL     1      47.957   5.468  13.951  0.00  0.00    +0.000 A 
ATOM      6  C   UNL     1      46.842   4.736  14.346  0.00  0.00    +0.000 A 
ATOM      7  C   UNL     1      45.649   4.840  13.627  0.00  0.00    +0.000 A 
BRANCH   6   8
ATOM      8  O   UNL     1      46.781   3.936  15.460  0.00  0.00    +0.000 OA
BRANCH   8   9
ATOM      9  C   UNL     1      47.786   4.085  16.489  0.00  0.00    +0.000 C 
ATOM     10  C   UNL     1      48.168   2.841  17.314  0.00  0.00    +0.000 C 
ATOM     11  N   UNL     1      47.898   3.565  18.566  0.00  0.00    +0.000 NA
ATOM     12  C   UNL     1      47.258   4.659  17.821  0.00  0.00    +0.000 C 
ATOM     13  H   UNL     1      48.733   3.844  19.078  0.00  0.00    +0.000 HD
ENDBRANCH   8   9
ENDBRANCH   6   8
ENDBRANCH   1   2
BRANCH   1  14
ATOM     14  C   UNL     1      44.315   7.059  10.757  0.00  0.00    +0.000 C 
BRANCH  14  15
ATOM     15  C   UNL     1      43.389   8.243  11.069  0.00  0.00    +0.000 C 
BRANCH  15  17
ATOM     16  C   UNL     1      45.094   9.617  12.298  0.00  0.00    +0.000 C 
ATOM     17  C   UNL     1      44.139   9.575  11.113  0.00  0.00    +0.000 C 
ENDBRANCH  15  17
ENDBRANCH  14  15
ENDBRANCH   1  14
BRANCH   1  18
ATOM     18  C   UNL     1      43.691   4.615  11.182  0.00  0.00    +0.000 C 
BRANCH  18  19
ATOM     19  O   UNL     1      43.621   4.721   9.752  0.00  0.00    +0.000 OA
BRANCH  19  20
ATOM     20  C   UNL     1      44.586   3.953   9.135  0.00  0.00    +0.000 A 
ATOM     21  C   UNL     1      44.611   2.602   9.436  0.00  0.00    +0.000 A 
ATOM     22  C   UNL     1      45.532   1.797   8.765  0.00  0.00    +0.000 A 
ATOM     23  C   UNL     1      46.397   2.363   7.822  0.00  0.00    +0.000 A 
ATOM     24  C   UNL     1      46.304   3.732   7.614  0.00  0.00    +0.000 A 
ATOM     25  N   UNL     1      45.421   4.534   8.246  0.00  0.00    +0.000 NA
BRANCH  23  26
ATOM     26  C   UNL     1      47.345   1.502   7.078  0.00  0.00    +0.000 C 
ATOM     27  N   UNL     1      48.469   2.055   6.540  0.00  0.00    +0.000 N 
ATOM     28  O   UNL     1      47.125   0.304   6.938  0.00  0.00    +0.000 OA
ATOM     29  H   UNL     1      48.742   3.025   6.580  0.00  0.00    +0.000 HD
ATOM     30  H   UNL     1      49.075   1.427   6.021  0.00  0.00    +0.000 HD
ENDBRANCH  23  26
ENDBRANCH  19  20
ENDBRANCH  18  19
ENDBRANCH   1  18
TORSDOF 10
ENDMDL
MODEL 3
REMARK VINA RESULT:    -7.212      2.296      3.759
REMARK INTER + INTRA:         -12.730
REMARK INTER:                 -11.263
REMARK INTRA:                  -1.468
REMARK UNBOUND:                -1.303
REMARK  Name = 
REMARK  11 active torsions:
REMARK  status: ('A' for Active; 'I' for Inactive)
REMARK    1  A    between atoms: C_1  and  C_2
REMARK    2  A    between atoms: C_2  and  C_3
REMARK    3  A    between atoms: C_3  and  C_4
REMARK    4  A    between atoms: C_4  and  C_5
REMARK    5  A    between atoms: C_5  and  C_6
REMARK    6  A    between atoms: C_5  and  C_17
REMARK    7  A    between atoms: C_6  and  O_7
REMARK    8  A    between atoms: O_7  and  C_8
REMARK    9  A    between atoms: C_11  and  C_12
REMARK   10  A    between atoms: C_21  and  O_22
REMARK   11  A    between atoms: O_22  and  C_23
REMARK                            x       y       z     vdW  Elec       q    Type
REMARK                         _______ _______ _______ _____ _____    ______ ____
ROOT
ATOM      1  C   UNL     1      45.386   4.751  11.998  0.00  0.00    +0.000 C 
ENDROOT
BRANCH   1   2
ATOM      2  C   UNL     1      45.809   6.215  12.048  0.00  0.00    +0.000 A 
ATOM      3  C   UNL     1      44.970   7.162  12.648  0.00  0.00    +0.000 A 
ATOM      4  C   UNL     1      45.408   8.473  12.847  0.00  0.00    +0.000 A 
ATOM      5  C   UNL     1      46.686   8.861  12.437  0.00  0.00    +0.000 A 
ATOM      6  C   UNL     1      47.513   7.941  11.800  0.00  0.00    +0.000 A 
ATOM      7  C   UNL     1      47.077   6.627  11.610  0.00  0.00    +0.000 A 
BRANCH   6   8
ATOM      8  O   UNL     1      48.794   8.195  11.377  0.00  0.00    +0.000 OA
BRANCH   8   9
ATOM      9  C   UNL     1      49.895   7.529  12.036  0.00  0.00    +0.000 C 
ATOM     10  C   UNL     1      50.097   7.779  13.543  0.00  0.00    +0.000 C 
ATOM     11  N   UNL     1      51.494   8.173  13.310  0.00  0.00    +0.000 NA
ATOM     12  C   UNL     1      51.261   8.225  11.860  0.00  0.00    +0.000 C 
ATOM     13  H   UNL     1      52.180   7.476  13.596  0.00  0.00    +0.000 HD
ENDBRANCH   8   9
ENDBRANCH   6   8
ENDBRANCH   1   2
BRANCH   1  14
ATOM     14  C   UNL     1      45.514   4.061  13.378  0.00  0.00    +0.000 C 
BRANCH  14  15
ATOM     15  C   UNL     1      46.970   3.909  13.843  0.00  0.00    +0.000 C 
BRANCH  15  17
ATOM     16  C   UNL     1      47.651   3.529  16.230  0.00  0.00    +0.000 C 
ATOM     17  C   UNL     1      47.221   4.565  15.200  0.00  0.00    +0.000 C 
ENDBRANCH  15  17
ENDBRANCH  14  15
ENDBRANCH   1  14
BRANCH   1  18
ATOM     18  C   UNL     1      43.958   4.630  11.428  0.00  0.00    +0.000 C 
BRANCH  18  19
ATOM     19  O   UNL     1      43.937   4.952  10.029  0.00  0.00    +0.000 OA
BRANCH  19  20
ATOM     20  C   UNL     1      44.700   4.072   9.291  0.00  0.00    +0.000 A 
ATOM     21  C   UNL     1      45.605   4.612   8.395  0.00  0.00    +0.000 A 
ATOM     22  C   UNL     1      46.437   3.739   7.694  0.00  0.00    +0.000 A 
ATOM     23  C   UNL     1      46.338   2.359   7.908  0.00  0.00    +0.000 A 
ATOM     24  C   UNL     1      45.380   1.922   8.811  0.00  0.00    +0.000 A 
ATOM     25  N   UNL     1      44.564   2.744   9.505  0.00  0.00    +0.000 NA
BRANCH  23  26
ATOM     26  C   UNL     1      47.251   1.434   7.196  0.00  0.00    +0.000 C 
ATOM     27  N   UNL     1      48.369   1.931   6.596  0.00  0.00    +0.000 N 
ATOM     28  O   UNL     1      47.006   0.235   7.137  0.00  0.00    +0.000 OA
ATOM     29  H   UNL     1      48.660   2.896   6.568  0.00  0.00    +0.000 HD
ATOM     30  H   UNL     1      48.949   1.260   6.102  0.00  0.00    +0.000 HD
ENDBRANCH  23  26
ENDBRANCH  19  20
ENDBRANCH  18  19
ENDBRANCH   1  18
TORSDOF 10
ENDMDL
MODEL 4
REMARK VINA RESULT:    -6.785      1.998      8.218
REMARK INTER + INTRA:         -12.055
REMARK INTER:                 -11.052
REMARK INTRA:                  -1.003
REMARK UNBOUND:                -1.303
REMARK  Name = 
REMARK  11 active torsions:
REMARK  status: ('A' for Active; 'I' for Inactive)
REMARK    1  A    between atoms: C_1  and  C_2
REMARK    2  A    between atoms: C_2  and  C_3
REMARK    3  A    between atoms: C_3  and  C_4
REMARK    4  A    between atoms: C_4  and  C_5
REMARK    5  A    between atoms: C_5  and  C_6
REMARK    6  A    between atoms: C_5  and  C_17
REMARK    7  A    between atoms: C_6  and  O_7
REMARK    8  A    between atoms: O_7  and  C_8
REMARK    9  A    between atoms: C_11  and  C_12
REMARK   10  A    between atoms: C_21  and  O_22
REMARK   11  A    between atoms: O_22  and  C_23
REMARK                            x       y       z     vdW  Elec       q    Type
REMARK                         _______ _______ _______ _____ _____    ______ ____
ROOT
ATOM      1  C   UNL     1      46.208   6.592  11.555  0.00  0.00    +0.000 C 
ENDROOT
BRANCH   1   2
ATOM      2  C   UNL     1      45.643   5.552  10.594  0.00  0.00    +0.000 A 
ATOM      3  C   UNL     1      44.429   4.918  10.889  0.00  0.00    +0.000 A 
ATOM      4  C   UNL     1      43.817   4.085   9.950  0.00  0.00    +0.000 A 
ATOM      5  C   UNL     1      44.415   3.861   8.707  0.00  0.00    +0.000 A 
ATOM      6  C   UNL     1      45.642   4.449   8.419  0.00  0.00    +0.000 A 
ATOM      7  C   UNL     1      46.249   5.290   9.356  0.00  0.00    +0.000 A 
BRANCH   6   8
ATOM      8  O   UNL     1      46.314   4.327   7.228  0.00  0.00    +0.000 OA
BRANCH   8   9
ATOM      9  C   UNL     1      46.461   3.015   6.637  0.00  0.00    +0.000 C 
ATOM     10  C   UNL     1      47.503   2.058   7.248  0.00  0.00    +0.000 C 
ATOM     11  N   UNL     1      48.127   1.865   5.930  0.00  0.00    +0.000 NA
ATOM     12  C   UNL     1      47.346   2.979   5.373  0.00  0.00    +0.000 C 
ATOM     13  H   UNL     1      47.929   0.963   5.500  0.00  0.00    +0.000 HD
ENDBRANCH   8   9
ENDBRANCH   6   8
ENDBRANCH   1   2
BRANCH   1  14
ATOM     14  C   UNL     1      45.091   7.419  12.239  0.00  0.00    +0.000 C 
BRANCH  14  15
ATOM     15  C   UNL     1      45.606   8.722  12.868  0.00  0.00    +0.000 C 
BRANCH  15  17
ATOM     16  C   UNL     1      46.526  10.730  11.674  0.00  0.00    +0.000 C 
ATOM     17  C   UNL     1      45.266   9.951  12.026  0.00  0.00    +0.000 C 
ENDBRANCH  15  17
ENDBRANCH  14  15
ENDBRANCH   1  14
BRANCH   1  18
ATOM     18  C   UNL     1      47.132   5.916  12.587  0.00  0.00    +0.000 C 
BRANCH  18  19
ATOM     19  O   UNL     1      46.373   5.111  13.502  0.00  0.00    +0.000 OA
BRANCH  19  20
ATOM     20  C   UNL     1      47.096   4.809  14.636  0.00  0.00    +0.000 A 
ATOM     21  C   UNL     1      47.901   5.804  15.162  0.00  0.00    +0.000 A 
ATOM     22  C   UNL     1      48.582   5.540  16.350  0.00  0.00    +0.000 A 
ATOM     23  C   UNL     1      48.440   4.294  16.973  0.00  0.00    +0.000 A 
ATOM     24  C   UNL     1      47.627   3.360  16.349  0.00  0.00    +0.000 A 
ATOM     25  N   UNL     1      46.954   3.589  15.201  0.00  0.00    +0.000 NA
BRANCH  23  26
ATOM     26  C   UNL     1      49.129   4.029  18.258  0.00  0.00    +0.000 C 
ATOM     27  N   UNL     1      48.503   3.279  19.208  0.00  0.00    +0.000 N 
ATOM     28  O   UNL     1      50.248   4.481  18.474  0.00  0.00    +0.000 OA
ATOM     29  H   UNL     1      47.582   2.872  19.145  0.00  0.00    +0.000 HD
ATOM     30  H   UNL     1      49.007   3.145  20.079  0.00  0.00    +0.000 HD
ENDBRANCH  23  26
ENDBRANCH  19  20
ENDBRANCH  18  19
ENDBRANCH   1  18
TORSDOF 10
ENDMDL
MODEL 5
REMARK VINA RESULT:    -6.731      2.719      4.997
REMARK INTER + INTRA:         -11.969
REMARK INTER:                 -10.994
REMARK INTRA:                  -0.975
REMARK UNBOUND:                -1.303
REMARK  Name = 
REMARK  11 active torsions:
REMARK  status: ('A' for Active; 'I' for Inactive)
REMARK    1  A    between atoms: C_1  and  C_2
REMARK    2  A    between atoms: C_2  and  C_3
REMARK    3  A    between atoms: C_3  and  C_4
REMARK    4  A    between atoms: C_4  and  C_5
REMARK    5  A    between atoms: C_5  and  C_6
REMARK    6  A    between atoms: C_5  and  C_17
REMARK    7  A    between atoms: C_6  and  O_7
REMARK    8  A    between atoms: O_7  and  C_8
REMARK    9  A    between atoms: C_11  and  C_12
REMARK   10  A    between atoms: C_21  and  O_22
REMARK   11  A    between atoms: O_22  and  C_23
REMARK                            x       y       z     vdW  Elec       q    Type
REMARK                         _______ _______ _______ _____ _____    ______ ____
ROOT
ATOM      1  C   UNL     1      45.348   4.828  11.779  0.00  0.00    +0.000 C 
ENDROOT
BRANCH   1   2
ATOM      2  C   UNL     1      45.860   6.251  11.971  0.00  0.00    +0.000 A 
ATOM      3  C   UNL     1      47.238   6.502  11.957  0.00  0.00    +0.000 A 
ATOM      4  C   UNL     1      47.720   7.813  11.969  0.00  0.00    +0.000 A 
ATOM      5  C   UNL     1      46.833   8.892  12.009  0.00  0.00    +0.000 A 
ATOM      6  C   UNL     1      45.464   8.655  12.069  0.00  0.00    +0.000 A 
ATOM      7  C   UNL     1      44.982   7.343  12.046  0.00  0.00    +0.000 A 
BRANCH   6   8
ATOM      8  O   UNL     1      44.496   9.628  12.084  0.00  0.00    +0.000 OA
BRANCH   8   9
ATOM      9  C   UNL     1      43.679   9.825  10.908  0.00  0.00    +0.000 C 
ATOM     10  C   UNL     1      44.131  10.881   9.880  0.00  0.00    +0.000 C 
ATOM     11  N   UNL     1      42.818  11.538   9.947  0.00  0.00    +0.000 NA
ATOM     12  C   UNL     1      42.453  10.738  11.126  0.00  0.00    +0.000 C 
ATOM     13  H   UNL     1      42.225  11.375   9.135  0.00  0.00    +0.000 HD
ENDBRANCH   8   9
ENDBRANCH   6   8
ENDBRANCH   1   2
BRANCH   1  14
ATOM     14  C   UNL     1      45.540   3.965  13.051  0.00  0.00    +0.000 C 
BRANCH  14  15
ATOM     15  C   UNL     1      46.970   4.023  13.608  0.00  0.00    +0.000 C 
BRANCH  15  17
ATOM     16  C   UNL     1      47.959   5.501  15.381  0.00  0.00    +0.000 C 
ATOM     17  C   UNL     1      47.002   4.350  15.101  0.00  0.00    +0.000 C 
ENDBRANCH  15  17
ENDBRANCH  14  15
ENDBRANCH   1  14
BRANCH   1  18
ATOM     18  C   UNL     1      43.877   4.850  11.320  0.00  0.00    +0.000 C 
BRANCH  18  19
ATOM     19  O   UNL     1      43.788   4.971   9.892  0.00  0.00    +0.000 OA
BRANCH  19  20
ATOM     20  C   UNL     1      44.549   4.017   9.251  0.00  0.00    +0.000 A 
ATOM     21  C   UNL     1      45.523   4.464   8.375  0.00  0.00    +0.000 A 
ATOM     22  C   UNL     1      46.351   3.516   7.774  0.00  0.00    +0.000 A 
ATOM     23  C   UNL     1      46.179   2.157   8.062  0.00  0.00    +0.000 A 
ATOM     24  C   UNL     1      45.157   1.816   8.936  0.00  0.00    +0.000 A 
ATOM     25  N   UNL     1      44.343   2.712   9.534  0.00  0.00    +0.000 NA
BRANCH  23  26
ATOM     26  C   UNL     1      47.086   1.153   7.457  0.00  0.00    +0.000 C 
ATOM     27  N   UNL     1      48.135   1.574   6.697  0.00  0.00    +0.000 N 
ATOM     28  O   UNL     1      46.896  -0.046   7.629  0.00  0.00    +0.000 OA
ATOM     29  H   UNL     1      48.376   2.529   6.477  0.00  0.00    +0.000 HD
ATOM     30  H   UNL     1      48.713   0.847   6.286  0.00  0.00    +0.000 HD
ENDBRANCH  23  26
ENDBRANCH  19  20
ENDBRANCH  18  19
ENDBRANCH   1  18
TORSDOF 10
ENDMDL
MODEL 6
REMARK VINA RESULT:    -6.590      2.220      7.545
REMARK INTER + INTRA:         -11.745
REMARK INTER:                 -10.423
REMARK INTRA:                  -1.322
REMARK UNBOUND:                -1.303
REMARK  Name = 
REMARK  11 active torsions:
REMARK  status: ('A' for Active; 'I' for Inactive)
REMARK    1  A    between atoms: C_1  and  C_2
REMARK    2  A    between atoms: C_2  and  C_3
REMARK    3  A    between atoms: C_3  and  C_4
REMARK    4  A    between atoms: C_4  and  C_5
REMARK    5  A    between atoms: C_5  and  C_6
REMARK    6  A    between atoms: C_5  and  C_17
REMARK    7  A    between atoms: C_6  and  O_7
REMARK    8  A    between atoms: O_7  and  C_8
REMARK    9  A    between atoms: C_11  and  C_12
REMARK   10  A    between atoms: C_21  and  O_22
REMARK   11  A    between atoms: O_22  and  C_23
REMARK                            x       y       z     vdW  Elec       q    Type
REMARK                         _______ _______ _______ _____ _____    ______ ____
ROOT
ATOM      1  C   UNL     1      46.369   7.357  11.769  0.00  0.00    +0.000 C 
ENDROOT
BRANCH   1   2
ATOM      2  C   UNL     1      45.271   6.315  11.586  0.00  0.00    +0.000 A 
ATOM      3  C   UNL     1      43.927   6.693  11.704  0.00  0.00    +0.000 A 
ATOM      4  C   UNL     1      42.907   5.794  11.383  0.00  0.00    +0.000 A 
ATOM      5  C   UNL     1      43.214   4.501  10.953  0.00  0.00    +0.000 A 
ATOM      6  C   UNL     1      44.544   4.100  10.875  0.00  0.00    +0.000 A 
ATOM      7  C   UNL     1      45.564   5.002  11.187  0.00  0.00    +0.000 A 
BRANCH   6   8
ATOM      8  O   UNL     1      44.971   2.869  10.442  0.00  0.00    +0.000 OA
BRANCH   8   9
ATOM      9  C   UNL     1      44.833   2.529   9.043  0.00  0.00    +0.000 C 
ATOM     10  C   UNL     1      46.011   1.816   8.351  0.00  0.00    +0.000 C 
ATOM     11  N   UNL     1      46.035   2.840   7.296  0.00  0.00    +0.000 NA
ATOM     12  C   UNL     1      45.121   3.691   8.071  0.00  0.00    +0.000 C 
ATOM     13  H   UNL     1      45.657   2.531   6.402  0.00  0.00    +0.000 HD
ENDBRANCH   8   9
ENDBRANCH   6   8
ENDBRANCH   1   2
BRANCH   1  14
ATOM     14  C   UNL     1      45.929   8.507  12.709  0.00  0.00    +0.000 C 
BRANCH  14  15
ATOM     15  C   UNL     1      45.860   9.869  12.003  0.00  0.00    +0.000 C 
BRANCH  15  17
ATOM     16  C   UNL     1      44.012  10.288  10.356  0.00  0.00    +0.000 C 
ATOM     17  C   UNL     1      44.425  10.360  11.820  0.00  0.00    +0.000 C 
ENDBRANCH  15  17
ENDBRANCH  14  15
ENDBRANCH   1  14
BRANCH   1  18
ATOM     18  C   UNL     1      47.665   6.683  12.260  0.00  0.00    +0.000 C 
BRANCH  18  19
ATOM     19  O   UNL     1      48.035   7.169  13.559  0.00  0.00    +0.000 OA
BRANCH  19  20
ATOM     20  C   UNL     1      48.003   6.169  14.507  0.00  0.00    +0.000 A 
ATOM     21  C   UNL     1      48.614   6.424  15.721  0.00  0.00    +0.000 A 
ATOM     22  C   UNL     1      48.527   5.452  16.718  0.00  0.00    +0.000 A 
ATOM     23  C   UNL     1      47.838   4.259  16.471  0.00  0.00    +0.000 A 
ATOM     24  C   UNL     1      47.282   4.095  15.211  0.00  0.00    +0.000 A 
ATOM     25  N   UNL     1      47.348   5.020  14.229  0.00  0.00    +0.000 NA
BRANCH  23  26
ATOM     26  C   UNL     1      47.709   3.245  17.544  0.00  0.00    +0.000 C 
ATOM     27  N   UNL     1      48.777   2.986  18.349  0.00  0.00    +0.000 N 
ATOM     28  O   UNL     1      46.657   2.637  17.706  0.00  0.00    +0.000 OA
ATOM     29  H   UNL     1      49.690   3.412  18.297  0.00  0.00    +0.000 HD
ATOM     30  H   UNL     1      48.644   2.267  19.054  0.00  0.00    +0.000 HD
ENDBRANCH  23  26
ENDBRANCH  19  20
ENDBRANCH  18  19
ENDBRANCH   1  18
TORSDOF 10
ENDMDL
MODEL 7
REMARK VINA RESULT:    -6.489      2.213      3.786
REMARK INTER + INTRA:         -11.585
REMARK INTER:                 -10.284
REMARK INTRA:                  -1.301
REMARK UNBOUND:                -1.303
REMARK  Name = 
REMARK  11 active torsions:
REMARK  status: ('A' for Active; 'I' for Inactive)
REMARK    1  A    between atoms: C_1  and  C_2
REMARK    2  A    between atoms: C_2  and  C_3
REMARK    3  A    between atoms: C_3  and  C_4
REMARK    4  A    between atoms: C_4  and  C_5
REMARK    5  A    between atoms: C_5  and  C_6
REMARK    6  A    between atoms: C_5  and  C_17
REMARK    7  A    between atoms: C_6  and  O_7
REMARK    8  A    between atoms: O_7  and  C_8
REMARK    9  A    between atoms: C_11  and  C_12
REMARK   10  A    between atoms: C_21  and  O_22
REMARK   11  A    between atoms: O_22  and  C_23
REMARK                            x       y       z     vdW  Elec       q    Type
REMARK                         _______ _______ _______ _____ _____    ______ ____
ROOT
ATOM      1  C   UNL     1      44.788   6.009  12.096  0.00  0.00    +0.000 C 
ENDROOT
BRANCH   1   2
ATOM      2  C   UNL     1      45.867   5.748  13.142  0.00  0.00    +0.000 A 
ATOM      3  C   UNL     1      45.741   4.661  14.016  0.00  0.00    +0.000 A 
ATOM      4  C   UNL     1      46.791   4.311  14.869  0.00  0.00    +0.000 A 
ATOM      5  C   UNL     1      47.976   5.051  14.871  0.00  0.00    +0.000 A 
ATOM      6  C   UNL     1      48.096   6.160  14.040  0.00  0.00    +0.000 A 
ATOM      7  C   UNL     1      47.049   6.503  13.180  0.00  0.00    +0.000 A 
BRANCH   6   8
ATOM      8  O   UNL     1      49.216   6.947  13.934  0.00  0.00    +0.000 OA
BRANCH   8   9
ATOM      9  C   UNL     1      49.200   8.073  13.027  0.00  0.00    +0.000 C 
ATOM     10  C   UNL     1      49.923   7.924  11.674  0.00  0.00    +0.000 C 
ATOM     11  N   UNL     1      50.703   9.143  11.935  0.00  0.00    +0.000 NA
ATOM     12  C   UNL     1      50.254   9.158  13.334  0.00  0.00    +0.000 C 
ATOM     13  H   UNL     1      50.406   9.954  11.395  0.00  0.00    +0.000 HD
ENDBRANCH   8   9
ENDBRANCH   6   8
ENDBRANCH   1   2
BRANCH   1  14
ATOM     14  C   UNL     1      45.201   7.118  11.098  0.00  0.00    +0.000 C 
BRANCH  14  15
ATOM     15  C   UNL     1      44.429   8.430  11.303  0.00  0.00    +0.000 C 
BRANCH  15  17
ATOM     16  C   UNL     1      46.265  10.040  11.886  0.00  0.00    +0.000 C 
ATOM     17  C   UNL     1      45.039   9.300  12.402  0.00  0.00    +0.000 C 
ENDBRANCH  15  17
ENDBRANCH  14  15
ENDBRANCH   1  14
BRANCH   1  18
ATOM     18  C   UNL     1      44.421   4.697  11.374  0.00  0.00    +0.000 C 
BRANCH  18  19
ATOM     19  O   UNL     1      44.210   4.928   9.972  0.00  0.00    +0.000 OA
BRANCH  19  20
ATOM     20  C   UNL     1      45.039   4.147   9.196  0.00  0.00    +0.000 A 
ATOM     21  C   UNL     1      44.976   2.777   9.379  0.00  0.00    +0.000 A 
ATOM     22  C   UNL     1      45.753   1.967   8.550  0.00  0.00    +0.000 A 
ATOM     23  C   UNL     1      46.567   2.548   7.571  0.00  0.00    +0.000 A 
ATOM     24  C   UNL     1      46.573   3.933   7.488  0.00  0.00    +0.000 A 
ATOM     25  N   UNL     1      45.829   4.741   8.274  0.00  0.00    +0.000 NA
BRANCH  23  26
ATOM     26  C   UNL     1      47.359   1.687   6.662  0.00  0.00    +0.000 C 
ATOM     27  N   UNL     1      48.356   2.242   5.917  0.00  0.00    +0.000 N 
ATOM     28  O   UNL     1      47.121   0.488   6.571  0.00  0.00    +0.000 OA
ATOM     29  H   UNL     1      48.628   3.213   5.901  0.00  0.00    +0.000 HD
ATOM     30  H   UNL     1      48.854   1.614   5.294  0.00  0.00    +0.000 HD
ENDBRANCH  23  26
ENDBRANCH  19  20
ENDBRANCH  18  19
ENDBRANCH   1  18
TORSDOF 10
ENDMDL
MODEL 8
REMARK VINA RESULT:    -6.286      2.031      8.801
REMARK INTER + INTRA:         -11.264
REMARK INTER:                 -10.424
REMARK INTRA:                  -0.841
REMARK UNBOUND:                -1.303
REMARK  Name = 
REMARK  11 active torsions:
REMARK  status: ('A' for Active; 'I' for Inactive)
REMARK    1  A    between atoms: C_1  and  C_2
REMARK    2  A    between atoms: C_2  and  C_3
REMARK    3  A    between atoms: C_3  and  C_4
REMARK    4  A    between atoms: C_4  and  C_5
REMARK    5  A    between atoms: C_5  and  C_6
REMARK    6  A    between atoms: C_5  and  C_17
REMARK    7  A    between atoms: C_6  and  O_7
REMARK    8  A    between atoms: O_7  and  C_8
REMARK    9  A    between atoms: C_11  and  C_12
REMARK   10  A    between atoms: C_21  and  O_22
REMARK   11  A    between atoms: O_22  and  C_23
REMARK                            x       y       z     vdW  Elec       q    Type
REMARK                         _______ _______ _______ _____ _____    ______ ____
ROOT
ATOM      1  C   UNL     1      46.714   4.999  13.401  0.00  0.00    +0.000 C 
ENDROOT
BRANCH   1   2
ATOM      2  C   UNL     1      45.420   4.607  12.697  0.00  0.00    +0.000 A 
ATOM      3  C   UNL     1      44.250   5.342  12.932  0.00  0.00    +0.000 A 
ATOM      4  C   UNL     1      43.099   5.101  12.179  0.00  0.00    +0.000 A 
ATOM      5  C   UNL     1      43.094   4.114  11.190  0.00  0.00    +0.000 A 
ATOM      6  C   UNL     1      44.236   3.347  10.978  0.00  0.00    +0.000 A 
ATOM      7  C   UNL     1      45.390   3.595  11.726  0.00  0.00    +0.000 A 
BRANCH   6   8
ATOM      8  O   UNL     1      44.362   2.370  10.022  0.00  0.00    +0.000 OA
BRANCH   8   9
ATOM      9  C   UNL     1      44.586   2.758   8.647  0.00  0.00    +0.000 C 
ATOM     10  C   UNL     1      45.971   2.474   8.031  0.00  0.00    +0.000 C 
ATOM     11  N   UNL     1      46.104   3.883   7.633  0.00  0.00    +0.000 NA
ATOM     12  C   UNL     1      44.939   4.248   8.452  0.00  0.00    +0.000 C 
ATOM     13  H   UNL     1      45.979   4.051   6.636  0.00  0.00    +0.000 HD
ENDBRANCH   8   9
ENDBRANCH   6   8
ENDBRANCH   1   2
BRANCH   1  14
ATOM     14  C   UNL     1      47.051   6.499  13.207  0.00  0.00    +0.000 C 
BRANCH  14  15
ATOM     15  C   UNL     1      47.387   6.856  11.752  0.00  0.00    +0.000 C 
BRANCH  15  17
ATOM     16  C   UNL     1      49.704   7.512  12.462  0.00  0.00    +0.000 C 
ATOM     17  C   UNL     1      48.482   7.917  11.649  0.00  0.00    +0.000 C 
ENDBRANCH  15  17
ENDBRANCH  14  15
ENDBRANCH   1  14
BRANCH   1  18
ATOM     18  C   UNL     1      46.644   4.619  14.893  0.00  0.00    +0.000 C 
BRANCH  18  19
ATOM     19  O   UNL     1      47.742   3.768  15.256  0.00  0.00    +0.000 OA
BRANCH  19  20
ATOM     20  C   UNL     1      48.151   3.988  16.554  0.00  0.00    +0.000 A 
ATOM     21  C   UNL     1      47.338   4.771  17.353  0.00  0.00    +0.000 A 
ATOM     22  C   UNL     1      47.699   4.943  18.689  0.00  0.00    +0.000 A 
ATOM     23  C   UNL     1      48.858   4.332  19.183  0.00  0.00    +0.000 A 
ATOM     24  C   UNL     1      49.614   3.587  18.290  0.00  0.00    +0.000 A 
ATOM     25  N   UNL     1      49.287   3.401  16.994  0.00  0.00    +0.000 NA
BRANCH  23  26
ATOM     26  C   UNL     1      49.218   4.479  20.613  0.00  0.00    +0.000 C 
ATOM     27  N   UNL     1      50.525   4.657  20.957  0.00  0.00    +0.000 N 
ATOM     28  O   UNL     1      48.357   4.435  21.484  0.00  0.00    +0.000 OA
ATOM     29  H   UNL     1      51.314   4.694  20.329  0.00  0.00    +0.000 HD
ATOM     30  H   UNL     1      50.722   4.729  21.950  0.00  0.00    +0.000 HD
ENDBRANCH  23  26
ENDBRANCH  19  20
ENDBRANCH  18  19
ENDBRANCH   1  18
TORSDOF 10
ENDMDL
MODEL 9
REMARK VINA RESULT:    -6.155      1.802      8.196
REMARK INTER + INTRA:         -11.057
REMARK INTER:                  -9.797
REMARK INTRA:                  -1.260
REMARK UNBOUND:                -1.303
REMARK  Name = 
REMARK  11 active torsions:
REMARK  status: ('A' for Active; 'I' for Inactive)
REMARK    1  A    between atoms: C_1  and  C_2
REMARK    2  A    between atoms: C_2  and  C_3
REMARK    3  A    between atoms: C_3  and  C_4
REMARK    4  A    between atoms: C_4  and  C_5
REMARK    5  A    between atoms: C_5  and  C_6
REMARK    6  A    between atoms: C_5  and  C_17
REMARK    7  A    between atoms: C_6  and  O_7
REMARK    8  A    between atoms: O_7  and  C_8
REMARK    9  A    between atoms: C_11  and  C_12
REMARK   10  A    between atoms: C_21  and  O_22
REMARK   11  A    between atoms: O_22  and  C_23
REMARK                            x       y       z     vdW  Elec       q    Type
REMARK                         _______ _______ _______ _____ _____    ______ ____
ROOT
ATOM      1  C   UNL     1      46.654   6.937  12.194  0.00  0.00    +0.000 C 
ENDROOT
BRANCH   1   2
ATOM      2  C   UNL     1      45.459   6.063  11.828  0.00  0.00    +0.000 A 
ATOM      3  C   UNL     1      44.296   6.111  12.607  0.00  0.00    +0.000 A 
ATOM      4  C   UNL     1      43.140   5.443  12.198  0.00  0.00    +0.000 A 
ATOM      5  C   UNL     1      43.132   4.705  11.012  0.00  0.00    +0.000 A 
ATOM      6  C   UNL     1      44.294   4.612  10.252  0.00  0.00    +0.000 A 
ATOM      7  C   UNL     1      45.448   5.289  10.657  0.00  0.00    +0.000 A 
BRANCH   6   8
ATOM      8  O   UNL     1      44.403   3.942   9.059  0.00  0.00    +0.000 OA
BRANCH   8   9
ATOM      9  C   UNL     1      45.693   3.423   8.660  0.00  0.00    +0.000 C 
ATOM     10  C   UNL     1      46.068   3.485   7.167  0.00  0.00    +0.000 C 
ATOM     11  N   UNL     1      46.357   2.043   7.160  0.00  0.00    +0.000 NA
ATOM     12  C   UNL     1      45.739   1.890   8.485  0.00  0.00    +0.000 C 
ATOM     13  H   UNL     1      47.350   1.814   7.136  0.00  0.00    +0.000 HD
ENDBRANCH   8   9
ENDBRANCH   6   8
ENDBRANCH   1   2
BRANCH   1  14
ATOM     14  C   UNL     1      46.230   8.197  12.988  0.00  0.00    +0.000 C 
BRANCH  14  15
ATOM     15  C   UNL     1      46.706   9.505  12.340  0.00  0.00    +0.000 C 
BRANCH  15  17
ATOM     16  C   UNL     1      48.707   9.709  13.844  0.00  0.00    +0.000 C 
ATOM     17  C   UNL     1      48.225   9.668  12.400  0.00  0.00    +0.000 C 
ENDBRANCH  15  17
ENDBRANCH  14  15
ENDBRANCH   1  14
BRANCH   1  18
ATOM     18  C   UNL     1      47.705   6.107  12.957  0.00  0.00    +0.000 C 
BRANCH  18  19
ATOM     19  O   UNL     1      47.103   4.957  13.570  0.00  0.00    +0.000 OA
BRANCH  19  20
ATOM     20  C   UNL     1      47.428   4.861  14.906  0.00  0.00    +0.000 A 
ATOM     21  C   UNL     1      48.273   5.826  15.426  0.00  0.00    +0.000 A 
ATOM     22  C   UNL     1      48.553   5.787  16.792  0.00  0.00    +0.000 A 
ATOM     23  C   UNL     1      47.986   4.788  17.592  0.00  0.00    +0.000 A 
ATOM     24  C   UNL     1      47.173   3.856  16.965  0.00  0.00    +0.000 A 
ATOM     25  N   UNL     1      46.881   3.871  15.647  0.00  0.00    +0.000 NA
BRANCH  23  26
ATOM     26  C   UNL     1      48.249   4.772  19.050  0.00  0.00    +0.000 C 
ATOM     27  N   UNL     1      48.481   3.583  19.673  0.00  0.00    +0.000 N 
ATOM     28  O   UNL     1      48.253   5.813  19.697  0.00  0.00    +0.000 OA
ATOM     29  H   UNL     1      48.487   2.668  19.246  0.00  0.00    +0.000 HD
ATOM     30  H   UNL     1      48.633   3.623  20.676  0.00  0.00    +0.000 HD
ENDBRANCH  23  26
ENDBRANCH  19  20
ENDBRANCH  18  19
ENDBRANCH   1  18
TORSDOF 10
ENDMDL
