MODEL 1
REMARK VINA RESULT:    -8.796      0.000      0.000
REMARK INTER + INTRA:         -13.581
REMARK INTER:                 -12.652
REMARK INTRA:                  -0.929
REMARK UNBOUND:                -0.929
REMARK  Name = 
REMARK  8 active torsions:
REMARK  status: ('A' for Active; 'I' for Inactive)
REMARK    1  A    between atoms: C_2  and  C_4
REMARK    2  A    between atoms: C_7  and  N_8
REMARK    3  A    between atoms: N_8  and  C_9
REMARK    4  A    between atoms: C_9  and  C_10
REMARK    5  A    between atoms: C_10  and  O_11
REMARK    6  A    between atoms: C_10  and  C_12
REMARK    7  A    between atoms: C_17  and  C_18
REMARK    8  A    between atoms: C_18  and  C_19
REMARK                            x       y       z     vdW  Elec       q    Type
REMARK                         _______ _______ _______ _____ _____    ______ ____
ROOT
ATOM      1  C   UNL     1      43.526   5.581  12.262  0.00  0.00    +0.000 C 
ENDROOT
BRANCH   1   2
ATOM      2  C   UNL     1      45.015   5.593  12.559  0.00  0.00    +0.000 A 
ATOM      3  C   UNL     1      45.865   6.544  11.983  0.00  0.00    +0.000 A 
ATOM      4  C   UNL     1      47.201   6.608  12.372  0.00  0.00    +0.000 A 
ATOM      5  F   UNL     1      47.991   7.546  11.833  0.00  0.00    +0.000 F 
ATOM      6  C   UNL     1      47.716   5.735  13.320  0.00  0.00    +0.000 A 
ATOM      7  C   UNL     1      46.896   4.749  13.884  0.00  0.00    +0.000 A 
ATOM      8  C   UNL     1      45.548   4.686  13.494  0.00  0.00    +0.000 A 
BRANCH   7   9
ATOM      9  C   UNL     1      47.450   3.769  14.890  0.00  0.00    +0.000 C 
BRANCH   9  10
ATOM     10  C   UNL     1      47.179   4.226  16.318  0.00  0.00    +0.000 C 
ATOM     11  C   UNL     1      48.367   4.960  16.971  0.00  0.00    +0.000 C 
ATOM     12  N   UNL     1      48.271   4.090  18.147  0.00  0.00    +0.000 NA
ATOM     13  C   UNL     1      47.328   3.200  17.459  0.00  0.00    +0.000 C 
ATOM     14  H   UNL     1      47.884   4.549  18.971  0.00  0.00    +0.000 HD
ENDBRANCH   9  10
ENDBRANCH   7   9
ENDBRANCH   1   2
BRANCH   1  15
ATOM     15  O   UNL     1      42.781   5.428  13.474  0.00  0.00    +0.000 OA
ATOM     16  H   UNL     1      41.886   5.771  13.323  0.00  0.00    +0.000 HD
ENDBRANCH   1  15
BRANCH   1  17
ATOM     17  C   UNL     1      43.197   4.453  11.259  0.00  0.00    +0.000 C 
BRANCH  17  18
ATOM     18  N   UNL     1      43.649   4.793   9.914  0.00  0.00    +0.000 N 
ATOM     19  H   UNL     1      42.939   5.244   9.335  0.00  0.00    +0.000 HD
BRANCH  18  23
ATOM     20  C   UNL     1      46.325   2.258   7.865  0.00  0.00    +0.000 A 
ATOM     21  C   UNL     1      45.390   1.702   8.739  0.00  0.00    +0.000 A 
ATOM     22  C   UNL     1      44.486   2.530   9.413  0.00  0.00    +0.000 A 
ATOM     23  C   UNL     1      44.471   3.917   9.208  0.00  0.00    +0.000 A 
ATOM     24  C   UNL     1      45.432   4.458   8.346  0.00  0.00    +0.000 A 
ATOM     25  C   UNL     1      46.356   3.642   7.683  0.00  0.00    +0.000 A 
BRANCH  20  27
ATOM     26  N   UNL     1      48.372   2.070   6.564  0.00  0.00    +0.000 N 
ATOM     27  C   UNL     1      47.319   1.421   7.148  0.00  0.00    +0.000 C 
ATOM     28  O   UNL     1      47.230   0.202   7.111  0.00  0.00    +0.000 OA
ATOM     29  H   UNL     1      49.098   1.482   6.177  0.00  0.00    +0.000 HD
ATOM     30  H   UNL     1      48.610   3.024   6.791  0.00  0.00    +0.000 HD
ENDBRANCH  20  27
ENDBRANCH  18  23
ENDBRANCH  17  18
ENDBRANCH   1  17
TORSDOF 8
ENDMDL
MODEL 2
REMARK VINA RESULT:    -8.541      2.231      3.288
REMARK INTER + INTRA:         -13.215
REMARK INTER:                 -12.239
REMARK INTRA:                  -0.976
REMARK UNBOUND:                -0.929
REMARK  Name = 
REMARK  8 active torsions:
REMARK  status: ('A' for Active; 'I' for Inactive)
REMARK    1  A    between atoms: C_2  and  C_4
REMARK    2  A    between atoms: C_7  and  N_8
REMARK    3  A    between atoms: N_8  and  C_9
REMARK    4  A    between atoms: C_9  and  C_10
REMARK    5  A    between atoms: C_10  and  O_11
REMARK    6  A    between atoms: C_10  and  C_12
REMARK    7  A    between atoms: C_17  and  C_18
REMARK    8  A    between atoms: C_18  and  C_19
REMARK                            x       y       z     vdW  Elec       q    Type
REMARK                         _______ _______ _______ _____ _____    ______ ____
ROOT
ATOM      1  C   UNL     1      43.480   5.507  12.218  0.00  0.00    +0.000 C 
ENDROOT
BRANCH   1   2
ATOM      2  C   UNL     1      44.926   5.585  12.678  0.00  0.00    +0.000 A 
ATOM      3  C   UNL     1      45.446   4.671  13.601  0.00  0.00    +0.000 A 
ATOM      4  C   UNL     1      46.805   4.689  13.905  0.00  0.00    +0.000 A 
ATOM      5  F   UNL     1      47.291   3.787  14.767  0.00  0.00    +0.000 F 
ATOM      6  C   UNL     1      47.662   5.610  13.316  0.00  0.00    +0.000 A 
ATOM      7  C   UNL     1      47.159   6.559  12.418  0.00  0.00    +0.000 A 
ATOM      8  C   UNL     1      45.789   6.539  12.107  0.00  0.00    +0.000 A 
BRANCH   7   9
ATOM      9  C   UNL     1      48.071   7.589  11.795  0.00  0.00    +0.000 C 
BRANCH   9  10
ATOM     10  C   UNL     1      49.519   7.376  12.215  0.00  0.00    +0.000 C 
ATOM     11  C   UNL     1      50.081   8.503  13.104  0.00  0.00    +0.000 C 
ATOM     12  N   UNL     1      51.253   8.620  12.233  0.00  0.00    +0.000 NA
ATOM     13  C   UNL     1      50.637   7.753  11.222  0.00  0.00    +0.000 C 
ATOM     14  H   UNL     1      52.110   8.242  12.638  0.00  0.00    +0.000 HD
ENDBRANCH   9  10
ENDBRANCH   7   9
ENDBRANCH   1   2
BRANCH   1  15
ATOM     15  O   UNL     1      42.608   5.398  13.346  0.00  0.00    +0.000 OA
ATOM     16  H   UNL     1      41.809   5.918  13.160  0.00  0.00    +0.000 HD
ENDBRANCH   1  15
BRANCH   1  17
ATOM     17  C   UNL     1      43.298   4.313  11.254  0.00  0.00    +0.000 C 
BRANCH  17  18
ATOM     18  N   UNL     1      43.634   4.683   9.883  0.00  0.00    +0.000 N 
ATOM     19  H   UNL     1      42.841   5.015   9.333  0.00  0.00    +0.000 HD
BRANCH  18  23
ATOM     20  C   UNL     1      46.552   2.488   7.773  0.00  0.00    +0.000 A 
ATOM     21  C   UNL     1      45.632   1.809   8.575  0.00  0.00    +0.000 A 
ATOM     22  C   UNL     1      44.649   2.524   9.268  0.00  0.00    +0.000 A 
ATOM     23  C   UNL     1      44.540   3.917   9.153  0.00  0.00    +0.000 A 
ATOM     24  C   UNL     1      45.486   4.582   8.364  0.00  0.00    +0.000 A 
ATOM     25  C   UNL     1      46.488   3.880   7.684  0.00  0.00    +0.000 A 
BRANCH  20  27
ATOM     26  N   UNL     1      48.549   2.542   6.386  0.00  0.00    +0.000 N 
ATOM     27  C   UNL     1      47.626   1.773   7.041  0.00  0.00    +0.000 C 
ATOM     28  O   UNL     1      47.714   0.553   7.051  0.00  0.00    +0.000 OA
ATOM     29  H   UNL     1      49.337   2.048   5.986  0.00  0.00    +0.000 HD
ATOM     30  H   UNL     1      48.655   3.528   6.568  0.00  0.00    +0.000 HD
ENDBRANCH  20  27
ENDBRANCH  18  23
ENDBRANCH  17  18
ENDBRANCH   1  17
TORSDOF 8
ENDMDL
MODEL 3
REMARK VINA RESULT:    -7.791      2.689      4.542
REMARK INTER + INTRA:         -12.137
REMARK INTER:                 -11.462
REMARK INTRA:                  -0.674
REMARK UNBOUND:                -0.929
REMARK  Name = 
REMARK  8 active torsions:
REMARK  status: ('A' for Active; 'I' for Inactive)
REMARK    1  A    between atoms: C_2  and  C_4
REMARK    2  A    between atoms: C_7  and  N_8
REMARK    3  A    between atoms: N_8  and  C_9
REMARK    4  A    between atoms: C_9  and  C_10
REMARK    5  A    between atoms: C_10  and  O_11
REMARK    6  A    between atoms: C_10  and  C_12
REMARK    7  A    between atoms: C_17  and  C_18
REMARK    8  A    between atoms: C_18  and  C_19
REMARK                            x       y       z     vdW  Elec       q    Type
REMARK                         _______ _______ _______ _____ _____    ______ ____
ROOT
ATOM      1  C   UNL     1      43.901   4.541  12.549  0.00  0.00    +0.000 C 
ENDROOT
BRANCH   1   2
ATOM      2  C   UNL     1      44.920   5.668  12.562  0.00  0.00    +0.000 A 
ATOM      3  C   UNL     1      46.292   5.407  12.647  0.00  0.00    +0.000 A 
ATOM      4  C   UNL     1      47.206   6.452  12.528  0.00  0.00    +0.000 A 
ATOM      5  F   UNL     1      48.516   6.180  12.581  0.00  0.00    +0.000 F 
ATOM      6  C   UNL     1      46.781   7.760  12.335  0.00  0.00    +0.000 A 
ATOM      7  C   UNL     1      45.413   8.052  12.284  0.00  0.00    +0.000 A 
ATOM      8  C   UNL     1      44.491   6.998  12.401  0.00  0.00    +0.000 A 
BRANCH   7   9
ATOM      9  C   UNL     1      44.934   9.474  12.110  0.00  0.00    +0.000 C 
BRANCH   9  10
ATOM     10  C   UNL     1      44.250   9.669  10.763  0.00  0.00    +0.000 C 
ATOM     11  C   UNL     1      44.326  11.114  10.231  0.00  0.00    +0.000 C 
ATOM     12  N   UNL     1      42.879  11.113   9.995  0.00  0.00    +0.000 NA
ATOM     13  C   UNL     1      42.720   9.856  10.736  0.00  0.00    +0.000 C 
ATOM     14  H   UNL     1      42.620  11.052   9.011  0.00  0.00    +0.000 HD
ENDBRANCH   9  10
ENDBRANCH   7   9
ENDBRANCH   1   2
BRANCH   1  15
ATOM     15  O   UNL     1      44.526   3.306  12.908  0.00  0.00    +0.000 OA
ATOM     16  H   UNL     1      45.290   3.507  13.472  0.00  0.00    +0.000 HD
ENDBRANCH   1  15
BRANCH   1  17
ATOM     17  C   UNL     1      43.237   4.447  11.158  0.00  0.00    +0.000 C 
BRANCH  17  18
ATOM     18  N   UNL     1      44.102   4.997  10.120  0.00  0.00    +0.000 N 
ATOM     19  H   UNL     1      43.712   5.805   9.633  0.00  0.00    +0.000 HD
BRANCH  18  23
ATOM     20  C   UNL     1      46.510   2.520   7.700  0.00  0.00    +0.000 A 
ATOM     21  C   UNL     1      45.597   1.937   8.581  0.00  0.00    +0.000 A 
ATOM     22  C   UNL     1      44.782   2.748   9.378  0.00  0.00    +0.000 A 
ATOM     23  C   UNL     1      44.832   4.146   9.293  0.00  0.00    +0.000 A 
ATOM     24  C   UNL     1      45.771   4.712   8.421  0.00  0.00    +0.000 A 
ATOM     25  C   UNL     1      46.608   3.912   7.635  0.00  0.00    +0.000 A 
BRANCH  20  27
ATOM     26  N   UNL     1      48.467   2.343   6.267  0.00  0.00    +0.000 N 
ATOM     27  C   UNL     1      47.412   1.700   6.855  0.00  0.00    +0.000 C 
ATOM     28  O   UNL     1      47.251   0.495   6.717  0.00  0.00    +0.000 OA
ATOM     29  H   UNL     1      49.136   1.754   5.787  0.00  0.00    +0.000 HD
ATOM     30  H   UNL     1      48.773   3.258   6.561  0.00  0.00    +0.000 HD
ENDBRANCH  20  27
ENDBRANCH  18  23
ENDBRANCH  17  18
ENDBRANCH   1  17
TORSDOF 8
ENDMDL
MODEL 4
REMARK VINA RESULT:    -7.576      1.887      2.238
REMARK INTER + INTRA:         -11.827
REMARK INTER:                 -11.269
REMARK INTRA:                  -0.558
REMARK UNBOUND:                -0.929
REMARK  Name = 
REMARK  8 active torsions:
REMARK  status: ('A' for Active; 'I' for Inactive)
REMARK    1  A    between atoms: C_2  and  C_4
REMARK    2  A    between atoms: C_7  and  N_8
REMARK    3  A    between atoms: N_8  and  C_9
REMARK    4  A    between atoms: C_9  and  C_10
REMARK    5  A    between atoms: C_10  and  O_11
REMARK    6  A    between atoms: C_10  and  C_12
REMARK    7  A    between atoms: C_17  and  C_18
REMARK    8  A    between atoms: C_18  and  C_19
REMARK                            x       y       z     vdW  Elec       q    Type
REMARK                         _______ _______ _______ _____ _____    ______ ____
ROOT
ATOM      1  C   UNL     1      43.885   4.692  12.562  0.00  0.00    +0.000 C 
ENDROOT
BRANCH   1   2
ATOM      2  C   UNL     1      44.857   5.857  12.479  0.00  0.00    +0.000 A 
ATOM      3  C   UNL     1      44.423   7.144  12.143  0.00  0.00    +0.000 A 
ATOM      4  C   UNL     1      45.313   8.214  12.200  0.00  0.00    +0.000 A 
ATOM      5  F   UNL     1      44.872   9.443  11.905  0.00  0.00    +0.000 F 
ATOM      6  C   UNL     1      46.636   8.029  12.577  0.00  0.00    +0.000 A 
ATOM      7  C   UNL     1      47.105   6.745  12.882  0.00  0.00    +0.000 A 
ATOM      8  C   UNL     1      46.207   5.666  12.828  0.00  0.00    +0.000 A 
BRANCH   7   9
ATOM      9  C   UNL     1      48.550   6.521  13.259  0.00  0.00    +0.000 C 
BRANCH   9  10
ATOM     10  C   UNL     1      48.929   7.317  14.501  0.00  0.00    +0.000 C 
ATOM     11  C   UNL     1      50.433   7.644  14.594  0.00  0.00    +0.000 C 
ATOM     12  N   UNL     1      50.470   7.128  15.966  0.00  0.00    +0.000 NA
ATOM     13  C   UNL     1      49.124   6.559  15.829  0.00  0.00    +0.000 C 
ATOM     14  H   UNL     1      50.545   7.853  16.678  0.00  0.00    +0.000 HD
ENDBRANCH   9  10
ENDBRANCH   7   9
ENDBRANCH   1   2
BRANCH   1  15
ATOM     15  O   UNL     1      44.570   3.505  12.973  0.00  0.00    +0.000 OA
ATOM     16  H   UNL     1      44.706   2.948  12.190  0.00  0.00    +0.000 HD
ENDBRANCH   1  15
BRANCH   1  17
ATOM     17  C   UNL     1      43.189   4.489  11.198  0.00  0.00    +0.000 C 
BRANCH  17  18
ATOM     18  N   UNL     1      44.021   4.973  10.101  0.00  0.00    +0.000 N 
ATOM     19  H   UNL     1      43.609   5.741   9.570  0.00  0.00    +0.000 HD
BRANCH  18  23
ATOM     20  C   UNL     1      46.394   2.355   7.799  0.00  0.00    +0.000 A 
ATOM     21  C   UNL     1      45.509   1.827   8.740  0.00  0.00    +0.000 A 
ATOM     22  C   UNL     1      44.705   2.683   9.500  0.00  0.00    +0.000 A 
ATOM     23  C   UNL     1      44.739   4.073   9.317  0.00  0.00    +0.000 A 
ATOM     24  C   UNL     1      45.650   4.585   8.384  0.00  0.00    +0.000 A 
ATOM     25  C   UNL     1      46.475   3.739   7.635  0.00  0.00    +0.000 A 
BRANCH  20  27
ATOM     26  N   UNL     1      48.419   2.057   6.485  0.00  0.00    +0.000 N 
ATOM     27  C   UNL     1      47.283   1.486   6.989  0.00  0.00    +0.000 C 
ATOM     28  O   UNL     1      47.039   0.301   6.810  0.00  0.00    +0.000 OA
ATOM     29  H   UNL     1      49.070   1.429   6.033  0.00  0.00    +0.000 HD
ATOM     30  H   UNL     1      48.774   2.939   6.822  0.00  0.00    +0.000 HD
ENDBRANCH  20  27
ENDBRANCH  18  23
ENDBRANCH  17  18
ENDBRANCH   1  17
TORSDOF 8
ENDMDL
MODEL 5
REMARK VINA RESULT:    -7.173      2.737      7.623
REMARK INTER + INTRA:         -11.248
REMARK INTER:                 -10.530
REMARK INTRA:                  -0.717
REMARK UNBOUND:                -0.929
REMARK  Name = 
REMARK  8 active torsions:
REMARK  status: ('A' for Active; 'I' for Inactive)
REMARK    1  A    between atoms: C_2  and  C_4
REMARK    2  A    between atoms: C_7  and  N_8
REMARK    3  A    between atoms: N_8  and  C_9
REMARK    4  A    between atoms: C_9  and  C_10
REMARK    5  A    between atoms: C_10  and  O_11
REMARK    6  A    between atoms: C_10  and  C_12
REMARK    7  A    between atoms: C_17  and  C_18
REMARK    8  A    between atoms: C_18  and  C_19
REMARK                            x       y       z     vdW  Elec       q    Type
REMARK                         _______ _______ _______ _____ _____    ______ ____
ROOT
ATOM      1  C   UNL     1      44.850   6.757  11.669  0.00  0.00    +0.000 C 
ENDROOT
BRANCH   1   2
ATOM      2  C   UNL     1      44.702   5.337  11.151  0.00  0.00    +0.000 A 
ATOM      3  C   UNL     1      44.038   4.356  11.897  0.00  0.00    +0.000 A 
ATOM      4  C   UNL     1      43.808   3.099  11.342  0.00  0.00    +0.000 A 
ATOM      5  F   UNL     1      43.144   2.183  12.058  0.00  0.00    +0.000 F 
ATOM      6  C   UNL     1      44.235   2.792  10.056  0.00  0.00    +0.000 A 
ATOM      7  C   UNL     1      44.934   3.743   9.304  0.00  0.00    +0.000 A 
ATOM      8  C   UNL     1      45.164   5.012   9.862  0.00  0.00    +0.000 A 
BRANCH   7   9
ATOM      9  C   UNL     1      45.436   3.413   7.919  0.00  0.00    +0.000 C 
BRANCH   9  10
ATOM     10  C   UNL     1      46.729   2.609   7.973  0.00  0.00    +0.000 C 
ATOM     11  C   UNL     1      47.608   2.761   6.717  0.00  0.00    +0.000 C 
ATOM     12  N   UNL     1      47.718   1.303   6.606  0.00  0.00    +0.000 NA
ATOM     13  C   UNL     1      46.678   1.109   7.622  0.00  0.00    +0.000 C 
ATOM     14  H   UNL     1      48.632   0.936   6.870  0.00  0.00    +0.000 HD
ENDBRANCH   9  10
ENDBRANCH   7   9
ENDBRANCH   1   2
BRANCH   1  15
ATOM     15  O   UNL     1      44.265   7.683  10.749  0.00  0.00    +0.000 OA
ATOM     16  H   UNL     1      44.978   8.219  10.366  0.00  0.00    +0.000 HD
ENDBRANCH   1  15
BRANCH   1  17
ATOM     17  C   UNL     1      46.342   7.077  11.910  0.00  0.00    +0.000 C 
BRANCH  17  18
ATOM     18  N   UNL     1      47.082   5.885  12.311  0.00  0.00    +0.000 N 
ATOM     19  H   UNL     1      46.833   5.043  11.790  0.00  0.00    +0.000 HD
BRANCH  18  23
ATOM     20  C   UNL     1      47.998   4.964  16.323  0.00  0.00    +0.000 A 
ATOM     21  C   UNL     1      48.506   6.134  15.757  0.00  0.00    +0.000 A 
ATOM     22  C   UNL     1      48.197   6.459  14.432  0.00  0.00    +0.000 A 
ATOM     23  C   UNL     1      47.355   5.650  13.657  0.00  0.00    +0.000 A 
ATOM     24  C   UNL     1      46.875   4.468  14.235  0.00  0.00    +0.000 A 
ATOM     25  C   UNL     1      47.195   4.121  15.552  0.00  0.00    +0.000 A 
BRANCH  20  27
ATOM     26  N   UNL     1      47.381   3.830  18.385  0.00  0.00    +0.000 N 
ATOM     27  C   UNL     1      48.320   4.567  17.716  0.00  0.00    +0.000 C 
ATOM     28  O   UNL     1      49.391   4.846  18.236  0.00  0.00    +0.000 OA
ATOM     29  H   UNL     1      47.659   3.471  19.289  0.00  0.00    +0.000 HD
ATOM     30  H   UNL     1      46.619   3.371  17.910  0.00  0.00    +0.000 HD
ENDBRANCH  20  27
ENDBRANCH  18  23
ENDBRANCH  17  18
ENDBRANCH   1  17
TORSDOF 8
ENDMDL
MODEL 6
REMARK VINA RESULT:    -6.949      3.730      7.672
REMARK INTER + INTRA:         -10.925
REMARK INTER:                 -10.161
REMARK INTRA:                  -0.764
REMARK UNBOUND:                -0.929
REMARK  Name = 
REMARK  8 active torsions:
REMARK  status: ('A' for Active; 'I' for Inactive)
REMARK    1  A    between atoms: C_2  and  C_4
REMARK    2  A    between atoms: C_7  and  N_8
REMARK    3  A    between atoms: N_8  and  C_9
REMARK    4  A    between atoms: C_9  and  C_10
REMARK    5  A    between atoms: C_10  and  O_11
REMARK    6  A    between atoms: C_10  and  C_12
REMARK    7  A    between atoms: C_17  and  C_18
REMARK    8  A    between atoms: C_18  and  C_19
REMARK                            x       y       z     vdW  Elec       q    Type
REMARK                         _______ _______ _______ _____ _____    ______ ____
ROOT
ATOM      1  C   UNL     1      44.477   6.089  11.517  0.00  0.00    +0.000 C 
ENDROOT
BRANCH   1   2
ATOM      2  C   UNL     1      44.717   4.881  10.629  0.00  0.00    +0.000 A 
ATOM      3  C   UNL     1      44.114   3.648  10.899  0.00  0.00    +0.000 A 
ATOM      4  C   UNL     1      44.251   2.595   9.997  0.00  0.00    +0.000 A 
ATOM      5  F   UNL     1      43.640   1.432  10.256  0.00  0.00    +0.000 F 
ATOM      6  C   UNL     1      44.990   2.740   8.829  0.00  0.00    +0.000 A 
ATOM      7  C   UNL     1      45.635   3.952   8.555  0.00  0.00    +0.000 A 
ATOM      8  C   UNL     1      45.494   5.015   9.463  0.00  0.00    +0.000 A 
BRANCH   7   9
ATOM      9  C   UNL     1      46.470   4.115   7.308  0.00  0.00    +0.000 C 
BRANCH   9  10
ATOM     10  C   UNL     1      46.688   2.780   6.607  0.00  0.00    +0.000 C 
ATOM     11  C   UNL     1      48.054   2.134   6.910  0.00  0.00    +0.000 C 
ATOM     12  N   UNL     1      48.295   1.948   5.476  0.00  0.00    +0.000 NA
ATOM     13  C   UNL     1      47.142   2.790   5.133  0.00  0.00    +0.000 C 
ATOM     14  H   UNL     1      48.211   0.981   5.165  0.00  0.00    +0.000 HD
ENDBRANCH   9  10
ENDBRANCH   7   9
ENDBRANCH   1   2
BRANCH   1  15
ATOM     15  O   UNL     1      44.686   7.296  10.778  0.00  0.00    +0.000 OA
ATOM     16  H   UNL     1      43.873   7.825  10.829  0.00  0.00    +0.000 HD
ENDBRANCH   1  15
BRANCH   1  17
ATOM     17  C   UNL     1      45.401   6.026  12.754  0.00  0.00    +0.000 C 
BRANCH  17  18
ATOM     18  N   UNL     1      45.914   7.347  13.100  0.00  0.00    +0.000 N 
ATOM     19  H   UNL     1      45.347   8.121  12.752  0.00  0.00    +0.000 HD
BRANCH  18  23
ATOM     20  C   UNL     1      50.026   8.230  12.797  0.00  0.00    +0.000 A 
ATOM     21  C   UNL     1      49.336   8.578  13.959  0.00  0.00    +0.000 A 
ATOM     22  C   UNL     1      47.975   8.277  14.079  0.00  0.00    +0.000 A 
ATOM     23  C   UNL     1      47.284   7.598  13.066  0.00  0.00    +0.000 A 
ATOM     24  C   UNL     1      47.988   7.278  11.898  0.00  0.00    +0.000 A 
ATOM     25  C   UNL     1      49.344   7.594  11.758  0.00  0.00    +0.000 A 
BRANCH  20  27
ATOM     26  N   UNL     1      52.111   7.940  11.578  0.00  0.00    +0.000 N 
ATOM     27  C   UNL     1      51.463   8.552  12.617  0.00  0.00    +0.000 C 
ATOM     28  O   UNL     1      52.041   9.356  13.334  0.00  0.00    +0.000 OA
ATOM     29  H   UNL     1      53.057   8.253  11.397  0.00  0.00    +0.000 HD
ATOM     30  H   UNL     1      51.615   7.484  10.827  0.00  0.00    +0.000 HD
ENDBRANCH  20  27
ENDBRANCH  18  23
ENDBRANCH  17  18
ENDBRANCH   1  17
TORSDOF 8
ENDMDL
MODEL 7
REMARK VINA RESULT:    -6.818      3.553      7.547
REMARK INTER + INTRA:         -10.737
REMARK INTER:                  -9.819
REMARK INTRA:                  -0.919
REMARK UNBOUND:                -0.929
REMARK  Name = 
REMARK  8 active torsions:
REMARK  status: ('A' for Active; 'I' for Inactive)
REMARK    1  A    between atoms: C_2  and  C_4
REMARK    2  A    between atoms: C_7  and  N_8
REMARK    3  A    between atoms: N_8  and  C_9
REMARK    4  A    between atoms: C_9  and  C_10
REMARK    5  A    between atoms: C_10  and  O_11
REMARK    6  A    between atoms: C_10  and  C_12
REMARK    7  A    between atoms: C_17  and  C_18
REMARK    8  A    between atoms: C_18  and  C_19
REMARK                            x       y       z     vdW  Elec       q    Type
REMARK                         _______ _______ _______ _____ _____    ______ ____
ROOT
ATOM      1  C   UNL     1      46.798   4.634  13.636  0.00  0.00    +0.000 C 
ENDROOT
BRANCH   1   2
ATOM      2  C   UNL     1      45.564   4.386  12.785  0.00  0.00    +0.000 A 
ATOM      3  C   UNL     1      44.335   4.978  13.097  0.00  0.00    +0.000 A 
ATOM      4  C   UNL     1      43.255   4.835  12.228  0.00  0.00    +0.000 A 
ATOM      5  F   UNL     1      42.096   5.435  12.527  0.00  0.00    +0.000 F 
ATOM      6  C   UNL     1      43.370   4.102  11.054  0.00  0.00    +0.000 A 
ATOM      7  C   UNL     1      44.578   3.469  10.738  0.00  0.00    +0.000 A 
ATOM      8  C   UNL     1      45.668   3.616  11.613  0.00  0.00    +0.000 A 
BRANCH   7   9
ATOM      9  C   UNL     1      44.708   2.639   9.484  0.00  0.00    +0.000 C 
BRANCH   9  10
ATOM     10  C   UNL     1      44.965   3.514   8.263  0.00  0.00    +0.000 C 
ATOM     11  C   UNL     1      46.056   2.965   7.323  0.00  0.00    +0.000 C 
ATOM     12  N   UNL     1      46.728   4.268   7.327  0.00  0.00    +0.000 NA
ATOM     13  C   UNL     1      45.876   4.748   8.421  0.00  0.00    +0.000 C 
ATOM     14  H   UNL     1      46.623   4.790   6.458  0.00  0.00    +0.000 HD
ENDBRANCH   9  10
ENDBRANCH   7   9
ENDBRANCH   1   2
BRANCH   1  15
ATOM     15  O   UNL     1      46.424   4.850  14.999  0.00  0.00    +0.000 OA
ATOM     16  H   UNL     1      45.957   4.059  15.313  0.00  0.00    +0.000 HD
ENDBRANCH   1  15
BRANCH   1  17
ATOM     17  C   UNL     1      47.590   5.837  13.077  0.00  0.00    +0.000 C 
BRANCH  17  18
ATOM     18  N   UNL     1      47.257   7.067  13.789  0.00  0.00    +0.000 N 
ATOM     19  H   UNL     1      46.744   6.921  14.659  0.00  0.00    +0.000 HD
BRANCH  18  23
ATOM     20  C   UNL     1      45.877  10.538  11.831  0.00  0.00    +0.000 A 
ATOM     21  C   UNL     1      47.245  10.380  12.060  0.00  0.00    +0.000 A 
ATOM     22  C   UNL     1      47.717   9.226  12.695  0.00  0.00    +0.000 A 
ATOM     23  C   UNL     1      46.849   8.196  13.082  0.00  0.00    +0.000 A 
ATOM     24  C   UNL     1      45.478   8.384  12.865  0.00  0.00    +0.000 A 
ATOM     25  C   UNL     1      44.992   9.544  12.251  0.00  0.00    +0.000 A 
BRANCH  20  27
ATOM     26  N   UNL     1      44.312  12.400  11.833  0.00  0.00    +0.000 N 
ATOM     27  C   UNL     1      45.330  11.756  11.184  0.00  0.00    +0.000 C 
ATOM     28  O   UNL     1      45.789  12.195  10.139  0.00  0.00    +0.000 OA
ATOM     29  H   UNL     1      44.025  13.287  11.441  0.00  0.00    +0.000 HD
ATOM     30  H   UNL     1      44.090  12.219  12.800  0.00  0.00    +0.000 HD
ENDBRANCH  20  27
ENDBRANCH  18  23
ENDBRANCH  17  18
ENDBRANCH   1  17
TORSDOF 8
ENDMDL
MODEL 8
REMARK VINA RESULT:    -6.582      3.711      5.874
REMARK INTER + INTRA:         -10.398
REMARK INTER:                  -9.115
REMARK INTRA:                  -1.282
REMARK UNBOUND:                -0.929
REMARK  Name = 
REMARK  8 active torsions:
REMARK  status: ('A' for Active; 'I' for Inactive)
REMARK    1  A    between atoms: C_2  and  C_4
REMARK    2  A    between atoms: C_7  and  N_8
REMARK    3  A    between atoms: N_8  and  C_9
REMARK    4  A    between atoms: C_9  and  C_10
REMARK    5  A    between atoms: C_10  and  O_11
REMARK    6  A    between atoms: C_10  and  C_12
REMARK    7  A    between atoms: C_17  and  C_18
REMARK    8  A    between atoms: C_18  and  C_19
REMARK                            x       y       z     vdW  Elec       q    Type
REMARK                         _______ _______ _______ _____ _____    ______ ____
ROOT
ATOM      1  C   UNL     1      48.739   8.453  16.041  0.00  0.00    +0.000 C 
ENDROOT
BRANCH   1   2
ATOM      2  C   UNL     1      48.496   7.673  17.322  0.00  0.00    +0.000 A 
ATOM      3  C   UNL     1      48.030   8.304  18.481  0.00  0.00    +0.000 A 
ATOM      4  C   UNL     1      47.696   7.543  19.599  0.00  0.00    +0.000 A 
ATOM      5  F   UNL     1      47.222   8.161  20.689  0.00  0.00    +0.000 F 
ATOM      6  C   UNL     1      47.827   6.160  19.593  0.00  0.00    +0.000 A 
ATOM      7  C   UNL     1      48.327   5.509  18.459  0.00  0.00    +0.000 A 
ATOM      8  C   UNL     1      48.660   6.275  17.330  0.00  0.00    +0.000 A 
BRANCH   7   9
ATOM      9  C   UNL     1      48.508   4.010  18.449  0.00  0.00    +0.000 C 
BRANCH   9  10
ATOM     10  C   UNL     1      49.210   3.544  17.180  0.00  0.00    +0.000 C 
ATOM     11  C   UNL     1      48.384   2.547  16.343  0.00  0.00    +0.000 C 
ATOM     12  N   UNL     1      49.529   1.634  16.282  0.00  0.00    +0.000 NA
ATOM     13  C   UNL     1      50.255   2.416  17.289  0.00  0.00    +0.000 C 
ATOM     14  H   UNL     1      49.985   1.604  15.371  0.00  0.00    +0.000 HD
ENDBRANCH   9  10
ENDBRANCH   7   9
ENDBRANCH   1   2
BRANCH   1  15
ATOM     15  O   UNL     1      47.589   9.239  15.716  0.00  0.00    +0.000 OA
ATOM     16  H   UNL     1      47.700  10.116  16.117  0.00  0.00    +0.000 HD
ENDBRANCH   1  15
BRANCH   1  17
ATOM     17  C   UNL     1      49.094   7.482  14.893  0.00  0.00    +0.000 C 
BRANCH  17  18
ATOM     18  N   UNL     1      48.213   7.673  13.746  0.00  0.00    +0.000 N 
ATOM     19  H   UNL     1      47.748   8.581  13.722  0.00  0.00    +0.000 HD
BRANCH  18  23
ATOM     20  C   UNL     1      45.683   4.506  12.582  0.00  0.00    +0.000 A 
ATOM     21  C   UNL     1      45.761   5.648  11.784  0.00  0.00    +0.000 A 
ATOM     22  C   UNL     1      46.608   6.699  12.150  0.00  0.00    +0.000 A 
ATOM     23  C   UNL     1      47.415   6.624  13.293  0.00  0.00    +0.000 A 
ATOM     24  C   UNL     1      47.306   5.480  14.094  0.00  0.00    +0.000 A 
ATOM     25  C   UNL     1      46.445   4.432  13.750  0.00  0.00    +0.000 A 
BRANCH  20  27
ATOM     26  N   UNL     1      44.992   2.748  11.049  0.00  0.00    +0.000 N 
ATOM     27  C   UNL     1      44.780   3.378  12.246  0.00  0.00    +0.000 C 
ATOM     28  O   UNL     1      43.910   2.995  13.015  0.00  0.00    +0.000 OA
ATOM     29  H   UNL     1      44.445   1.913  10.883  0.00  0.00    +0.000 HD
ATOM     30  H   UNL     1      45.843   2.866  10.522  0.00  0.00    +0.000 HD
ENDBRANCH  20  27
ENDBRANCH  18  23
ENDBRANCH  17  18
ENDBRANCH   1  17
TORSDOF 8
ENDMDL
MODEL 9
REMARK VINA RESULT:    -6.193      3.501      5.329
REMARK INTER + INTRA:          -9.838
REMARK INTER:                  -8.775
REMARK INTRA:                  -1.063
REMARK UNBOUND:                -0.929
REMARK  Name = 
REMARK  8 active torsions:
REMARK  status: ('A' for Active; 'I' for Inactive)
REMARK    1  A    between atoms: C_2  and  C_4
REMARK    2  A    between atoms: C_7  and  N_8
REMARK    3  A    between atoms: N_8  and  C_9
REMARK    4  A    between atoms: C_9  and  C_10
REMARK    5  A    between atoms: C_10  and  O_11
REMARK    6  A    between atoms: C_10  and  C_12
REMARK    7  A    between atoms: C_17  and  C_18
REMARK    8  A    between atoms: C_18  and  C_19
REMARK                            x       y       z     vdW  Elec       q    Type
REMARK                         _______ _______ _______ _____ _____    ______ ____
ROOT
ATOM      1  C   UNL     1      48.494   9.194  14.338  0.00  0.00    +0.000 C 
ENDROOT
BRANCH   1   2
ATOM      2  C   UNL     1      48.540   8.628  15.747  0.00  0.00    +0.000 A 
ATOM      3  C   UNL     1      48.132   9.387  16.849  0.00  0.00    +0.000 A 
ATOM      4  C   UNL     1      48.066   8.799  18.110  0.00  0.00    +0.000 A 
ATOM      5  F   UNL     1      47.643   9.532  19.149  0.00  0.00    +0.000 F 
ATOM      6  C   UNL     1      48.408   7.467  18.302  0.00  0.00    +0.000 A 
ATOM      7  C   UNL     1      48.855   6.697  17.221  0.00  0.00    +0.000 A 
ATOM      8  C   UNL     1      48.919   7.288  15.948  0.00  0.00    +0.000 A 
BRANCH   7   9
ATOM      9  C   UNL     1      49.264   5.257  17.419  0.00  0.00    +0.000 C 
BRANCH   9  10
ATOM     10  C   UNL     1      48.260   4.302  16.786  0.00  0.00    +0.000 C 
ATOM     11  C   UNL     1      46.868   4.337  17.446  0.00  0.00    +0.000 C 
ATOM     12  N   UNL     1      46.878   2.876  17.568  0.00  0.00    +0.000 NA
ATOM     13  C   UNL     1      48.297   2.816  17.199  0.00  0.00    +0.000 C 
ATOM     14  H   UNL     1      46.257   2.402  16.913  0.00  0.00    +0.000 HD
ENDBRANCH   9  10
ENDBRANCH   7   9
ENDBRANCH   1   2
BRANCH   1  15
ATOM     15  O   UNL     1      48.463  10.623  14.379  0.00  0.00    +0.000 OA
ATOM     16  H   UNL     1      47.962  10.892  15.167  0.00  0.00    +0.000 HD
ENDBRANCH   1  15
BRANCH   1  17
ATOM     17  C   UNL     1      47.268   8.631  13.584  0.00  0.00    +0.000 C 
BRANCH  17  18
ATOM     18  N   UNL     1      47.661   7.602  12.627  0.00  0.00    +0.000 N 
ATOM     19  H   UNL     1      48.155   7.958  11.808  0.00  0.00    +0.000 HD
BRANCH  18  23
ATOM     20  C   UNL     1      44.922   4.467  11.954  0.00  0.00    +0.000 A 
ATOM     21  C   UNL     1      45.223   5.348  10.914  0.00  0.00    +0.000 A 
ATOM     22  C   UNL     1      46.141   6.383  11.119  0.00  0.00    +0.000 A 
ATOM     23  C   UNL     1      46.801   6.543  12.345  0.00  0.00    +0.000 A 
ATOM     24  C   UNL     1      46.468   5.664  13.384  0.00  0.00    +0.000 A 
ATOM     25  C   UNL     1      45.535   4.639  13.197  0.00  0.00    +0.000 A 
BRANCH  20  27
ATOM     26  N   UNL     1      43.904   2.411  12.763  0.00  0.00    +0.000 N 
ATOM     27  C   UNL     1      43.936   3.371  11.788  0.00  0.00    +0.000 C 
ATOM     28  O   UNL     1      43.155   3.341  10.847  0.00  0.00    +0.000 OA
ATOM     29  H   UNL     1      43.155   1.735  12.697  0.00  0.00    +0.000 HD
ATOM     30  H   UNL     1      44.343   2.541  13.662  0.00  0.00    +0.000 HD
ENDBRANCH  20  27
ENDBRANCH  18  23
ENDBRANCH  17  18
ENDBRANCH   1  17
TORSDOF 8
ENDMDL
