MODEL 1
REMARK VINA RESULT:    -8.491      0.000      0.000
REMARK INTER + INTRA:         -12.954
REMARK INTER:                 -11.966
REMARK INTRA:                  -0.988
REMARK UNBOUND:                -0.988
REMARK  Name = 
REMARK  8 active torsions:
REMARK  status: ('A' for Active; 'I' for Inactive)
REMARK    1  A    between atoms: C_1  and  C_2
REMARK    2  A    between atoms: C_6  and  C_7
REMARK    3  A    between atoms: C_7  and  N_8
REMARK    4  A    between atoms: N_8  and  C_9
REMARK    5  A    between atoms: C_9  and  C_10
REMARK    6  A    between atoms: C_13  and  C_14
REMARK    7  A    between atoms: C_14  and  N_15
REMARK    8  A    between atoms: C_16  and  C_18
REMARK                            x       y       z     vdW  Elec       q    Type
REMARK                         _______ _______ _______ _____ _____    ______ ____
ROOT
ATOM      1  C   UNL     1      44.736   5.554  11.927  0.00  0.00    +0.000 A 
ATOM      2  C   UNL     1      45.129   4.858  13.080  0.00  0.00    +0.000 A 
ATOM      3  C   UNL     1      46.314   5.190  13.743  0.00  0.00    +0.000 A 
ATOM      4  C   UNL     1      47.126   6.227  13.268  0.00  0.00    +0.000 A 
ATOM      5  C   UNL     1      46.753   6.895  12.095  0.00  0.00    +0.000 A 
ATOM      6  C   UNL     1      45.567   6.566  11.433  0.00  0.00    +0.000 A 
ENDROOT
BRANCH   1   7
ATOM      7  C   UNL     1      43.425   5.233  11.245  0.00  0.00    +0.000 C 
BRANCH   7   8
ATOM      8  N   UNL     1      43.595   4.679   9.899  0.00  0.00    +0.000 NA
ATOM      9  H   UNL     1      42.695   4.703   9.417  0.00  0.00    +0.000 HD
BRANCH   8  10
ATOM     10  C   UNL     1      44.021   3.272   9.931  0.00  0.00    +0.000 C 
BRANCH  10  16
ATOM     11  C   UNL     1      46.852   0.028   7.647  0.00  0.00    +0.000 C 
ATOM     12  C   UNL     1      46.459   1.463   7.819  0.00  0.00    +0.000 A 
ATOM     13  C   UNL     1      47.077   2.468   7.082  0.00  0.00    +0.000 A 
ATOM     14  C   UNL     1      46.682   3.787   7.283  0.00  0.00    +0.000 A 
ATOM     15  C   UNL     1      45.689   4.064   8.214  0.00  0.00    +0.000 A 
ATOM     16  C   UNL     1      45.123   3.009   8.925  0.00  0.00    +0.000 A 
ATOM     17  N   UNL     1      45.488   1.716   8.728  0.00  0.00    +0.000 NA
ENDBRANCH  10  16
ENDBRANCH   8  10
ENDBRANCH   7   8
ENDBRANCH   1   7
BRANCH   4  18
ATOM     18  C   UNL     1      48.399   6.599  13.983  0.00  0.00    +0.000 C 
BRANCH  18  19
ATOM     19  N   UNL     1      48.160   6.825  15.386  0.00  0.00    +0.000 N 
ATOM     20  C   UNL     1      49.124   6.562  16.324  0.00  0.00    +0.000 C 
ATOM     21  O   UNL     1      50.245   6.167  16.015  0.00  0.00    +0.000 OA
ATOM     22  H   UNL     1      47.193   6.933  15.674  0.00  0.00    +0.000 HD
BRANCH  20  23
ATOM     23  C   UNL     1      48.767   6.839  17.720  0.00  0.00    +0.000 A 
ATOM     24  C   UNL     1      48.496   8.143  18.118  0.00  0.00    +0.000 A 
ATOM     25  S   UNL     1      48.056   8.279  19.759  0.00  0.00    +0.000 S 
ATOM     26  C   UNL     1      48.264   6.610  20.011  0.00  0.00    +0.000 A 
ATOM     27  N   UNL     1      48.072   6.058  21.241  0.00  0.00    +0.000 NA
ATOM     28  C   UNL     1      48.292   4.787  21.293  0.00  0.00    +0.000 A 
ATOM     29  N   UNL     1      48.678   4.013  20.229  0.00  0.00    +0.000 N 
ATOM     30  C   UNL     1      48.851   4.521  18.962  0.00  0.00    +0.000 A 
ATOM     31  O   UNL     1      49.150   3.793  18.022  0.00  0.00    +0.000 OA
ATOM     32  C   UNL     1      48.636   5.951  18.852  0.00  0.00    +0.000 A 
ATOM     33  H   UNL     1      48.822   3.022  20.333  0.00  0.00    +0.000 HD
ENDBRANCH  20  23
ENDBRANCH  18  19
ENDBRANCH   4  18
TORSDOF 7
ENDMDL
MODEL 2
REMARK VINA RESULT:    -8.261      1.271      2.115
REMARK INTER + INTRA:         -12.630
REMARK INTER:                 -11.614
REMARK INTRA:                  -1.017
REMARK UNBOUND:                -0.988
REMARK  Name = 
REMARK  8 active torsions:
REMARK  status: ('A' for Active; 'I' for Inactive)
REMARK    1  A    between atoms: C_1  and  C_2
REMARK    2  A    between atoms: C_6  and  C_7
REMARK    3  A    between atoms: C_7  and  N_8
REMARK    4  A    between atoms: N_8  and  C_9
REMARK    5  A    between atoms: C_9  and  C_10
REMARK    6  A    between atoms: C_13  and  C_14
REMARK    7  A    between atoms: C_14  and  N_15
REMARK    8  A    between atoms: C_16  and  C_18
REMARK                            x       y       z     vdW  Elec       q    Type
REMARK                         _______ _______ _______ _____ _____    ______ ____
ROOT
ATOM      1  C   UNL     1      44.583   5.586  11.698  0.00  0.00    +0.000 A 
ATOM      2  C   UNL     1      45.496   6.526  11.197  0.00  0.00    +0.000 A 
ATOM      3  C   UNL     1      46.673   6.817  11.891  0.00  0.00    +0.000 A 
ATOM      4  C   UNL     1      46.964   6.170  13.099  0.00  0.00    +0.000 A 
ATOM      5  C   UNL     1      46.034   5.260  13.618  0.00  0.00    +0.000 A 
ATOM      6  C   UNL     1      44.858   4.966  12.924  0.00  0.00    +0.000 A 
ENDROOT
BRANCH   1   7
ATOM      7  C   UNL     1      43.339   5.230  10.917  0.00  0.00    +0.000 C 
BRANCH   7   8
ATOM      8  N   UNL     1      43.628   4.597   9.628  0.00  0.00    +0.000 NA
ATOM      9  H   UNL     1      42.765   4.546   9.085  0.00  0.00    +0.000 HD
BRANCH   8  10
ATOM     10  C   UNL     1      44.110   3.217   9.787  0.00  0.00    +0.000 C 
BRANCH  10  16
ATOM     11  C   UNL     1      46.917  -0.147   7.651  0.00  0.00    +0.000 C 
ATOM     12  C   UNL     1      46.532   1.297   7.755  0.00  0.00    +0.000 A 
ATOM     13  C   UNL     1      47.151   2.262   6.968  0.00  0.00    +0.000 A 
ATOM     14  C   UNL     1      46.763   3.591   7.107  0.00  0.00    +0.000 A 
ATOM     15  C   UNL     1      45.775   3.917   8.027  0.00  0.00    +0.000 A 
ATOM     16  C   UNL     1      45.206   2.900   8.790  0.00  0.00    +0.000 A 
ATOM     17  N   UNL     1      45.565   1.597   8.655  0.00  0.00    +0.000 NA
ENDBRANCH  10  16
ENDBRANCH   8  10
ENDBRANCH   7   8
ENDBRANCH   1   7
BRANCH   4  18
ATOM     18  C   UNL     1      48.236   6.468  13.848  0.00  0.00    +0.000 C 
BRANCH  18  19
ATOM     19  N   UNL     1      48.071   6.239  15.261  0.00  0.00    +0.000 N 
ATOM     20  C   UNL     1      49.139   6.282  16.120  0.00  0.00    +0.000 C 
ATOM     21  O   UNL     1      50.273   6.558  15.736  0.00  0.00    +0.000 OA
ATOM     22  H   UNL     1      47.206   5.799  15.557  0.00  0.00    +0.000 HD
BRANCH  20  23
ATOM     23  C   UNL     1      48.847   6.042  17.537  0.00  0.00    +0.000 A 
ATOM     24  C   UNL     1      49.051   4.779  18.079  0.00  0.00    +0.000 A 
ATOM     25  S   UNL     1      48.703   4.687  19.746  0.00  0.00    +0.000 S 
ATOM     26  C   UNL     1      48.216   6.316  19.791  0.00  0.00    +0.000 A 
ATOM     27  N   UNL     1      47.761   6.879  20.944  0.00  0.00    +0.000 NA
ATOM     28  C   UNL     1      47.401   8.113  20.827  0.00  0.00    +0.000 A 
ATOM     29  N   UNL     1      47.460   8.841  19.666  0.00  0.00    +0.000 N 
ATOM     30  C   UNL     1      47.944   8.324  18.486  0.00  0.00    +0.000 A 
ATOM     31  O   UNL     1      48.027   9.016  17.478  0.00  0.00    +0.000 OA
ATOM     32  C   UNL     1      48.344   6.932  18.559  0.00  0.00    +0.000 A 
ATOM     33  H   UNL     1      47.173   9.806  19.644  0.00  0.00    +0.000 HD
ENDBRANCH  20  23
ENDBRANCH  18  19
ENDBRANCH   4  18
TORSDOF 7
ENDMDL
MODEL 3
REMARK VINA RESULT:    -7.972      1.619      2.084
REMARK INTER + INTRA:         -12.222
REMARK INTER:                 -11.326
REMARK INTRA:                  -0.896
REMARK UNBOUND:                -0.988
REMARK  Name = 
REMARK  8 active torsions:
REMARK  status: ('A' for Active; 'I' for Inactive)
REMARK    1  A    between atoms: C_1  and  C_2
REMARK    2  A    between atoms: C_6  and  C_7
REMARK    3  A    between atoms: C_7  and  N_8
REMARK    4  A    between atoms: N_8  and  C_9
REMARK    5  A    between atoms: C_9  and  C_10
REMARK    6  A    between atoms: C_13  and  C_14
REMARK    7  A    between atoms: C_14  and  N_15
REMARK    8  A    between atoms: C_16  and  C_18
REMARK                            x       y       z     vdW  Elec       q    Type
REMARK                         _______ _______ _______ _____ _____    ______ ____
ROOT
ATOM      1  C   UNL     1      44.332   5.527  11.601  0.00  0.00    +0.000 A 
ATOM      2  C   UNL     1      45.348   4.957  12.381  0.00  0.00    +0.000 A 
ATOM      3  C   UNL     1      46.324   5.759  12.978  0.00  0.00    +0.000 A 
ATOM      4  C   UNL     1      46.300   7.149  12.811  0.00  0.00    +0.000 A 
ATOM      5  C   UNL     1      45.307   7.715  12.000  0.00  0.00    +0.000 A 
ATOM      6  C   UNL     1      44.330   6.914  11.405  0.00  0.00    +0.000 A 
ENDROOT
BRANCH   1   7
ATOM      7  C   UNL     1      43.244   4.664  11.004  0.00  0.00    +0.000 C 
BRANCH   7   8
ATOM      8  N   UNL     1      43.758   3.624  10.109  0.00  0.00    +0.000 NA
ATOM      9  H   UNL     1      44.470   3.085  10.603  0.00  0.00    +0.000 HD
BRANCH   8  10
ATOM     10  C   UNL     1      44.408   4.194   8.919  0.00  0.00    +0.000 C 
BRANCH  10  16
ATOM     11  C   UNL     1      47.316   3.090   5.166  0.00  0.00    +0.000 C 
ATOM     12  C   UNL     1      46.684   2.644   6.449  0.00  0.00    +0.000 A 
ATOM     13  C   UNL     1      46.907   1.367   6.952  0.00  0.00    +0.000 A 
ATOM     14  C   UNL     1      46.291   0.998   8.143  0.00  0.00    +0.000 A 
ATOM     15  C   UNL     1      45.469   1.909   8.793  0.00  0.00    +0.000 A 
ATOM     16  C   UNL     1      45.281   3.167   8.225  0.00  0.00    +0.000 A 
ATOM     17  N   UNL     1      45.887   3.546   7.071  0.00  0.00    +0.000 NA
ENDBRANCH  10  16
ENDBRANCH   8  10
ENDBRANCH   7   8
ENDBRANCH   1   7
BRANCH   4  18
ATOM     18  C   UNL     1      47.340   8.024  13.460  0.00  0.00    +0.000 C 
BRANCH  18  19
ATOM     19  N   UNL     1      47.714   7.513  14.755  0.00  0.00    +0.000 N 
ATOM     20  C   UNL     1      48.971   7.022  14.991  0.00  0.00    +0.000 C 
ATOM     21  O   UNL     1      49.849   7.034  14.132  0.00  0.00    +0.000 OA
ATOM     22  H   UNL     1      46.958   7.291  15.395  0.00  0.00    +0.000 HD
BRANCH  20  23
ATOM     23  C   UNL     1      49.237   6.537  16.350  0.00  0.00    +0.000 A 
ATOM     24  C   UNL     1      49.989   7.310  17.225  0.00  0.00    +0.000 A 
ATOM     25  S   UNL     1      50.164   6.618  18.773  0.00  0.00    +0.000 S 
ATOM     26  C   UNL     1      49.285   5.235  18.314  0.00  0.00    +0.000 A 
ATOM     27  N   UNL     1      49.088   4.209  19.187  0.00  0.00    +0.000 NA
ATOM     28  C   UNL     1      48.430   3.213  18.697  0.00  0.00    +0.000 A 
ATOM     29  N   UNL     1      47.942   3.149  17.417  0.00  0.00    +0.000 N 
ATOM     30  C   UNL     1      48.088   4.175  16.511  0.00  0.00    +0.000 A 
ATOM     31  O   UNL     1      47.599   4.104  15.390  0.00  0.00    +0.000 OA
ATOM     32  C   UNL     1      48.840   5.312  17.006  0.00  0.00    +0.000 A 
ATOM     33  H   UNL     1      47.425   2.346  17.098  0.00  0.00    +0.000 HD
ENDBRANCH  20  23
ENDBRANCH  18  19
ENDBRANCH   4  18
TORSDOF 7
ENDMDL
MODEL 4
REMARK VINA RESULT:    -7.524      3.240      8.924
REMARK INTER + INTRA:         -11.591
REMARK INTER:                  -9.959
REMARK INTRA:                  -1.632
REMARK UNBOUND:                -0.988
REMARK  Name = 
REMARK  8 active torsions:
REMARK  status: ('A' for Active; 'I' for Inactive)
REMARK    1  A    between atoms: C_1  and  C_2
REMARK    2  A    between atoms: C_6  and  C_7
REMARK    3  A    between atoms: C_7  and  N_8
REMARK    4  A    between atoms: N_8  and  C_9
REMARK    5  A    between atoms: C_9  and  C_10
REMARK    6  A    between atoms: C_13  and  C_14
REMARK    7  A    between atoms: C_14  and  N_15
REMARK    8  A    between atoms: C_16  and  C_18
REMARK                            x       y       z     vdW  Elec       q    Type
REMARK                         _______ _______ _______ _____ _____    ______ ____
ROOT
ATOM      1  C   UNL     1      49.002   7.857  16.198  0.00  0.00    +0.000 A 
ATOM      2  C   UNL     1      48.292   8.948  15.673  0.00  0.00    +0.000 A 
ATOM      3  C   UNL     1      47.834   8.931  14.353  0.00  0.00    +0.000 A 
ATOM      4  C   UNL     1      48.073   7.822  13.532  0.00  0.00    +0.000 A 
ATOM      5  C   UNL     1      48.815   6.750  14.045  0.00  0.00    +0.000 A 
ATOM      6  C   UNL     1      49.270   6.764  15.365  0.00  0.00    +0.000 A 
ENDROOT
BRANCH   1   7
ATOM      7  C   UNL     1      49.445   7.852  17.643  0.00  0.00    +0.000 C 
BRANCH   7   8
ATOM      8  N   UNL     1      48.390   7.438  18.570  0.00  0.00    +0.000 NA
ATOM      9  H   UNL     1      48.267   8.165  19.276  0.00  0.00    +0.000 HD
BRANCH   8  10
ATOM     10  C   UNL     1      48.740   6.203  19.288  0.00  0.00    +0.000 C 
BRANCH  10  16
ATOM     11  C   UNL     1      50.681   2.207  17.283  0.00  0.00    +0.000 C 
ATOM     12  C   UNL     1      49.468   3.067  17.469  0.00  0.00    +0.000 A 
ATOM     13  C   UNL     1      48.258   2.737  16.869  0.00  0.00    +0.000 A 
ATOM     14  C   UNL     1      47.162   3.571  17.066  0.00  0.00    +0.000 A 
ATOM     15  C   UNL     1      47.307   4.709  17.849  0.00  0.00    +0.000 A 
ATOM     16  C   UNL     1      48.552   4.983  18.410  0.00  0.00    +0.000 A 
ATOM     17  N   UNL     1      49.626   4.171  18.238  0.00  0.00    +0.000 NA
ENDBRANCH  10  16
ENDBRANCH   8  10
ENDBRANCH   7   8
ENDBRANCH   1   7
BRANCH   4  18
ATOM     18  C   UNL     1      47.573   7.790  12.111  0.00  0.00    +0.000 C 
BRANCH  18  19
ATOM     19  N   UNL     1      46.882   6.557  11.832  0.00  0.00    +0.000 N 
ATOM     20  C   UNL     1      45.532   6.435  12.030  0.00  0.00    +0.000 C 
ATOM     21  O   UNL     1      44.841   7.377  12.411  0.00  0.00    +0.000 OA
ATOM     22  H   UNL     1      47.454   5.724  11.735  0.00  0.00    +0.000 HD
BRANCH  20  23
ATOM     23  C   UNL     1      44.939   5.133  11.702  0.00  0.00    +0.000 A 
ATOM     24  C   UNL     1      44.228   4.436  12.670  0.00  0.00    +0.000 A 
ATOM     25  S   UNL     1      43.571   2.966  12.109  0.00  0.00    +0.000 S 
ATOM     26  C   UNL     1      44.259   3.183  10.568  0.00  0.00    +0.000 A 
ATOM     27  N   UNL     1      44.101   2.246   9.593  0.00  0.00    +0.000 NA
ATOM     28  C   UNL     1      44.699   2.528   8.484  0.00  0.00    +0.000 A 
ATOM     29  N   UNL     1      45.434   3.662   8.255  0.00  0.00    +0.000 N 
ATOM     30  C   UNL     1      45.592   4.651   9.200  0.00  0.00    +0.000 A 
ATOM     31  O   UNL     1      46.217   5.675   8.946  0.00  0.00    +0.000 OA
ATOM     32  C   UNL     1      44.956   4.374  10.473  0.00  0.00    +0.000 A 
ATOM     33  H   UNL     1      45.867   3.829   7.361  0.00  0.00    +0.000 HD
ENDBRANCH  20  23
ENDBRANCH  18  19
ENDBRANCH   4  18
TORSDOF 7
ENDMDL
MODEL 5
REMARK VINA RESULT:    -7.222      4.819      9.747
REMARK INTER + INTRA:         -11.166
REMARK INTER:                 -10.219
REMARK INTRA:                  -0.946
REMARK UNBOUND:                -0.988
REMARK  Name = 
REMARK  8 active torsions:
REMARK  status: ('A' for Active; 'I' for Inactive)
REMARK    1  A    between atoms: C_1  and  C_2
REMARK    2  A    between atoms: C_6  and  C_7
REMARK    3  A    between atoms: C_7  and  N_8
REMARK    4  A    between atoms: N_8  and  C_9
REMARK    5  A    between atoms: C_9  and  C_10
REMARK    6  A    between atoms: C_13  and  C_14
REMARK    7  A    between atoms: C_14  and  N_15
REMARK    8  A    between atoms: C_16  and  C_18
REMARK                            x       y       z     vdW  Elec       q    Type
REMARK                         _______ _______ _______ _____ _____    ______ ____
ROOT
ATOM      1  C   UNL     1      51.393   3.759  18.072  0.00  0.00    +0.000 A 
ATOM      2  C   UNL     1      50.501   4.819  18.292  0.00  0.00    +0.000 A 
ATOM      3  C   UNL     1      49.157   4.707  17.923  0.00  0.00    +0.000 A 
ATOM      4  C   UNL     1      48.679   3.532  17.332  0.00  0.00    +0.000 A 
ATOM      5  C   UNL     1      49.579   2.488  17.078  0.00  0.00    +0.000 A 
ATOM      6  C   UNL     1      50.921   2.598  17.449  0.00  0.00    +0.000 A 
ENDROOT
BRANCH   1   7
ATOM      7  C   UNL     1      52.832   3.859  18.525  0.00  0.00    +0.000 C 
BRANCH   7   8
ATOM      8  N   UNL     1      53.221   2.796  19.453  0.00  0.00    +0.000 NA
ATOM      9  H   UNL     1      53.163   3.153  20.408  0.00  0.00    +0.000 HD
BRANCH   8  10
ATOM     10  C   UNL     1      54.612   2.364  19.247  0.00  0.00    +0.000 C 
BRANCH  10  16
ATOM     11  C   UNL     1      54.054  -2.477  19.155  0.00  0.00    +0.000 C 
ATOM     12  C   UNL     1      54.391  -1.229  18.398  0.00  0.00    +0.000 A 
ATOM     13  C   UNL     1      54.729  -1.278  17.050  0.00  0.00    +0.000 A 
ATOM     14  C   UNL     1      55.041  -0.092  16.393  0.00  0.00    +0.000 A 
ATOM     15  C   UNL     1      55.012   1.104  17.100  0.00  0.00    +0.000 A 
ATOM     16  C   UNL     1      54.676   1.076  18.451  0.00  0.00    +0.000 A 
ATOM     17  N   UNL     1      54.355  -0.071  19.101  0.00  0.00    +0.000 NA
ENDBRANCH  10  16
ENDBRANCH   8  10
ENDBRANCH   7   8
ENDBRANCH   1   7
BRANCH   4  18
ATOM     18  C   UNL     1      47.230   3.397  16.942  0.00  0.00    +0.000 C 
BRANCH  18  19
ATOM     19  N   UNL     1      46.862   4.388  15.962  0.00  0.00    +0.000 N 
ATOM     20  C   UNL     1      46.939   4.125  14.619  0.00  0.00    +0.000 C 
ATOM     21  O   UNL     1      47.280   3.027  14.188  0.00  0.00    +0.000 OA
ATOM     22  H   UNL     1      46.796   5.348  16.284  0.00  0.00    +0.000 HD
BRANCH  20  23
ATOM     23  C   UNL     1      46.530   5.209  13.718  0.00  0.00    +0.000 A 
ATOM     24  C   UNL     1      47.371   6.297  13.522  0.00  0.00    +0.000 A 
ATOM     25  S   UNL     1      46.762   7.440  12.413  0.00  0.00    +0.000 S 
ATOM     26  C   UNL     1      45.329   6.548  12.196  0.00  0.00    +0.000 A 
ATOM     27  N   UNL     1      44.342   6.999  11.374  0.00  0.00    +0.000 NA
ATOM     28  C   UNL     1      43.302   6.236  11.326  0.00  0.00    +0.000 A 
ATOM     29  N   UNL     1      43.158   5.060  12.017  0.00  0.00    +0.000 N 
ATOM     30  C   UNL     1      44.142   4.550  12.832  0.00  0.00    +0.000 A 
ATOM     31  O   UNL     1      44.000   3.472  13.398  0.00  0.00    +0.000 OA
ATOM     32  C   UNL     1      45.327   5.379  12.937  0.00  0.00    +0.000 A 
ATOM     33  H   UNL     1      42.323   4.504  11.927  0.00  0.00    +0.000 HD
ENDBRANCH  20  23
ENDBRANCH  18  19
ENDBRANCH   4  18
TORSDOF 7
ENDMDL
MODEL 6
REMARK VINA RESULT:    -7.065      1.765      2.377
REMARK INTER + INTRA:         -10.945
REMARK INTER:                  -9.850
REMARK INTRA:                  -1.095
REMARK UNBOUND:                -0.988
REMARK  Name = 
REMARK  8 active torsions:
REMARK  status: ('A' for Active; 'I' for Inactive)
REMARK    1  A    between atoms: C_1  and  C_2
REMARK    2  A    between atoms: C_6  and  C_7
REMARK    3  A    between atoms: C_7  and  N_8
REMARK    4  A    between atoms: N_8  and  C_9
REMARK    5  A    between atoms: C_9  and  C_10
REMARK    6  A    between atoms: C_13  and  C_14
REMARK    7  A    between atoms: C_14  and  N_15
REMARK    8  A    between atoms: C_16  and  C_18
REMARK                            x       y       z     vdW  Elec       q    Type
REMARK                         _______ _______ _______ _____ _____    ______ ____
ROOT
ATOM      1  C   UNL     1      45.872   5.080  12.008  0.00  0.00    +0.000 A 
ATOM      2  C   UNL     1      45.802   3.777  12.521  0.00  0.00    +0.000 A 
ATOM      3  C   UNL     1      46.359   3.470  13.766  0.00  0.00    +0.000 A 
ATOM      4  C   UNL     1      46.993   4.462  14.524  0.00  0.00    +0.000 A 
ATOM      5  C   UNL     1      47.096   5.755  13.993  0.00  0.00    +0.000 A 
ATOM      6  C   UNL     1      46.537   6.063  12.751  0.00  0.00    +0.000 A 
ENDROOT
BRANCH   1   7
ATOM      7  C   UNL     1      45.218   5.423  10.688  0.00  0.00    +0.000 C 
BRANCH   7   8
ATOM      8  N   UNL     1      44.377   4.345  10.163  0.00  0.00    +0.000 NA
ATOM      9  H   UNL     1      44.767   3.449  10.458  0.00  0.00    +0.000 HD
BRANCH   8  10
ATOM     10  C   UNL     1      44.350   4.333   8.693  0.00  0.00    +0.000 C 
BRANCH  10  16
ATOM     11  C   UNL     1      47.532   2.955   5.267  0.00  0.00    +0.000 C 
ATOM     12  C   UNL     1      46.786   2.598   6.516  0.00  0.00    +0.000 A 
ATOM     13  C   UNL     1      46.939   1.350   7.110  0.00  0.00    +0.000 A 
ATOM     14  C   UNL     1      46.218   1.064   8.266  0.00  0.00    +0.000 A 
ATOM     15  C   UNL     1      45.366   2.027   8.790  0.00  0.00    +0.000 A 
ATOM     16  C   UNL     1      45.254   3.252   8.136  0.00  0.00    +0.000 A 
ATOM     17  N   UNL     1      45.961   3.549   7.016  0.00  0.00    +0.000 NA
ENDBRANCH  10  16
ENDBRANCH   8  10
ENDBRANCH   7   8
ENDBRANCH   1   7
BRANCH   4  18
ATOM     18  C   UNL     1      47.585   4.144  15.872  0.00  0.00    +0.000 C 
BRANCH  18  19
ATOM     19  N   UNL     1      47.942   5.348  16.579  0.00  0.00    +0.000 N 
ATOM     20  C   UNL     1      49.202   5.530  17.086  0.00  0.00    +0.000 C 
ATOM     21  O   UNL     1      50.095   4.702  16.926  0.00  0.00    +0.000 OA
ATOM     22  H   UNL     1      47.178   5.929  16.909  0.00  0.00    +0.000 HD
BRANCH  20  23
ATOM     23  C   UNL     1      49.449   6.800  17.779  0.00  0.00    +0.000 A 
ATOM     24  C   UNL     1      50.442   7.655  17.319  0.00  0.00    +0.000 A 
ATOM     25  S   UNL     1      50.565   9.102  18.212  0.00  0.00    +0.000 S 
ATOM     26  C   UNL     1      49.332   8.614  19.278  0.00  0.00    +0.000 A 
ATOM     27  N   UNL     1      48.957   9.403  20.322  0.00  0.00    +0.000 NA
ATOM     28  C   UNL     1      48.030   8.897  21.064  0.00  0.00    +0.000 A 
ATOM     29  N   UNL     1      47.437   7.678  20.856  0.00  0.00    +0.000 N 
ATOM     30  C   UNL     1      47.761   6.863  19.796  0.00  0.00    +0.000 A 
ATOM     31  O   UNL     1      47.177   5.800  19.612  0.00  0.00    +0.000 OA
ATOM     32  C   UNL     1      48.813   7.377  18.941  0.00  0.00    +0.000 A 
ATOM     33  H   UNL     1      46.709   7.344  21.467  0.00  0.00    +0.000 HD
ENDBRANCH  20  23
ENDBRANCH  18  19
ENDBRANCH   4  18
TORSDOF 7
ENDMDL
MODEL 7
REMARK VINA RESULT:    -6.958      4.475      5.044
REMARK INTER + INTRA:         -10.793
REMARK INTER:                  -9.481
REMARK INTRA:                  -1.312
REMARK UNBOUND:                -0.988
REMARK  Name = 
REMARK  8 active torsions:
REMARK  status: ('A' for Active; 'I' for Inactive)
REMARK    1  A    between atoms: C_1  and  C_2
REMARK    2  A    between atoms: C_6  and  C_7
REMARK    3  A    between atoms: C_7  and  N_8
REMARK    4  A    between atoms: N_8  and  C_9
REMARK    5  A    between atoms: C_9  and  C_10
REMARK    6  A    between atoms: C_13  and  C_14
REMARK    7  A    between atoms: C_14  and  N_15
REMARK    8  A    between atoms: C_16  and  C_18
REMARK                            x       y       z     vdW  Elec       q    Type
REMARK                         _______ _______ _______ _____ _____    ______ ____
ROOT
ATOM      1  C   UNL     1      44.948   5.202  12.528  0.00  0.00    +0.000 A 
ATOM      2  C   UNL     1      46.307   5.289  12.866  0.00  0.00    +0.000 A 
ATOM      3  C   UNL     1      47.001   6.494  12.723  0.00  0.00    +0.000 A 
ATOM      4  C   UNL     1      46.349   7.636  12.244  0.00  0.00    +0.000 A 
ATOM      5  C   UNL     1      45.002   7.539  11.871  0.00  0.00    +0.000 A 
ATOM      6  C   UNL     1      44.306   6.337  12.016  0.00  0.00    +0.000 A 
ENDROOT
BRANCH   1   7
ATOM      7  C   UNL     1      44.184   3.914  12.738  0.00  0.00    +0.000 C 
BRANCH   7   8
ATOM      8  N   UNL     1      44.639   2.825  11.871  0.00  0.00    +0.000 NA
ATOM      9  H   UNL     1      45.634   2.950  11.679  0.00  0.00    +0.000 HD
BRANCH   8  10
ATOM     10  C   UNL     1      43.953   2.833  10.570  0.00  0.00    +0.000 C 
BRANCH  10  16
ATOM     11  C   UNL     1      46.963   0.666   7.408  0.00  0.00    +0.000 C 
ATOM     12  C   UNL     1      46.359   1.943   7.906  0.00  0.00    +0.000 A 
ATOM     13  C   UNL     1      46.694   3.165   7.334  0.00  0.00    +0.000 A 
ATOM     14  C   UNL     1      46.112   4.324   7.837  0.00  0.00    +0.000 A 
ATOM     15  C   UNL     1      45.219   4.231   8.897  0.00  0.00    +0.000 A 
ATOM     16  C   UNL     1      44.939   2.974   9.429  0.00  0.00    +0.000 A 
ATOM     17  N   UNL     1      45.488   1.834   8.938  0.00  0.00    +0.000 NA
ENDBRANCH  10  16
ENDBRANCH   8  10
ENDBRANCH   7   8
ENDBRANCH   1   7
BRANCH   4  18
ATOM     18  C   UNL     1      47.085   8.943  12.098  0.00  0.00    +0.000 C 
BRANCH  18  19
ATOM     19  N   UNL     1      48.367   8.891  12.754  0.00  0.00    +0.000 N 
ATOM     20  C   UNL     1      49.134  10.016  12.910  0.00  0.00    +0.000 C 
ATOM     21  O   UNL     1      48.750  11.123  12.540  0.00  0.00    +0.000 OA
ATOM     22  H   UNL     1      48.791   7.975  12.861  0.00  0.00    +0.000 HD
BRANCH  20  23
ATOM     23  C   UNL     1      50.417   9.841  13.600  0.00  0.00    +0.000 A 
ATOM     24  C   UNL     1      50.623  10.443  14.835  0.00  0.00    +0.000 A 
ATOM     25  S   UNL     1      52.149  10.101  15.515  0.00  0.00    +0.000 S 
ATOM     26  C   UNL     1      52.609   9.181  14.160  0.00  0.00    +0.000 A 
ATOM     27  N   UNL     1      53.843   8.613  14.086  0.00  0.00    +0.000 NA
ATOM     28  C   UNL     1      54.066   7.967  12.991  0.00  0.00    +0.000 A 
ATOM     29  N   UNL     1      53.167   7.829  11.965  0.00  0.00    +0.000 N 
ATOM     30  C   UNL     1      51.897   8.357  12.010  0.00  0.00    +0.000 A 
ATOM     31  O   UNL     1      51.101   8.174  11.096  0.00  0.00    +0.000 OA
ATOM     32  C   UNL     1      51.602   9.111  13.213  0.00  0.00    +0.000 A 
ATOM     33  H   UNL     1      53.399   7.301  11.139  0.00  0.00    +0.000 HD
ENDBRANCH  20  23
ENDBRANCH  18  19
ENDBRANCH   4  18
TORSDOF 7
ENDMDL
MODEL 8
REMARK VINA RESULT:    -6.922      5.205      9.713
REMARK INTER + INTRA:         -10.743
REMARK INTER:                  -9.686
REMARK INTRA:                  -1.057
REMARK UNBOUND:                -0.988
REMARK  Name = 
REMARK  8 active torsions:
REMARK  status: ('A' for Active; 'I' for Inactive)
REMARK    1  A    between atoms: C_1  and  C_2
REMARK    2  A    between atoms: C_6  and  C_7
REMARK    3  A    between atoms: C_7  and  N_8
REMARK    4  A    between atoms: N_8  and  C_9
REMARK    5  A    between atoms: C_9  and  C_10
REMARK    6  A    between atoms: C_13  and  C_14
REMARK    7  A    between atoms: C_14  and  N_15
REMARK    8  A    between atoms: C_16  and  C_18
REMARK                            x       y       z     vdW  Elec       q    Type
REMARK                         _______ _______ _______ _____ _____    ______ ____
ROOT
ATOM      1  C   UNL     1      51.343   2.993  17.727  0.00  0.00    +0.000 A 
ATOM      2  C   UNL     1      50.776   4.255  17.960  0.00  0.00    +0.000 A 
ATOM      3  C   UNL     1      49.432   4.498  17.665  0.00  0.00    +0.000 A 
ATOM      4  C   UNL     1      48.627   3.482  17.135  0.00  0.00    +0.000 A 
ATOM      5  C   UNL     1      49.203   2.234  16.867  0.00  0.00    +0.000 A 
ATOM      6  C   UNL     1      50.545   1.989  17.164  0.00  0.00    +0.000 A 
ENDROOT
BRANCH   1   7
ATOM      7  C   UNL     1      52.781   2.715  18.101  0.00  0.00    +0.000 C 
BRANCH   7   8
ATOM      8  N   UNL     1      53.006   1.339  18.548  0.00  0.00    +0.000 NA
ATOM      9  H   UNL     1      53.074   1.329  19.567  0.00  0.00    +0.000 HD
BRANCH   8  10
ATOM     10  C   UNL     1      54.271   0.792  18.034  0.00  0.00    +0.000 C 
BRANCH  10  16
ATOM     11  C   UNL     1      52.913  -3.185  20.503  0.00  0.00    +0.000 C 
ATOM     12  C   UNL     1      53.650  -2.616  19.330  0.00  0.00    +0.000 A 
ATOM     13  C   UNL     1      54.313  -3.444  18.431  0.00  0.00    +0.000 A 
ATOM     14  C   UNL     1      54.990  -2.867  17.361  0.00  0.00    +0.000 A 
ATOM     15  C   UNL     1      54.989  -1.485  17.222  0.00  0.00    +0.000 A 
ATOM     16  C   UNL     1      54.312  -0.717  18.167  0.00  0.00    +0.000 A 
ATOM     17  N   UNL     1      53.636  -1.267  19.207  0.00  0.00    +0.000 NA
ENDBRANCH  10  16
ENDBRANCH   8  10
ENDBRANCH   7   8
ENDBRANCH   1   7
BRANCH   4  18
ATOM     18  C   UNL     1      47.173   3.731  16.825  0.00  0.00    +0.000 C 
BRANCH  18  19
ATOM     19  N   UNL     1      47.027   4.707  15.775  0.00  0.00    +0.000 N 
ATOM     20  C   UNL     1      47.082   4.346  14.454  0.00  0.00    +0.000 C 
ATOM     21  O   UNL     1      47.214   3.177  14.102  0.00  0.00    +0.000 OA
ATOM     22  H   UNL     1      47.140   5.681  16.036  0.00  0.00    +0.000 HD
BRANCH  20  23
ATOM     23  C   UNL     1      46.911   5.426  13.475  0.00  0.00    +0.000 A 
ATOM     24  C   UNL     1      45.853   5.381  12.576  0.00  0.00    +0.000 A 
ATOM     25  S   UNL     1      45.778   6.734  11.541  0.00  0.00    +0.000 S 
ATOM     26  C   UNL     1      47.187   7.403  12.222  0.00  0.00    +0.000 A 
ATOM     27  N   UNL     1      47.700   8.575  11.758  0.00  0.00    +0.000 NA
ATOM     28  C   UNL     1      48.785   8.950  12.348  0.00  0.00    +0.000 A 
ATOM     29  N   UNL     1      49.403   8.267  13.364  0.00  0.00    +0.000 N 
ATOM     30  C   UNL     1      48.902   7.096  13.886  0.00  0.00    +0.000 A 
ATOM     31  O   UNL     1      49.454   6.535  14.827  0.00  0.00    +0.000 OA
ATOM     32  C   UNL     1      47.692   6.620  13.245  0.00  0.00    +0.000 A 
ATOM     33  H   UNL     1      50.244   8.620  13.790  0.00  0.00    +0.000 HD
ENDBRANCH  20  23
ENDBRANCH  18  19
ENDBRANCH   4  18
TORSDOF 7
ENDMDL
MODEL 9
REMARK VINA RESULT:    -6.757      3.767     10.473
REMARK INTER + INTRA:         -10.510
REMARK INTER:                  -9.522
REMARK INTRA:                  -0.988
REMARK UNBOUND:                -0.988
REMARK  Name = 
REMARK  8 active torsions:
REMARK  status: ('A' for Active; 'I' for Inactive)
REMARK    1  A    between atoms: C_1  and  C_2
REMARK    2  A    between atoms: C_6  and  C_7
REMARK    3  A    between atoms: C_7  and  N_8
REMARK    4  A    between atoms: N_8  and  C_9
REMARK    5  A    between atoms: C_9  and  C_10
REMARK    6  A    between atoms: C_13  and  C_14
REMARK    7  A    between atoms: C_14  and  N_15
REMARK    8  A    between atoms: C_16  and  C_18
REMARK                            x       y       z     vdW  Elec       q    Type
REMARK                         _______ _______ _______ _____ _____    ______ ____
ROOT
ATOM      1  C   UNL     1      48.667   5.663  20.348  0.00  0.00    +0.000 A 
ATOM      2  C   UNL     1      47.476   6.050  19.716  0.00  0.00    +0.000 A 
ATOM      3  C   UNL     1      47.041   5.402  18.556  0.00  0.00    +0.000 A 
ATOM      4  C   UNL     1      47.786   4.350  18.009  0.00  0.00    +0.000 A 
ATOM      5  C   UNL     1      48.995   3.990  18.619  0.00  0.00    +0.000 A 
ATOM      6  C   UNL     1      49.429   4.635  19.780  0.00  0.00    +0.000 A 
ENDROOT
BRANCH   1   7
ATOM      7  C   UNL     1      49.105   6.327  21.634  0.00  0.00    +0.000 C 
BRANCH   7   8
ATOM      8  N   UNL     1      48.074   7.185  22.222  0.00  0.00    +0.000 NA
ATOM      9  H   UNL     1      47.241   7.151  21.632  0.00  0.00    +0.000 HD
BRANCH   8  10
ATOM     10  C   UNL     1      48.496   8.593  22.279  0.00  0.00    +0.000 C 
BRANCH  10  16
ATOM     11  C   UNL     1      44.308  11.077  22.050  0.00  0.00    +0.000 C 
ATOM     12  C   UNL     1      45.581  10.680  21.368  0.00  0.00    +0.000 A 
ATOM     13  C   UNL     1      45.870  11.118  20.080  0.00  0.00    +0.000 A 
ATOM     14  C   UNL     1      47.063  10.716  19.486  0.00  0.00    +0.000 A 
ATOM     15  C   UNL     1      47.926   9.888  20.191  0.00  0.00    +0.000 A 
ATOM     16  C   UNL     1      47.567   9.478  21.473  0.00  0.00    +0.000 A 
ATOM     17  N   UNL     1      46.414   9.874  22.070  0.00  0.00    +0.000 NA
ENDBRANCH  10  16
ENDBRANCH   8  10
ENDBRANCH   7   8
ENDBRANCH   1   7
BRANCH   4  18
ATOM     18  C   UNL     1      47.320   3.637  16.767  0.00  0.00    +0.000 C 
BRANCH  18  19
ATOM     19  N   UNL     1      46.839   4.572  15.782  0.00  0.00    +0.000 N 
ATOM     20  C   UNL     1      46.841   4.264  14.446  0.00  0.00    +0.000 C 
ATOM     21  O   UNL     1      47.209   3.169  14.030  0.00  0.00    +0.000 OA
ATOM     22  H   UNL     1      46.745   5.539  16.075  0.00  0.00    +0.000 HD
BRANCH  20  23
ATOM     23  C   UNL     1      46.320   5.293  13.539  0.00  0.00    +0.000 A 
ATOM     24  C   UNL     1      47.099   6.401  13.231  0.00  0.00    +0.000 A 
ATOM     25  S   UNL     1      46.359   7.473  12.131  0.00  0.00    +0.000 S 
ATOM     26  C   UNL     1      44.950   6.522  12.067  0.00  0.00    +0.000 A 
ATOM     27  N   UNL     1      43.883   6.901  11.311  0.00  0.00    +0.000 NA
ATOM     28  C   UNL     1      42.873   6.101  11.378  0.00  0.00    +0.000 A 
ATOM     29  N   UNL     1      42.830   4.951  12.125  0.00  0.00    +0.000 N 
ATOM     30  C   UNL     1      43.896   4.512  12.877  0.00  0.00    +0.000 A 
ATOM     31  O   UNL     1      43.842   3.455  13.495  0.00  0.00    +0.000 OA
ATOM     32  C   UNL     1      45.052   5.387  12.852  0.00  0.00    +0.000 A 
ATOM     33  H   UNL     1      42.014   4.363  12.126  0.00  0.00    +0.000 HD
ENDBRANCH  20  23
ENDBRANCH  18  19
ENDBRANCH   4  18
TORSDOF 7
ENDMDL
