MODEL 1
REMARK VINA RESULT:    -8.398      0.000      0.000
REMARK INTER + INTRA:         -12.947
REMARK INTER:                 -11.834
REMARK INTRA:                  -1.113
REMARK UNBOUND:                -1.113
REMARK  Name = 
REMARK  7 active torsions:
REMARK  status: ('A' for Active; 'I' for Inactive)
REMARK    1  A    between atoms: C_2  and  C_21
REMARK    2  A    between atoms: N_3  and  C_4
REMARK    3  A    between atoms: C_4  and  C_5
REMARK    4  A    between atoms: C_8  and  C_9
REMARK    5  A    between atoms: C_9  and  N_10
REMARK    6  A    between atoms: N_10  and  C_11
REMARK    7  A    between atoms: C_11  and  C_12
REMARK                            x       y       z     vdW  Elec       q    Type
REMARK                         _______ _______ _______ _____ _____    ______ ____
ROOT
ATOM      1  C   UNL     1      45.826   6.498  12.400  0.00  0.00    +0.000 A 
ATOM      2  C   UNL     1      46.076   6.135  11.071  0.00  0.00    +0.000 A 
ATOM      3  C   UNL     1      45.434   5.037  10.500  0.00  0.00    +0.000 A 
ATOM      4  C   UNL     1      44.524   4.277  11.247  0.00  0.00    +0.000 A 
ATOM      5  C   UNL     1      44.252   4.657  12.569  0.00  0.00    +0.000 A 
ATOM      6  C   UNL     1      44.890   5.762  13.138  0.00  0.00    +0.000 A 
ENDROOT
BRANCH   1   7
ATOM      7  C   UNL     1      46.546   7.675  13.002  0.00  0.00    +0.000 C 
BRANCH   7  10
ATOM      8  O   UNL     1      49.080   6.453  13.253  0.00  0.00    +0.000 OA
ATOM      9  C   UNL     1      48.456   6.755  14.266  0.00  0.00    +0.000 C 
ATOM     10  N   UNL     1      47.209   7.321  14.228  0.00  0.00    +0.000 N 
ATOM     11  H   UNL     1      46.826   7.733  15.072  0.00  0.00    +0.000 HD
BRANCH   9  12
ATOM     12  C   UNL     1      48.984   6.464  15.604  0.00  0.00    +0.000 A 
ATOM     13  C   UNL     1      50.053   7.196  16.103  0.00  0.00    +0.000 A 
ATOM     14  S   UNL     1      50.541   6.710  17.663  0.00  0.00    +0.000 S 
ATOM     15  C   UNL     1      49.318   5.530  17.739  0.00  0.00    +0.000 A 
ATOM     16  N   UNL     1      49.156   4.757  18.846  0.00  0.00    +0.000 NA
ATOM     17  C   UNL     1      48.170   3.927  18.779  0.00  0.00    +0.000 A 
ATOM     18  N   UNL     1      47.333   3.791  17.701  0.00  0.00    +0.000 N 
ATOM     19  C   UNL     1      47.504   4.495  16.534  0.00  0.00    +0.000 A 
ATOM     20  O   UNL     1      46.828   4.247  15.544  0.00  0.00    +0.000 OA
ATOM     21  C   UNL     1      48.569   5.482  16.578  0.00  0.00    +0.000 A 
ATOM     22  H   UNL     1      46.603   3.097  17.698  0.00  0.00    +0.000 HD
ENDBRANCH   9  12
ENDBRANCH   7  10
ENDBRANCH   1   7
BRANCH   4  23
ATOM     23  C   UNL     1      43.849   3.066  10.647  0.00  0.00    +0.000 C 
BRANCH  23  24
ATOM     24  N   UNL     1      44.080   2.889   9.217  0.00  0.00    +0.000 NA
ATOM     25  H   UNL     1      44.527   3.712   8.813  0.00  0.00    +0.000 HD
BRANCH  24  26
ATOM     26  C   UNL     1      44.918   1.721   8.906  0.00  0.00    +0.000 C 
BRANCH  26  27
ATOM     27  C   UNL     1      46.055   2.063   7.964  0.00  0.00    +0.000 A 
ATOM     28  N   UNL     1      46.281   3.388   7.694  0.00  0.00    +0.000 NA
ATOM     29  C   UNL     1      47.305   3.657   6.854  0.00  0.00    +0.000 A 
ATOM     30  C   UNL     1      48.103   2.661   6.319  0.00  0.00    +0.000 A 
ATOM     31  N   UNL     1      47.924   1.353   6.605  0.00  0.00    +0.000 NA
ATOM     32  C   UNL     1      46.892   1.078   7.438  0.00  0.00    +0.000 A 
ATOM     33 CL   UNL     1      46.739  -0.598   7.789  0.00  0.00    +0.000 Cl
ENDBRANCH  26  27
ENDBRANCH  24  26
ENDBRANCH  23  24
ENDBRANCH   4  23
TORSDOF 7
ENDMDL
MODEL 2
REMARK VINA RESULT:    -7.671      1.670      2.004
REMARK INTER + INTRA:         -11.924
REMARK INTER:                 -10.897
REMARK INTRA:                  -1.027
REMARK UNBOUND:                -1.113
REMARK  Name = 
REMARK  7 active torsions:
REMARK  status: ('A' for Active; 'I' for Inactive)
REMARK    1  A    between atoms: C_2  and  C_21
REMARK    2  A    between atoms: N_3  and  C_4
REMARK    3  A    between atoms: C_4  and  C_5
REMARK    4  A    between atoms: C_8  and  C_9
REMARK    5  A    between atoms: C_9  and  N_10
REMARK    6  A    between atoms: N_10  and  C_11
REMARK    7  A    between atoms: C_11  and  C_12
REMARK                            x       y       z     vdW  Elec       q    Type
REMARK                         _______ _______ _______ _____ _____    ______ ____
ROOT
ATOM      1  C   UNL     1      46.755   6.988  12.989  0.00  0.00    +0.000 A 
ATOM      2  C   UNL     1      46.771   5.698  13.535  0.00  0.00    +0.000 A 
ATOM      3  C   UNL     1      45.968   4.690  13.002  0.00  0.00    +0.000 A 
ATOM      4  C   UNL     1      45.132   4.950  11.908  0.00  0.00    +0.000 A 
ATOM      5  C   UNL     1      45.137   6.233  11.343  0.00  0.00    +0.000 A 
ATOM      6  C   UNL     1      45.947   7.241  11.873  0.00  0.00    +0.000 A 
ENDROOT
BRANCH   1   7
ATOM      7  C   UNL     1      47.615   8.066  13.593  0.00  0.00    +0.000 C 
BRANCH   7  10
ATOM      8  O   UNL     1      49.925   6.887  14.711  0.00  0.00    +0.000 OA
ATOM      9  C   UNL     1      49.028   7.273  15.455  0.00  0.00    +0.000 C 
ATOM     10  N   UNL     1      47.864   7.826  14.989  0.00  0.00    +0.000 N 
ATOM     11  H   UNL     1      47.251   8.308  15.637  0.00  0.00    +0.000 HD
BRANCH   9  12
ATOM     12  C   UNL     1      49.117   7.106  16.910  0.00  0.00    +0.000 A 
ATOM     13  C   UNL     1      49.459   8.184  17.714  0.00  0.00    +0.000 A 
ATOM     14  S   UNL     1      49.529   7.799  19.375  0.00  0.00    +0.000 S 
ATOM     15  C   UNL     1      49.069   6.189  19.078  0.00  0.00    +0.000 A 
ATOM     16  N   UNL     1      48.909   5.304  20.099  0.00  0.00    +0.000 NA
ATOM     17  C   UNL     1      48.528   4.128  19.733  0.00  0.00    +0.000 A 
ATOM     18  N   UNL     1      48.298   3.748  18.435  0.00  0.00    +0.000 N 
ATOM     19  C   UNL     1      48.518   4.582  17.366  0.00  0.00    +0.000 A 
ATOM     20  O   UNL     1      48.441   4.168  16.217  0.00  0.00    +0.000 OA
ATOM     21  C   UNL     1      48.898   5.937  17.729  0.00  0.00    +0.000 A 
ATOM     22  H   UNL     1      48.036   2.801  18.212  0.00  0.00    +0.000 HD
ENDBRANCH   9  12
ENDBRANCH   7  10
ENDBRANCH   1   7
BRANCH   4  23
ATOM     23  C   UNL     1      44.235   3.873  11.346  0.00  0.00    +0.000 C 
BRANCH  23  24
ATOM     24  N   UNL     1      44.938   2.687  10.864  0.00  0.00    +0.000 NA
ATOM     25  H   UNL     1      44.814   1.903  11.504  0.00  0.00    +0.000 HD
BRANCH  24  26
ATOM     26  C   UNL     1      44.495   2.256   9.529  0.00  0.00    +0.000 C 
BRANCH  26  27
ATOM     27  C   UNL     1      45.656   2.061   8.574  0.00  0.00    +0.000 A 
ATOM     28  N   UNL     1      46.016   0.775   8.262  0.00  0.00    +0.000 NA
ATOM     29  C   UNL     1      47.051   0.640   7.405  0.00  0.00    +0.000 A 
ATOM     30  C   UNL     1      47.696   1.729   6.846  0.00  0.00    +0.000 A 
ATOM     31  N   UNL     1      47.330   3.003   7.106  0.00  0.00    +0.000 NA
ATOM     32  C   UNL     1      46.300   3.144   7.974  0.00  0.00    +0.000 A 
ATOM     33 CL   UNL     1      45.863   4.786   8.237  0.00  0.00    +0.000 Cl
ENDBRANCH  26  27
ENDBRANCH  24  26
ENDBRANCH  23  24
ENDBRANCH   4  23
TORSDOF 7
ENDMDL
MODEL 3
REMARK VINA RESULT:    -7.424      2.804      3.320
REMARK INTER + INTRA:         -11.576
REMARK INTER:                 -10.429
REMARK INTRA:                  -1.147
REMARK UNBOUND:                -1.113
REMARK  Name = 
REMARK  7 active torsions:
REMARK  status: ('A' for Active; 'I' for Inactive)
REMARK    1  A    between atoms: C_2  and  C_21
REMARK    2  A    between atoms: N_3  and  C_4
REMARK    3  A    between atoms: C_4  and  C_5
REMARK    4  A    between atoms: C_8  and  C_9
REMARK    5  A    between atoms: C_9  and  N_10
REMARK    6  A    between atoms: N_10  and  C_11
REMARK    7  A    between atoms: C_11  and  C_12
REMARK                            x       y       z     vdW  Elec       q    Type
REMARK                         _______ _______ _______ _____ _____    ______ ____
ROOT
ATOM      1  C   UNL     1      47.338   6.092  13.626  0.00  0.00    +0.000 A 
ATOM      2  C   UNL     1      47.299   4.699  13.772  0.00  0.00    +0.000 A 
ATOM      3  C   UNL     1      46.337   3.940  13.107  0.00  0.00    +0.000 A 
ATOM      4  C   UNL     1      45.391   4.558  12.277  0.00  0.00    +0.000 A 
ATOM      5  C   UNL     1      45.447   5.949  12.109  0.00  0.00    +0.000 A 
ATOM      6  C   UNL     1      46.416   6.708  12.770  0.00  0.00    +0.000 A 
ENDROOT
BRANCH   1   7
ATOM      7  C   UNL     1      48.372   6.893  14.369  0.00  0.00    +0.000 C 
BRANCH   7  10
ATOM      8  O   UNL     1      49.970   5.758  16.402  0.00  0.00    +0.000 OA
ATOM      9  C   UNL     1      48.951   6.369  16.711  0.00  0.00    +0.000 C 
ATOM     10  N   UNL     1      48.107   6.921  15.783  0.00  0.00    +0.000 N 
ATOM     11  H   UNL     1      47.399   7.579  16.088  0.00  0.00    +0.000 HD
BRANCH   9  12
ATOM     12  C   UNL     1      48.528   6.493  18.110  0.00  0.00    +0.000 A 
ATOM     13  C   UNL     1      48.586   5.392  18.954  0.00  0.00    +0.000 A 
ATOM     14  S   UNL     1      48.042   5.718  20.537  0.00  0.00    +0.000 S 
ATOM     15  C   UNL     1      47.746   7.350  20.159  0.00  0.00    +0.000 A 
ATOM     16  N   UNL     1      47.285   8.217  21.100  0.00  0.00    +0.000 NA
ATOM     17  C   UNL     1      47.136   9.429  20.684  0.00  0.00    +0.000 A 
ATOM     18  N   UNL     1      47.397   9.856  19.407  0.00  0.00    +0.000 N 
ATOM     19  C   UNL     1      47.790   9.003  18.404  0.00  0.00    +0.000 A 
ATOM     20  O   UNL     1      47.876   9.390  17.246  0.00  0.00    +0.000 OA
ATOM     21  C   UNL     1      48.024   7.636  18.835  0.00  0.00    +0.000 A 
ATOM     22  H   UNL     1      47.224  10.811  19.136  0.00  0.00    +0.000 HD
ENDBRANCH   9  12
ENDBRANCH   7  10
ENDBRANCH   1   7
BRANCH   4  23
ATOM     23  C   UNL     1      44.326   3.747  11.580  0.00  0.00    +0.000 C 
BRANCH  23  24
ATOM     24  N   UNL     1      44.807   2.515  10.962  0.00  0.00    +0.000 NA
ATOM     25  H   UNL     1      44.470   1.696  11.466  0.00  0.00    +0.000 HD
BRANCH  24  26
ATOM     26  C   UNL     1      44.402   2.378   9.554  0.00  0.00    +0.000 C 
BRANCH  26  27
ATOM     27  C   UNL     1      45.589   2.201   8.629  0.00  0.00    +0.000 A 
ATOM     28  N   UNL     1      45.945   0.922   8.287  0.00  0.00    +0.000 NA
ATOM     29  C   UNL     1      47.005   0.803   7.457  0.00  0.00    +0.000 A 
ATOM     30  C   UNL     1      47.677   1.902   6.952  0.00  0.00    +0.000 A 
ATOM     31  N   UNL     1      47.317   3.171   7.243  0.00  0.00    +0.000 NA
ATOM     32  C   UNL     1      46.262   3.296   8.083  0.00  0.00    +0.000 A 
ATOM     33 CL   UNL     1      45.833   4.933   8.386  0.00  0.00    +0.000 Cl
ENDBRANCH  26  27
ENDBRANCH  24  26
ENDBRANCH  23  24
ENDBRANCH   4  23
TORSDOF 7
ENDMDL
MODEL 4
REMARK VINA RESULT:    -7.237      1.892      2.337
REMARK INTER + INTRA:         -11.312
REMARK INTER:                 -10.272
REMARK INTRA:                  -1.040
REMARK UNBOUND:                -1.113
REMARK  Name = 
REMARK  7 active torsions:
REMARK  status: ('A' for Active; 'I' for Inactive)
REMARK    1  A    between atoms: C_2  and  C_21
REMARK    2  A    between atoms: N_3  and  C_4
REMARK    3  A    between atoms: C_4  and  C_5
REMARK    4  A    between atoms: C_8  and  C_9
REMARK    5  A    between atoms: C_9  and  N_10
REMARK    6  A    between atoms: N_10  and  C_11
REMARK    7  A    between atoms: C_11  and  C_12
REMARK                            x       y       z     vdW  Elec       q    Type
REMARK                         _______ _______ _______ _____ _____    ______ ____
ROOT
ATOM      1  C   UNL     1      46.629   6.385  12.791  0.00  0.00    +0.000 A 
ATOM      2  C   UNL     1      46.534   5.161  13.464  0.00  0.00    +0.000 A 
ATOM      3  C   UNL     1      45.853   4.086  12.894  0.00  0.00    +0.000 A 
ATOM      4  C   UNL     1      45.252   4.212  11.634  0.00  0.00    +0.000 A 
ATOM      5  C   UNL     1      45.371   5.429  10.948  0.00  0.00    +0.000 A 
ATOM      6  C   UNL     1      46.060   6.503  11.517  0.00  0.00    +0.000 A 
ENDROOT
BRANCH   1   7
ATOM      7  C   UNL     1      47.351   7.538  13.435  0.00  0.00    +0.000 C 
BRANCH   7  10
ATOM      8  O   UNL     1      49.939   6.963  14.409  0.00  0.00    +0.000 OA
ATOM      9  C   UNL     1      48.997   7.006  15.196  0.00  0.00    +0.000 C 
ATOM     10  N   UNL     1      47.709   7.247  14.797  0.00  0.00    +0.000 N 
ATOM     11  H   UNL     1      47.009   7.471  15.496  0.00  0.00    +0.000 HD
BRANCH   9  12
ATOM     12  C   UNL     1      49.183   6.732  16.625  0.00  0.00    +0.000 A 
ATOM     13  C   UNL     1      49.796   5.556  17.033  0.00  0.00    +0.000 A 
ATOM     14  S   UNL     1      49.911   5.401  18.728  0.00  0.00    +0.000 S 
ATOM     15  C   UNL     1      49.179   6.917  18.972  0.00  0.00    +0.000 A 
ATOM     16  N   UNL     1      48.997   7.416  20.224  0.00  0.00    +0.000 NA
ATOM     17  C   UNL     1      48.460   8.588  20.261  0.00  0.00    +0.000 A 
ATOM     18  N   UNL     1      48.077   9.308  19.157  0.00  0.00    +0.000 N 
ATOM     19  C   UNL     1      48.171   8.815  17.879  0.00  0.00    +0.000 A 
ATOM     20  O   UNL     1      47.690   9.423  16.932  0.00  0.00    +0.000 OA
ATOM     21  C   UNL     1      48.819   7.518  17.781  0.00  0.00    +0.000 A 
ATOM     22  H   UNL     1      47.629  10.205  19.256  0.00  0.00    +0.000 HD
ENDBRANCH   9  12
ENDBRANCH   7  10
ENDBRANCH   1   7
BRANCH   4  23
ATOM     23  C   UNL     1      44.485   3.063  11.024  0.00  0.00    +0.000 C 
BRANCH  23  24
ATOM     24  N   UNL     1      44.366   3.116   9.570  0.00  0.00    +0.000 NA
ATOM     25  H   UNL     1      44.876   3.913   9.190  0.00  0.00    +0.000 HD
BRANCH  24  26
ATOM     26  C   UNL     1      44.864   1.902   8.905  0.00  0.00    +0.000 C 
BRANCH  26  27
ATOM     27  C   UNL     1      46.047   2.186   8.002  0.00  0.00    +0.000 A 
ATOM     28  N   UNL     1      46.358   3.498   7.752  0.00  0.00    +0.000 NA
ATOM     29  C   UNL     1      47.421   3.713   6.947  0.00  0.00    +0.000 A 
ATOM     30  C   UNL     1      48.177   2.678   6.426  0.00  0.00    +0.000 A 
ATOM     31  N   UNL     1      47.914   1.380   6.694  0.00  0.00    +0.000 NA
ATOM     32  C   UNL     1      46.842   1.158   7.492  0.00  0.00    +0.000 A 
ATOM     33 CL   UNL     1      46.583  -0.509   7.821  0.00  0.00    +0.000 Cl
ENDBRANCH  26  27
ENDBRANCH  24  26
ENDBRANCH  23  24
ENDBRANCH   4  23
TORSDOF 7
ENDMDL
MODEL 5
REMARK VINA RESULT:    -7.135      3.509      8.575
REMARK INTER + INTRA:         -11.168
REMARK INTER:                  -9.676
REMARK INTRA:                  -1.492
REMARK UNBOUND:                -1.113
REMARK  Name = 
REMARK  7 active torsions:
REMARK  status: ('A' for Active; 'I' for Inactive)
REMARK    1  A    between atoms: C_2  and  C_21
REMARK    2  A    between atoms: N_3  and  C_4
REMARK    3  A    between atoms: C_4  and  C_5
REMARK    4  A    between atoms: C_8  and  C_9
REMARK    5  A    between atoms: C_9  and  N_10
REMARK    6  A    between atoms: N_10  and  C_11
REMARK    7  A    between atoms: C_11  and  C_12
REMARK                            x       y       z     vdW  Elec       q    Type
REMARK                         _______ _______ _______ _____ _____    ______ ____
ROOT
ATOM      1  C   UNL     1      48.254   7.947  13.309  0.00  0.00    +0.000 A 
ATOM      2  C   UNL     1      47.650   8.767  14.270  0.00  0.00    +0.000 A 
ATOM      3  C   UNL     1      48.171   8.855  15.560  0.00  0.00    +0.000 A 
ATOM      4  C   UNL     1      49.312   8.123  15.918  0.00  0.00    +0.000 A 
ATOM      5  C   UNL     1      49.933   7.323  14.948  0.00  0.00    +0.000 A 
ATOM      6  C   UNL     1      49.414   7.242  13.654  0.00  0.00    +0.000 A 
ENDROOT
BRANCH   1   7
ATOM      7  C   UNL     1      47.663   7.852  11.928  0.00  0.00    +0.000 C 
BRANCH   7  10
ATOM      8  O   UNL     1      44.852   7.585  12.019  0.00  0.00    +0.000 OA
ATOM      9  C   UNL     1      45.541   6.597  11.784  0.00  0.00    +0.000 C 
ATOM     10  N   UNL     1      46.911   6.637  11.755  0.00  0.00    +0.000 N 
ATOM     11  H   UNL     1      47.421   5.854  11.363  0.00  0.00    +0.000 HD
BRANCH   9  12
ATOM     12  C   UNL     1      44.938   5.275  11.584  0.00  0.00    +0.000 A 
ATOM     13  C   UNL     1      44.234   4.668  12.615  0.00  0.00    +0.000 A 
ATOM     14  S   UNL     1      43.618   3.131  12.206  0.00  0.00    +0.000 S 
ATOM     15  C   UNL     1      44.240   3.240  10.627  0.00  0.00    +0.000 A 
ATOM     16  N   UNL     1      44.037   2.245   9.722  0.00  0.00    +0.000 NA
ATOM     17  C   UNL     1      44.536   2.473   8.555  0.00  0.00    +0.000 A 
ATOM     18  N   UNL     1      45.230   3.605   8.208  0.00  0.00    +0.000 N 
ATOM     19  C   UNL     1      45.524   4.601   9.106  0.00  0.00    +0.000 A 
ATOM     20  O   UNL     1      46.264   5.527   8.801  0.00  0.00    +0.000 OA
ATOM     21  C   UNL     1      44.937   4.416  10.422  0.00  0.00    +0.000 A 
ATOM     22  H   UNL     1      45.626   3.706   7.287  0.00  0.00    +0.000 HD
ENDBRANCH   9  12
ENDBRANCH   7  10
ENDBRANCH   1   7
BRANCH   4  23
ATOM     23  C   UNL     1      49.863   8.187  17.323  0.00  0.00    +0.000 C 
BRANCH  23  24
ATOM     24  N   UNL     1      48.934   7.750  18.360  0.00  0.00    +0.000 NA
ATOM     25  H   UNL     1      47.991   7.642  17.986  0.00  0.00    +0.000 HD
BRANCH  24  26
ATOM     26  C   UNL     1      49.321   6.476  18.984  0.00  0.00    +0.000 C 
BRANCH  26  27
ATOM     27  C   UNL     1      48.841   5.278  18.190  0.00  0.00    +0.000 A 
ATOM     28  N   UNL     1      47.490   5.053  18.130  0.00  0.00    +0.000 NA
ATOM     29  C   UNL     1      47.097   3.979  17.410  0.00  0.00    +0.000 A 
ATOM     30  C   UNL     1      47.997   3.168  16.742  0.00  0.00    +0.000 A 
ATOM     31  N   UNL     1      49.328   3.396  16.752  0.00  0.00    +0.000 NA
ATOM     32  C   UNL     1      49.728   4.464  17.483  0.00  0.00    +0.000 A 
ATOM     33 CL   UNL     1      51.427   4.719  17.428  0.00  0.00    +0.000 Cl
ENDBRANCH  26  27
ENDBRANCH  24  26
ENDBRANCH  23  24
ENDBRANCH   4  23
TORSDOF 7
ENDMDL
MODEL 6
REMARK VINA RESULT:    -7.126      4.012      8.269
REMARK INTER + INTRA:         -11.155
REMARK INTER:                  -9.776
REMARK INTRA:                  -1.379
REMARK UNBOUND:                -1.113
REMARK  Name = 
REMARK  7 active torsions:
REMARK  status: ('A' for Active; 'I' for Inactive)
REMARK    1  A    between atoms: C_2  and  C_21
REMARK    2  A    between atoms: N_3  and  C_4
REMARK    3  A    between atoms: C_4  and  C_5
REMARK    4  A    between atoms: C_8  and  C_9
REMARK    5  A    between atoms: C_9  and  N_10
REMARK    6  A    between atoms: N_10  and  C_11
REMARK    7  A    between atoms: C_11  and  C_12
REMARK                            x       y       z     vdW  Elec       q    Type
REMARK                         _______ _______ _______ _____ _____    ______ ____
ROOT
ATOM      1  C   UNL     1      48.452   7.973  13.539  0.00  0.00    +0.000 A 
ATOM      2  C   UNL     1      48.768   6.767  14.176  0.00  0.00    +0.000 A 
ATOM      3  C   UNL     1      48.842   6.694  15.566  0.00  0.00    +0.000 A 
ATOM      4  C   UNL     1      48.599   7.829  16.352  0.00  0.00    +0.000 A 
ATOM      5  C   UNL     1      48.255   9.030  15.715  0.00  0.00    +0.000 A 
ATOM      6  C   UNL     1      48.174   9.100  14.323  0.00  0.00    +0.000 A 
ENDROOT
BRANCH   1   7
ATOM      7  C   UNL     1      48.399   8.033  12.036  0.00  0.00    +0.000 C 
BRANCH   7  10
ATOM      8  O   UNL     1      45.592   7.927  11.737  0.00  0.00    +0.000 OA
ATOM      9  C   UNL     1      46.273   6.982  11.349  0.00  0.00    +0.000 C 
ATOM     10  N   UNL     1      47.636   6.944  11.487  0.00  0.00    +0.000 N 
ATOM     11  H   UNL     1      48.166   6.246  10.977  0.00  0.00    +0.000 HD
BRANCH   9  12
ATOM     12  C   UNL     1      45.658   5.785  10.765  0.00  0.00    +0.000 A 
ATOM     13  C   UNL     1      45.839   5.496   9.420  0.00  0.00    +0.000 A 
ATOM     14  S   UNL     1      45.039   4.078   8.914  0.00  0.00    +0.000 S 
ATOM     15  C   UNL     1      44.454   3.781  10.483  0.00  0.00    +0.000 A 
ATOM     16  N   UNL     1      43.703   2.681  10.757  0.00  0.00    +0.000 NA
ATOM     17  C   UNL     1      43.354   2.565  11.993  0.00  0.00    +0.000 A 
ATOM     18  N   UNL     1      43.680   3.455  12.985  0.00  0.00    +0.000 N 
ATOM     19  C   UNL     1      44.372   4.616  12.744  0.00  0.00    +0.000 A 
ATOM     20  O   UNL     1      44.522   5.454  13.623  0.00  0.00    +0.000 OA
ATOM     21  C   UNL     1      44.833   4.767  11.375  0.00  0.00    +0.000 A 
ATOM     22  H   UNL     1      43.345   3.324  13.927  0.00  0.00    +0.000 HD
ENDBRANCH   9  12
ENDBRANCH   7  10
ENDBRANCH   1   7
BRANCH   4  23
ATOM     23  C   UNL     1      48.709   7.767  17.857  0.00  0.00    +0.000 C 
BRANCH  23  24
ATOM     24  N   UNL     1      47.498   7.317  18.537  0.00  0.00    +0.000 NA
ATOM     25  H   UNL     1      46.758   7.110  17.867  0.00  0.00    +0.000 HD
BRANCH  24  26
ATOM     26  C   UNL     1      47.710   6.117  19.361  0.00  0.00    +0.000 C 
BRANCH  26  27
ATOM     27  C   UNL     1      47.978   4.883  18.522  0.00  0.00    +0.000 A 
ATOM     28  N   UNL     1      46.963   4.425  17.721  0.00  0.00    +0.000 NA
ATOM     29  C   UNL     1      47.238   3.327  16.984  0.00  0.00    +0.000 A 
ATOM     30  C   UNL     1      48.477   2.713  17.005  0.00  0.00    +0.000 A 
ATOM     31  N   UNL     1      49.503   3.172  17.754  0.00  0.00    +0.000 NA
ATOM     32  C   UNL     1      49.230   4.267  18.503  0.00  0.00    +0.000 A 
ATOM     33 CL   UNL     1      50.584   4.820  19.405  0.00  0.00    +0.000 Cl
ENDBRANCH  26  27
ENDBRANCH  24  26
ENDBRANCH  23  24
ENDBRANCH   4  23
TORSDOF 7
ENDMDL
MODEL 7
REMARK VINA RESULT:    -6.593      4.703      9.824
REMARK INTER + INTRA:         -10.404
REMARK INTER:                  -8.983
REMARK INTRA:                  -1.421
REMARK UNBOUND:                -1.113
REMARK  Name = 
REMARK  7 active torsions:
REMARK  status: ('A' for Active; 'I' for Inactive)
REMARK    1  A    between atoms: C_2  and  C_21
REMARK    2  A    between atoms: N_3  and  C_4
REMARK    3  A    between atoms: C_4  and  C_5
REMARK    4  A    between atoms: C_8  and  C_9
REMARK    5  A    between atoms: C_9  and  N_10
REMARK    6  A    between atoms: N_10  and  C_11
REMARK    7  A    between atoms: C_11  and  C_12
REMARK                            x       y       z     vdW  Elec       q    Type
REMARK                         _______ _______ _______ _____ _____    ______ ____
ROOT
ATOM      1  C   UNL     1      47.792   4.365  17.962  0.00  0.00    +0.000 A 
ATOM      2  C   UNL     1      46.948   5.391  18.403  0.00  0.00    +0.000 A 
ATOM      3  C   UNL     1      47.175   6.024  19.625  0.00  0.00    +0.000 A 
ATOM      4  C   UNL     1      48.256   5.644  20.433  0.00  0.00    +0.000 A 
ATOM      5  C   UNL     1      49.117   4.635  19.978  0.00  0.00    +0.000 A 
ATOM      6  C   UNL     1      48.893   4.007  18.751  0.00  0.00    +0.000 A 
ENDROOT
BRANCH   1   7
ATOM      7  C   UNL     1      47.516   3.682  16.649  0.00  0.00    +0.000 C 
BRANCH   7  10
ATOM      8  O   UNL     1      47.222   3.218  13.879  0.00  0.00    +0.000 OA
ATOM      9  C   UNL     1      46.832   4.281  14.354  0.00  0.00    +0.000 C 
ATOM     10  N   UNL     1      46.968   4.594  15.681  0.00  0.00    +0.000 N 
ATOM     11  H   UNL     1      46.456   5.384  16.058  0.00  0.00    +0.000 HD
BRANCH   9  12
ATOM     12  C   UNL     1      46.247   5.327  13.508  0.00  0.00    +0.000 A 
ATOM     13  C   UNL     1      46.963   6.486  13.242  0.00  0.00    +0.000 A 
ATOM     14  S   UNL     1      46.121   7.595  12.257  0.00  0.00    +0.000 S 
ATOM     15  C   UNL     1      44.788   6.548  12.122  0.00  0.00    +0.000 A 
ATOM     16  N   UNL     1      43.703   6.885  11.374  0.00  0.00    +0.000 NA
ATOM     17  C   UNL     1      42.780   5.985  11.334  0.00  0.00    +0.000 A 
ATOM     18  N   UNL     1      42.835   4.778  11.984  0.00  0.00    +0.000 N 
ATOM     19  C   UNL     1      43.873   4.426  12.811  0.00  0.00    +0.000 A 
ATOM     20  O   UNL     1      43.824   3.406  13.485  0.00  0.00    +0.000 OA
ATOM     21  C   UNL     1      44.965   5.384  12.847  0.00  0.00    +0.000 A 
ATOM     22  H   UNL     1      42.062   4.133  11.942  0.00  0.00    +0.000 HD
ENDBRANCH   9  12
ENDBRANCH   7  10
ENDBRANCH   1   7
BRANCH   4  23
ATOM     23  C   UNL     1      48.489   6.301  21.772  0.00  0.00    +0.000 C 
BRANCH  23  24
ATOM     24  N   UNL     1      48.181   7.727  21.811  0.00  0.00    +0.000 NA
ATOM     25  H   UNL     1      48.039   8.045  22.770  0.00  0.00    +0.000 HD
BRANCH  24  26
ATOM     26  C   UNL     1      49.232   8.562  21.209  0.00  0.00    +0.000 C 
BRANCH  26  27
ATOM     27  C   UNL     1      48.716   9.382  20.043  0.00  0.00    +0.000 A 
ATOM     28  N   UNL     1      47.935  10.472  20.327  0.00  0.00    +0.000 NA
ATOM     29  C   UNL     1      47.497  11.182  19.264  0.00  0.00    +0.000 A 
ATOM     30  C   UNL     1      47.839  10.854  17.964  0.00  0.00    +0.000 A 
ATOM     31  N   UNL     1      48.641   9.810  17.665  0.00  0.00    +0.000 NA
ATOM     32  C   UNL     1      49.074   9.088  18.726  0.00  0.00    +0.000 A 
ATOM     33 CL   UNL     1      50.117   7.796  18.281  0.00  0.00    +0.000 Cl
ENDBRANCH  26  27
ENDBRANCH  24  26
ENDBRANCH  23  24
ENDBRANCH   4  23
TORSDOF 7
ENDMDL
MODEL 8
REMARK VINA RESULT:    -6.573      4.067      7.998
REMARK INTER + INTRA:         -10.376
REMARK INTER:                  -8.688
REMARK INTRA:                  -1.688
REMARK UNBOUND:                -1.113
REMARK  Name = 
REMARK  7 active torsions:
REMARK  status: ('A' for Active; 'I' for Inactive)
REMARK    1  A    between atoms: C_2  and  C_21
REMARK    2  A    between atoms: N_3  and  C_4
REMARK    3  A    between atoms: C_4  and  C_5
REMARK    4  A    between atoms: C_8  and  C_9
REMARK    5  A    between atoms: C_9  and  N_10
REMARK    6  A    between atoms: N_10  and  C_11
REMARK    7  A    between atoms: C_11  and  C_12
REMARK                            x       y       z     vdW  Elec       q    Type
REMARK                         _______ _______ _______ _____ _____    ______ ____
ROOT
ATOM      1  C   UNL     1      49.058   8.571  15.740  0.00  0.00    +0.000 A 
ATOM      2  C   UNL     1      49.039   8.826  17.117  0.00  0.00    +0.000 A 
ATOM      3  C   UNL     1      49.920   8.168  17.975  0.00  0.00    +0.000 A 
ATOM      4  C   UNL     1      50.843   7.240  17.473  0.00  0.00    +0.000 A 
ATOM      5  C   UNL     1      50.880   7.005  16.091  0.00  0.00    +0.000 A 
ATOM      6  C   UNL     1      50.003   7.670  15.231  0.00  0.00    +0.000 A 
ENDROOT
BRANCH   1   7
ATOM      7  C   UNL     1      48.085   9.277  14.835  0.00  0.00    +0.000 C 
BRANCH   7  10
ATOM      8  O   UNL     1      47.592   8.927  12.076  0.00  0.00    +0.000 OA
ATOM      9  C   UNL     1      46.990   8.228  12.887  0.00  0.00    +0.000 C 
ATOM     10  N   UNL     1      47.150   8.359  14.241  0.00  0.00    +0.000 N 
ATOM     11  H   UNL     1      46.791   7.635  14.854  0.00  0.00    +0.000 HD
BRANCH   9  12
ATOM     12  C   UNL     1      45.996   7.239  12.454  0.00  0.00    +0.000 A 
ATOM     13  C   UNL     1      44.894   7.640  11.711  0.00  0.00    +0.000 A 
ATOM     14  S   UNL     1      43.840   6.360  11.312  0.00  0.00    +0.000 S 
ATOM     15  C   UNL     1      44.840   5.222  12.085  0.00  0.00    +0.000 A 
ATOM     16  N   UNL     1      44.525   3.899  12.090  0.00  0.00    +0.000 NA
ATOM     17  C   UNL     1      45.387   3.146  12.685  0.00  0.00    +0.000 A 
ATOM     18  N   UNL     1      46.535   3.594  13.286  0.00  0.00    +0.000 N 
ATOM     19  C   UNL     1      46.857   4.927  13.372  0.00  0.00    +0.000 A 
ATOM     20  O   UNL     1      47.814   5.302  14.038  0.00  0.00    +0.000 OA
ATOM     21  C   UNL     1      45.944   5.812  12.671  0.00  0.00    +0.000 A 
ATOM     22  H   UNL     1      47.150   2.957  13.766  0.00  0.00    +0.000 HD
ENDBRANCH   9  12
ENDBRANCH   7  10
ENDBRANCH   1   7
BRANCH   4  23
ATOM     23  C   UNL     1      51.777   6.498  18.399  0.00  0.00    +0.000 C 
BRANCH  23  24
ATOM     24  N   UNL     1      51.971   5.090  18.067  0.00  0.00    +0.000 NA
ATOM     25  H   UNL     1      52.927   4.796  18.264  0.00  0.00    +0.000 HD
BRANCH  24  26
ATOM     26  C   UNL     1      51.062   4.194  18.797  0.00  0.00    +0.000 C 
BRANCH  26  27
ATOM     27  C   UNL     1      50.040   3.544  17.885  0.00  0.00    +0.000 A 
ATOM     28  N   UNL     1      48.849   4.196  17.697  0.00  0.00    +0.000 NA
ATOM     29  C   UNL     1      47.964   3.591  16.875  0.00  0.00    +0.000 A 
ATOM     30  C   UNL     1      48.248   2.400  16.231  0.00  0.00    +0.000 A 
ATOM     31  N   UNL     1      49.431   1.763  16.368  0.00  0.00    +0.000 NA
ATOM     32  C   UNL     1      50.317   2.360  17.201  0.00  0.00    +0.000 A 
ATOM     33 CL   UNL     1      51.812   1.518  17.306  0.00  0.00    +0.000 Cl
ENDBRANCH  26  27
ENDBRANCH  24  26
ENDBRANCH  23  24
ENDBRANCH   4  23
TORSDOF 7
ENDMDL
MODEL 9
REMARK VINA RESULT:    -6.537      4.116      8.465
REMARK INTER + INTRA:         -10.325
REMARK INTER:                  -8.953
REMARK INTRA:                  -1.371
REMARK UNBOUND:                -1.113
REMARK  Name = 
REMARK  7 active torsions:
REMARK  status: ('A' for Active; 'I' for Inactive)
REMARK    1  A    between atoms: C_2  and  C_21
REMARK    2  A    between atoms: N_3  and  C_4
REMARK    3  A    between atoms: C_4  and  C_5
REMARK    4  A    between atoms: C_8  and  C_9
REMARK    5  A    between atoms: C_9  and  N_10
REMARK    6  A    between atoms: N_10  and  C_11
REMARK    7  A    between atoms: C_11  and  C_12
REMARK                            x       y       z     vdW  Elec       q    Type
REMARK                         _______ _______ _______ _____ _____    ______ ____
ROOT
ATOM      1  C   UNL     1      48.995   8.245  15.729  0.00  0.00    +0.000 A 
ATOM      2  C   UNL     1      48.380   8.612  16.932  0.00  0.00    +0.000 A 
ATOM      3  C   UNL     1      48.938   8.250  18.157  0.00  0.00    +0.000 A 
ATOM      4  C   UNL     1      50.129   7.512  18.206  0.00  0.00    +0.000 A 
ATOM      5  C   UNL     1      50.761   7.169  17.002  0.00  0.00    +0.000 A 
ATOM      6  C   UNL     1      50.204   7.538  15.776  0.00  0.00    +0.000 A 
ENDROOT
BRANCH   1   7
ATOM      7  C   UNL     1      48.363   8.628  14.418  0.00  0.00    +0.000 C 
BRANCH   7  10
ATOM      8  O   UNL     1      48.868   6.332  12.854  0.00  0.00    +0.000 OA
ATOM      9  C   UNL     1      47.727   6.547  13.254  0.00  0.00    +0.000 C 
ATOM     10  N   UNL     1      47.396   7.654  13.990  0.00  0.00    +0.000 N 
ATOM     11  H   UNL     1      46.499   7.684  14.462  0.00  0.00    +0.000 HD
BRANCH   9  12
ATOM     12  C   UNL     1      46.615   5.654  12.908  0.00  0.00    +0.000 A 
ATOM     13  C   UNL     1      46.692   4.301  13.207  0.00  0.00    +0.000 A 
ATOM     14  S   UNL     1      45.317   3.417  12.719  0.00  0.00    +0.000 S 
ATOM     15  C   UNL     1      44.558   4.819  12.126  0.00  0.00    +0.000 A 
ATOM     16  N   UNL     1      43.310   4.768  11.587  0.00  0.00    +0.000 NA
ATOM     17  C   UNL     1      42.843   5.909  11.207  0.00  0.00    +0.000 A 
ATOM     18  N   UNL     1      43.514   7.101  11.308  0.00  0.00    +0.000 N 
ATOM     19  C   UNL     1      44.803   7.192  11.775  0.00  0.00    +0.000 A 
ATOM     20  O   UNL     1      45.420   8.247  11.718  0.00  0.00    +0.000 OA
ATOM     21  C   UNL     1      45.354   5.941  12.265  0.00  0.00    +0.000 A 
ATOM     22  H   UNL     1      43.107   7.954  10.958  0.00  0.00    +0.000 HD
ENDBRANCH   9  12
ENDBRANCH   7  10
ENDBRANCH   1   7
BRANCH   4  23
ATOM     23  C   UNL     1      50.723   7.088  19.528  0.00  0.00    +0.000 C 
BRANCH  23  24
ATOM     24  N   UNL     1      49.983   6.034  20.216  0.00  0.00    +0.000 NA
ATOM     25  H   UNL     1      48.978   6.178  20.132  0.00  0.00    +0.000 HD
BRANCH  24  26
ATOM     26  C   UNL     1      50.291   4.687  19.712  0.00  0.00    +0.000 C 
BRANCH  26  27
ATOM     27  C   UNL     1      49.307   4.231  18.653  0.00  0.00    +0.000 A 
ATOM     28  N   UNL     1      48.052   4.782  18.671  0.00  0.00    +0.000 NA
ATOM     29  C   UNL     1      47.202   4.356  17.711  0.00  0.00    +0.000 A 
ATOM     30  C   UNL     1      47.579   3.441  16.744  0.00  0.00    +0.000 A 
ATOM     31  N   UNL     1      48.822   2.918  16.682  0.00  0.00    +0.000 NA
ATOM     32  C   UNL     1      49.675   3.334  17.650  0.00  0.00    +0.000 A 
ATOM     33 CL   UNL     1      51.248   2.658  17.496  0.00  0.00    +0.000 Cl
ENDBRANCH  26  27
ENDBRANCH  24  26
ENDBRANCH  23  24
ENDBRANCH   4  23
TORSDOF 7
ENDMDL
