MODEL 1
REMARK VINA RESULT:    -7.085      0.000      0.000
REMARK INTER + INTRA:          -9.771
REMARK INTER:                  -9.363
REMARK INTRA:                  -0.408
REMARK UNBOUND:                -0.408
REMARK  Name = 
REMARK  6 active torsions:
REMARK  status: ('A' for Active; 'I' for Inactive)
REMARK    1  A    between atoms: N_1  and  C_2
REMARK    2  A    between atoms: C_2  and  C_3
REMARK    3  A    between atoms: C_7  and  C_8
REMARK    4  A    between atoms: C_9  and  N_10
REMARK    5  A    between atoms: N_10  and  C_11
REMARK    6  A    between atoms: C_14  and  C_15
REMARK                            x       y       z     vdW  Elec       q    Type
REMARK                         _______ _______ _______ _____ _____    ______ ____
ROOT
ATOM      1  N   UNL     1      44.671   4.877  10.984  0.00  0.00    +0.000 N 
ATOM      2  H   UNL     1      43.713   5.211  10.982  0.00  0.00    +0.000 HD
ENDROOT
BRANCH   1   3
ATOM      3  C   UNL     1      45.106   4.172   9.852  0.00  0.00    +0.000 A 
ATOM      4  C   UNL     1      45.068   2.776   9.767  0.00  0.00    +0.000 A 
ATOM      5  C   UNL     1      45.626   2.115   8.674  0.00  0.00    +0.000 A 
ATOM      6  C   UNL     1      46.222   2.880   7.683  0.00  0.00    +0.000 A 
ATOM      7  N   UNL     1      46.276   4.240   7.705  0.00  0.00    +0.000 NA
ATOM      8  C   UNL     1      45.718   4.839   8.787  0.00  0.00    +0.000 A 
BRANCH   6   9
ATOM      9  C   UNL     1      46.876   2.200   6.520  0.00  0.00    +0.000 C 
ATOM     10  N   UNL     1      47.100   2.995   5.430  0.00  0.00    +0.000 N 
ATOM     11  O   UNL     1      47.201   1.019   6.538  0.00  0.00    +0.000 OA
ATOM     12  H   UNL     1      46.831   3.972   5.465  0.00  0.00    +0.000 HD
ATOM     13  H   UNL     1      47.553   2.612   4.615  0.00  0.00    +0.000 HD
ENDBRANCH   6   9
ENDBRANCH   1   3
BRANCH   1  15
ATOM     14  C   UNL     1      46.188   4.467  12.843  0.00  0.00    +0.000 C 
ATOM     15  C   UNL     1      45.443   5.253  12.054  0.00  0.00    +0.000 C 
BRANCH  14  20
ATOM     16  C   UNL     1      47.762   4.684  16.273  0.00  0.00    +0.000 A 
ATOM     17  C   UNL     1      48.481   5.881  16.172  0.00  0.00    +0.000 A 
ATOM     18  C   UNL     1      48.431   6.637  15.002  0.00  0.00    +0.000 A 
ATOM     19  C   UNL     1      47.673   6.196  13.916  0.00  0.00    +0.000 A 
ATOM     20  C   UNL     1      46.971   4.985  13.977  0.00  0.00    +0.000 A 
ATOM     21  C   UNL     1      46.998   4.254  15.173  0.00  0.00    +0.000 A 
BRANCH  16  22
ATOM     22  C   UNL     1      47.796   3.874  17.543  0.00  0.00    +0.000 C 
BRANCH  22  23
ATOM     23  N   UNL     1      46.681   2.932  17.609  0.00  0.00    +0.000 NA
ATOM     24  H   UNL     1      46.968   2.114  18.141  0.00  0.00    +0.000 HD
ATOM     25  H   UNL     1      46.474   2.606  16.666  0.00  0.00    +0.000 HD
ENDBRANCH  22  23
ENDBRANCH  16  22
ENDBRANCH  14  20
ENDBRANCH   1  15
TORSDOF 6
ENDMDL
MODEL 2
REMARK VINA RESULT:    -6.822      1.899      2.271
REMARK INTER + INTRA:          -9.423
REMARK INTER:                  -9.014
REMARK INTRA:                  -0.410
REMARK UNBOUND:                -0.408
REMARK  Name = 
REMARK  6 active torsions:
REMARK  status: ('A' for Active; 'I' for Inactive)
REMARK    1  A    between atoms: N_1  and  C_2
REMARK    2  A    between atoms: C_2  and  C_3
REMARK    3  A    between atoms: C_7  and  C_8
REMARK    4  A    between atoms: C_9  and  N_10
REMARK    5  A    between atoms: N_10  and  C_11
REMARK    6  A    between atoms: C_14  and  C_15
REMARK                            x       y       z     vdW  Elec       q    Type
REMARK                         _______ _______ _______ _____ _____    ______ ____
ROOT
ATOM      1  N   UNL     1      44.364   5.031  10.159  0.00  0.00    +0.000 N 
ATOM      2  H   UNL     1      43.351   5.079  10.112  0.00  0.00    +0.000 HD
ENDROOT
BRANCH   1   3
ATOM      3  C   UNL     1      45.002   4.128   9.295  0.00  0.00    +0.000 A 
ATOM      4  C   UNL     1      44.906   2.741   9.441  0.00  0.00    +0.000 A 
ATOM      5  C   UNL     1      45.657   1.886   8.635  0.00  0.00    +0.000 A 
ATOM      6  C   UNL     1      46.503   2.453   7.694  0.00  0.00    +0.000 A 
ATOM      7  N   UNL     1      46.628   3.795   7.497  0.00  0.00    +0.000 NA
ATOM      8  C   UNL     1      45.876   4.585   8.303  0.00  0.00    +0.000 A 
BRANCH   6   9
ATOM      9  C   UNL     1      47.362   1.567   6.847  0.00  0.00    +0.000 C 
ATOM     10  N   UNL     1      48.513   2.142   6.382  0.00  0.00    +0.000 N 
ATOM     11  O   UNL     1      47.070   0.405   6.592  0.00  0.00    +0.000 OA
ATOM     12  H   UNL     1      48.725   3.102   6.633  0.00  0.00    +0.000 HD
ATOM     13  H   UNL     1      49.152   1.601   5.820  0.00  0.00    +0.000 HD
ENDBRANCH   6   9
ENDBRANCH   1   3
BRANCH   1  15
ATOM     14  C   UNL     1      46.002   5.711  11.826  0.00  0.00    +0.000 C 
ATOM     15  C   UNL     1      44.978   5.932  10.990  0.00  0.00    +0.000 C 
BRANCH  14  20
ATOM     16  C   UNL     1      48.278   7.422  14.313  0.00  0.00    +0.000 A 
ATOM     17  C   UNL     1      47.755   8.721  14.318  0.00  0.00    +0.000 A 
ATOM     18  C   UNL     1      46.643   9.036  13.539  0.00  0.00    +0.000 A 
ATOM     19  C   UNL     1      46.052   8.059  12.735  0.00  0.00    +0.000 A 
ATOM     20  C   UNL     1      46.575   6.760  12.685  0.00  0.00    +0.000 A 
ATOM     21  C   UNL     1      47.669   6.446  13.503  0.00  0.00    +0.000 A 
BRANCH  16  22
ATOM     22  C   UNL     1      49.467   7.070  15.169  0.00  0.00    +0.000 C 
BRANCH  22  23
ATOM     23  N   UNL     1      49.231   5.854  15.943  0.00  0.00    +0.000 NA
ATOM     24  H   UNL     1      48.234   5.660  15.964  0.00  0.00    +0.000 HD
ATOM     25  H   UNL     1      49.513   6.021  16.908  0.00  0.00    +0.000 HD
ENDBRANCH  22  23
ENDBRANCH  16  22
ENDBRANCH  14  20
ENDBRANCH   1  15
TORSDOF 6
ENDMDL
MODEL 3
REMARK VINA RESULT:    -6.701      3.851      8.376
REMARK INTER + INTRA:          -9.264
REMARK INTER:                  -8.987
REMARK INTRA:                  -0.277
REMARK UNBOUND:                -0.408
REMARK  Name = 
REMARK  6 active torsions:
REMARK  status: ('A' for Active; 'I' for Inactive)
REMARK    1  A    between atoms: N_1  and  C_2
REMARK    2  A    between atoms: C_2  and  C_3
REMARK    3  A    between atoms: C_7  and  C_8
REMARK    4  A    between atoms: C_9  and  N_10
REMARK    5  A    between atoms: N_10  and  C_11
REMARK    6  A    between atoms: C_14  and  C_15
REMARK                            x       y       z     vdW  Elec       q    Type
REMARK                         _______ _______ _______ _____ _____    ______ ____
ROOT
ATOM      1  N   UNL     1      44.757   6.256  10.921  0.00  0.00    +0.000 N 
ATOM      2  H   UNL     1      43.766   6.442  10.808  0.00  0.00    +0.000 HD
ENDROOT
BRANCH   1   3
ATOM      3  C   UNL     1      45.450   7.031  11.864  0.00  0.00    +0.000 A 
ATOM      4  C   UNL     1      45.285   8.415  11.976  0.00  0.00    +0.000 A 
ATOM      5  C   UNL     1      46.085   9.159  12.842  0.00  0.00    +0.000 A 
ATOM      6  C   UNL     1      47.049   8.487  13.579  0.00  0.00    +0.000 A 
ATOM      7  N   UNL     1      47.245   7.141  13.522  0.00  0.00    +0.000 NA
ATOM      8  C   UNL     1      46.442   6.460  12.667  0.00  0.00    +0.000 A 
BRANCH   6   9
ATOM      9  C   UNL     1      47.960   9.261  14.480  0.00  0.00    +0.000 C 
ATOM     10  N   UNL     1      47.639   9.220  15.809  0.00  0.00    +0.000 N 
ATOM     11  O   UNL     1      48.932   9.882  14.067  0.00  0.00    +0.000 OA
ATOM     12  H   UNL     1      46.836   8.679  16.109  0.00  0.00    +0.000 HD
ATOM     13  H   UNL     1      48.218   9.702  16.479  0.00  0.00    +0.000 HD
ENDBRANCH   6   9
ENDBRANCH   1   3
BRANCH   1  15
ATOM     14  C   UNL     1      44.648   4.484   9.256  0.00  0.00    +0.000 C 
ATOM     15  C   UNL     1      45.263   5.199  10.209  0.00  0.00    +0.000 C 
BRANCH  14  20
ATOM     16  C   UNL     1      46.593   2.548   6.657  0.00  0.00    +0.000 A 
ATOM     17  C   UNL     1      46.582   1.259   7.206  0.00  0.00    +0.000 A 
ATOM     18  C   UNL     1      45.914   1.010   8.404  0.00  0.00    +0.000 A 
ATOM     19  C   UNL     1      45.266   2.049   9.073  0.00  0.00    +0.000 A 
ATOM     20  C   UNL     1      45.290   3.354   8.564  0.00  0.00    +0.000 A 
ATOM     21  C   UNL     1      45.931   3.584   7.340  0.00  0.00    +0.000 A 
BRANCH  16  22
ATOM     22  C   UNL     1      47.295   2.819   5.351  0.00  0.00    +0.000 C 
BRANCH  22  23
ATOM     23  N   UNL     1      48.441   1.934   5.164  0.00  0.00    +0.000 NA
ATOM     24  H   UNL     1      48.138   1.094   4.678  0.00  0.00    +0.000 HD
ATOM     25  H   UNL     1      48.775   1.635   6.079  0.00  0.00    +0.000 HD
ENDBRANCH  22  23
ENDBRANCH  16  22
ENDBRANCH  14  20
ENDBRANCH   1  15
TORSDOF 6
ENDMDL
MODEL 4
REMARK VINA RESULT:    -6.678      4.140      8.069
REMARK INTER + INTRA:          -9.234
REMARK INTER:                  -8.850
REMARK INTRA:                  -0.384
REMARK UNBOUND:                -0.408
REMARK  Name = 
REMARK  6 active torsions:
REMARK  status: ('A' for Active; 'I' for Inactive)
REMARK    1  A    between atoms: N_1  and  C_2
REMARK    2  A    between atoms: C_2  and  C_3
REMARK    3  A    between atoms: C_7  and  C_8
REMARK    4  A    between atoms: C_9  and  N_10
REMARK    5  A    between atoms: N_10  and  C_11
REMARK    6  A    between atoms: C_14  and  C_15
REMARK                            x       y       z     vdW  Elec       q    Type
REMARK                         _______ _______ _______ _____ _____    ______ ____
ROOT
ATOM      1  N   UNL     1      47.457   4.564  16.399  0.00  0.00    +0.000 N 
ATOM      2  H   UNL     1      46.999   5.137  17.101  0.00  0.00    +0.000 HD
ENDROOT
BRANCH   1   3
ATOM      3  C   UNL     1      48.555   3.797  16.817  0.00  0.00    +0.000 A 
ATOM      4  C   UNL     1      49.600   4.323  17.583  0.00  0.00    +0.000 A 
ATOM      5  C   UNL     1      50.728   3.555  17.869  0.00  0.00    +0.000 A 
ATOM      6  C   UNL     1      50.784   2.264  17.367  0.00  0.00    +0.000 A 
ATOM      7  N   UNL     1      49.792   1.695  16.628  0.00  0.00    +0.000 NA
ATOM      8  C   UNL     1      48.714   2.479  16.378  0.00  0.00    +0.000 A 
BRANCH   6   9
ATOM      9  C   UNL     1      52.003   1.430  17.610  0.00  0.00    +0.000 C 
ATOM     10  N   UNL     1      51.764   0.176  18.102  0.00  0.00    +0.000 N 
ATOM     11  O   UNL     1      53.138   1.829  17.379  0.00  0.00    +0.000 OA
ATOM     12  H   UNL     1      50.807  -0.119  18.262  0.00  0.00    +0.000 HD
ATOM     13  H   UNL     1      52.534  -0.450  18.274  0.00  0.00    +0.000 HD
ENDBRANCH   6   9
ENDBRANCH   1   3
BRANCH   1  15
ATOM     14  C   UNL     1      47.077   5.386  14.140  0.00  0.00    +0.000 C 
ATOM     15  C   UNL     1      46.874   4.539  15.158  0.00  0.00    +0.000 C 
BRANCH  14  20
ATOM     16  C   UNL     1      44.727   4.099  11.473  0.00  0.00    +0.000 A 
ATOM     17  C   UNL     1      44.969   5.003  10.431  0.00  0.00    +0.000 A 
ATOM     18  C   UNL     1      45.921   6.011  10.580  0.00  0.00    +0.000 A 
ATOM     19  C   UNL     1      46.627   6.136  11.778  0.00  0.00    +0.000 A 
ATOM     20  C   UNL     1      46.379   5.267  12.849  0.00  0.00    +0.000 A 
ATOM     21  C   UNL     1      45.449   4.234  12.673  0.00  0.00    +0.000 A 
BRANCH  16  22
ATOM     22  C   UNL     1      43.715   2.995  11.311  0.00  0.00    +0.000 C 
BRANCH  22  23
ATOM     23  N   UNL     1      43.571   2.213  12.536  0.00  0.00    +0.000 NA
ATOM     24  H   UNL     1      44.285   1.489  12.554  0.00  0.00    +0.000 HD
ATOM     25  H   UNL     1      42.673   1.733  12.512  0.00  0.00    +0.000 HD
ENDBRANCH  22  23
ENDBRANCH  16  22
ENDBRANCH  14  20
ENDBRANCH   1  15
TORSDOF 6
ENDMDL
MODEL 5
REMARK VINA RESULT:    -5.829      4.452      7.907
REMARK INTER + INTRA:          -8.112
REMARK INTER:                  -7.681
REMARK INTRA:                  -0.431
REMARK UNBOUND:                -0.408
REMARK  Name = 
REMARK  6 active torsions:
REMARK  status: ('A' for Active; 'I' for Inactive)
REMARK    1  A    between atoms: N_1  and  C_2
REMARK    2  A    between atoms: C_2  and  C_3
REMARK    3  A    between atoms: C_7  and  C_8
REMARK    4  A    between atoms: C_9  and  N_10
REMARK    5  A    between atoms: N_10  and  C_11
REMARK    6  A    between atoms: C_14  and  C_15
REMARK                            x       y       z     vdW  Elec       q    Type
REMARK                         _______ _______ _______ _____ _____    ______ ____
ROOT
ATOM      1  N   UNL     1      44.716   7.330  12.968  0.00  0.00    +0.000 N 
ATOM      2  H   UNL     1      44.166   7.351  13.820  0.00  0.00    +0.000 HD
ENDROOT
BRANCH   1   3
ATOM      3  C   UNL     1      45.527   8.443  12.701  0.00  0.00    +0.000 A 
ATOM      4  C   UNL     1      45.053   9.591  12.058  0.00  0.00    +0.000 A 
ATOM      5  C   UNL     1      45.925  10.620  11.704  0.00  0.00    +0.000 A 
ATOM      6  C   UNL     1      47.270  10.466  12.002  0.00  0.00    +0.000 A 
ATOM      7  N   UNL     1      47.787   9.379  12.639  0.00  0.00    +0.000 NA
ATOM      8  C   UNL     1      46.900   8.406  12.965  0.00  0.00    +0.000 A 
BRANCH   6   9
ATOM      9  C   UNL     1      48.242  11.528  11.590  0.00  0.00    +0.000 C 
ATOM     10  N   UNL     1      48.319  11.757  10.244  0.00  0.00    +0.000 N 
ATOM     11  O   UNL     1      48.917  12.160  12.395  0.00  0.00    +0.000 OA
ATOM     12  H   UNL     1      47.729  11.224   9.615  0.00  0.00    +0.000 HD
ATOM     13  H   UNL     1      48.938  12.471   9.892  0.00  0.00    +0.000 HD
ENDBRANCH   6   9
ENDBRANCH   1   3
BRANCH   1  15
ATOM     14  C   UNL     1      45.025   5.982  10.964  0.00  0.00    +0.000 C 
ATOM     15  C   UNL     1      44.670   6.166  12.244  0.00  0.00    +0.000 C 
BRANCH  14  20
ATOM     16  C   UNL     1      45.409   3.313   8.315  0.00  0.00    +0.000 A 
ATOM     17  C   UNL     1      44.801   2.216   8.938  0.00  0.00    +0.000 A 
ATOM     18  C   UNL     1      44.235   2.349  10.205  0.00  0.00    +0.000 A 
ATOM     19  C   UNL     1      44.286   3.576  10.869  0.00  0.00    +0.000 A 
ATOM     20  C   UNL     1      44.919   4.681  10.284  0.00  0.00    +0.000 A 
ATOM     21  C   UNL     1      45.449   4.545   8.994  0.00  0.00    +0.000 A 
BRANCH  16  22
ATOM     22  C   UNL     1      46.004   3.180   6.937  0.00  0.00    +0.000 C 
BRANCH  22  23
ATOM     23  N   UNL     1      46.998   4.218   6.679  0.00  0.00    +0.000 NA
ATOM     24  H   UNL     1      47.536   4.382   7.526  0.00  0.00    +0.000 HD
ATOM     25  H   UNL     1      46.513   5.090   6.471  0.00  0.00    +0.000 HD
ENDBRANCH  22  23
ENDBRANCH  16  22
ENDBRANCH  14  20
ENDBRANCH   1  15
TORSDOF 6
ENDMDL
MODEL 6
REMARK VINA RESULT:    -5.719      3.021      4.597
REMARK INTER + INTRA:          -7.966
REMARK INTER:                  -7.611
REMARK INTRA:                  -0.355
REMARK UNBOUND:                -0.408
REMARK  Name = 
REMARK  6 active torsions:
REMARK  status: ('A' for Active; 'I' for Inactive)
REMARK    1  A    between atoms: N_1  and  C_2
REMARK    2  A    between atoms: C_2  and  C_3
REMARK    3  A    between atoms: C_7  and  C_8
REMARK    4  A    between atoms: C_9  and  N_10
REMARK    5  A    between atoms: N_10  and  C_11
REMARK    6  A    between atoms: C_14  and  C_15
REMARK                            x       y       z     vdW  Elec       q    Type
REMARK                         _______ _______ _______ _____ _____    ______ ____
ROOT
ATOM      1  N   UNL     1      47.437   6.669  14.188  0.00  0.00    +0.000 N 
ATOM      2  H   UNL     1      47.418   7.684  14.202  0.00  0.00    +0.000 HD
ENDROOT
BRANCH   1   3
ATOM      3  C   UNL     1      46.647   6.028  13.223  0.00  0.00    +0.000 A 
ATOM      4  C   UNL     1      46.402   6.573  11.959  0.00  0.00    +0.000 A 
ATOM      5  C   UNL     1      45.512   5.959  11.079  0.00  0.00    +0.000 A 
ATOM      6  C   UNL     1      44.875   4.801  11.498  0.00  0.00    +0.000 A 
ATOM      7  N   UNL     1      45.084   4.217  12.710  0.00  0.00    +0.000 NA
ATOM      8  C   UNL     1      45.961   4.849  13.530  0.00  0.00    +0.000 A 
BRANCH   6   9
ATOM      9  C   UNL     1      43.873   4.144  10.600  0.00  0.00    +0.000 C 
ATOM     10  N   UNL     1      43.890   4.568   9.299  0.00  0.00    +0.000 N 
ATOM     11  O   UNL     1      43.097   3.280  10.990  0.00  0.00    +0.000 OA
ATOM     12  H   UNL     1      44.561   5.273   9.016  0.00  0.00    +0.000 HD
ATOM     13  H   UNL     1      43.257   4.159   8.631  0.00  0.00    +0.000 HD
ENDBRANCH   6   9
ENDBRANCH   1   3
BRANCH   1  15
ATOM     14  C   UNL     1      48.606   6.426  16.309  0.00  0.00    +0.000 C 
ATOM     15  C   UNL     1      48.316   6.066  15.051  0.00  0.00    +0.000 C 
BRANCH  14  20
ATOM     16  C   UNL     1      50.725   3.606  17.670  0.00  0.00    +0.000 A 
ATOM     17  C   UNL     1      51.466   4.269  18.657  0.00  0.00    +0.000 A 
ATOM     18  C   UNL     1      51.256   5.625  18.905  0.00  0.00    +0.000 A 
ATOM     19  C   UNL     1      50.314   6.335  18.158  0.00  0.00    +0.000 A 
ATOM     20  C   UNL     1      49.583   5.705  17.142  0.00  0.00    +0.000 A 
ATOM     21  C   UNL     1      49.776   4.334  16.929  0.00  0.00    +0.000 A 
BRANCH  16  22
ATOM     22  C   UNL     1      50.933   2.137  17.412  0.00  0.00    +0.000 C 
BRANCH  22  23
ATOM     23  N   UNL     1      50.122   1.668  16.292  0.00  0.00    +0.000 NA
ATOM     24  H   UNL     1      50.212   0.658  16.216  0.00  0.00    +0.000 HD
ATOM     25  H   UNL     1      50.500   2.058  15.430  0.00  0.00    +0.000 HD
ENDBRANCH  22  23
ENDBRANCH  16  22
ENDBRANCH  14  20
ENDBRANCH   1  15
TORSDOF 6
ENDMDL
MODEL 7
REMARK VINA RESULT:    -5.628      2.900      4.467
REMARK INTER + INTRA:          -7.846
REMARK INTER:                  -7.557
REMARK INTRA:                  -0.289
REMARK UNBOUND:                -0.408
REMARK  Name = 
REMARK  6 active torsions:
REMARK  status: ('A' for Active; 'I' for Inactive)
REMARK    1  A    between atoms: N_1  and  C_2
REMARK    2  A    between atoms: C_2  and  C_3
REMARK    3  A    between atoms: C_7  and  C_8
REMARK    4  A    between atoms: C_9  and  N_10
REMARK    5  A    between atoms: N_10  and  C_11
REMARK    6  A    between atoms: C_14  and  C_15
REMARK                            x       y       z     vdW  Elec       q    Type
REMARK                         _______ _______ _______ _____ _____    ______ ____
ROOT
ATOM      1  N   UNL     1      47.471   6.767  13.992  0.00  0.00    +0.000 N 
ATOM      2  H   UNL     1      47.594   7.764  13.848  0.00  0.00    +0.000 HD
ENDROOT
BRANCH   1   3
ATOM      3  C   UNL     1      46.706   6.073  13.043  0.00  0.00    +0.000 A 
ATOM      4  C   UNL     1      46.516   6.535  11.737  0.00  0.00    +0.000 A 
ATOM      5  C   UNL     1      45.647   5.876  10.868  0.00  0.00    +0.000 A 
ATOM      6  C   UNL     1      44.977   4.758  11.340  0.00  0.00    +0.000 A 
ATOM      7  N   UNL     1      45.133   4.253  12.595  0.00  0.00    +0.000 NA
ATOM      8  C   UNL     1      45.989   4.927  13.403  0.00  0.00    +0.000 A 
BRANCH   6   9
ATOM      9  C   UNL     1      43.997   4.056  10.451  0.00  0.00    +0.000 C 
ATOM     10  N   UNL     1      44.009   4.453   9.142  0.00  0.00    +0.000 N 
ATOM     11  O   UNL     1      43.243   3.180  10.856  0.00  0.00    +0.000 OA
ATOM     12  H   UNL     1      44.663   5.170   8.847  0.00  0.00    +0.000 HD
ATOM     13  H   UNL     1      43.390   4.013   8.480  0.00  0.00    +0.000 HD
ENDBRANCH   6   9
ENDBRANCH   1   3
BRANCH   1  15
ATOM     14  C   UNL     1      48.922   6.848  15.944  0.00  0.00    +0.000 C 
ATOM     15  C   UNL     1      48.159   6.215  15.042  0.00  0.00    +0.000 C 
BRANCH  14  20
ATOM     16  C   UNL     1      49.567   5.196  19.283  0.00  0.00    +0.000 A 
ATOM     17  C   UNL     1      50.891   4.766  19.127  0.00  0.00    +0.000 A 
ATOM     18  C   UNL     1      51.588   5.041  17.952  0.00  0.00    +0.000 A 
ATOM     19  C   UNL     1      50.963   5.734  16.913  0.00  0.00    +0.000 A 
ATOM     20  C   UNL     1      49.628   6.145  17.029  0.00  0.00    +0.000 A 
ATOM     21  C   UNL     1      48.951   5.898  18.230  0.00  0.00    +0.000 A 
BRANCH  16  22
ATOM     22  C   UNL     1      48.816   4.920  20.560  0.00  0.00    +0.000 C 
BRANCH  22  23
ATOM     23  N   UNL     1      48.320   3.548  20.605  0.00  0.00    +0.000 NA
ATOM     24  H   UNL     1      48.800   3.044  21.346  0.00  0.00    +0.000 HD
ATOM     25  H   UNL     1      48.566   3.083  19.733  0.00  0.00    +0.000 HD
ENDBRANCH  22  23
ENDBRANCH  16  22
ENDBRANCH  14  20
ENDBRANCH   1  15
TORSDOF 6
ENDMDL
MODEL 8
REMARK VINA RESULT:    -5.627      4.373      5.958
REMARK INTER + INTRA:          -7.844
REMARK INTER:                  -7.486
REMARK INTRA:                  -0.358
REMARK UNBOUND:                -0.408
REMARK  Name = 
REMARK  6 active torsions:
REMARK  status: ('A' for Active; 'I' for Inactive)
REMARK    1  A    between atoms: N_1  and  C_2
REMARK    2  A    between atoms: C_2  and  C_3
REMARK    3  A    between atoms: C_7  and  C_8
REMARK    4  A    between atoms: C_9  and  N_10
REMARK    5  A    between atoms: N_10  and  C_11
REMARK    6  A    between atoms: C_14  and  C_15
REMARK                            x       y       z     vdW  Elec       q    Type
REMARK                         _______ _______ _______ _____ _____    ______ ____
ROOT
ATOM      1  N   UNL     1      46.696   6.934  13.407  0.00  0.00    +0.000 N 
ATOM      2  H   UNL     1      46.337   7.164  14.328  0.00  0.00    +0.000 HD
ENDROOT
BRANCH   1   3
ATOM      3  C   UNL     1      46.084   5.869  12.729  0.00  0.00    +0.000 A 
ATOM      4  C   UNL     1      45.457   6.021  11.488  0.00  0.00    +0.000 A 
ATOM      5  C   UNL     1      44.755   4.964  10.912  0.00  0.00    +0.000 A 
ATOM      6  C   UNL     1      44.692   3.766  11.608  0.00  0.00    +0.000 A 
ATOM      7  N   UNL     1      45.295   3.555  12.811  0.00  0.00    +0.000 NA
ATOM      8  C   UNL     1      45.967   4.612  13.330  0.00  0.00    +0.000 A 
BRANCH   6   9
ATOM      9  C   UNL     1      43.904   2.625  11.042  0.00  0.00    +0.000 C 
ATOM     10  N   UNL     1      44.389   2.102   9.875  0.00  0.00    +0.000 N 
ATOM     11  O   UNL     1      42.900   2.178  11.585  0.00  0.00    +0.000 OA
ATOM     12  H   UNL     1      45.233   2.491   9.470  0.00  0.00    +0.000 HD
ATOM     13  H   UNL     1      43.921   1.320   9.444  0.00  0.00    +0.000 HD
ENDBRANCH   6   9
ENDBRANCH   1   3
BRANCH   1  15
ATOM     14  C   UNL     1      48.644   7.457  12.046  0.00  0.00    +0.000 C 
ATOM     15  C   UNL     1      47.666   7.765  12.908  0.00  0.00    +0.000 C 
BRANCH  14  20
ATOM     16  C   UNL     1      51.921   8.884  10.813  0.00  0.00    +0.000 A 
ATOM     17  C   UNL     1      51.593  10.236  10.658  0.00  0.00    +0.000 A 
ATOM     18  C   UNL     1      50.318  10.694  10.985  0.00  0.00    +0.000 A 
ATOM     19  C   UNL     1      49.353   9.801  11.455  0.00  0.00    +0.000 A 
ATOM     20  C   UNL     1      49.643   8.437  11.587  0.00  0.00    +0.000 A 
ATOM     21  C   UNL     1      50.940   7.996  11.292  0.00  0.00    +0.000 A 
BRANCH  16  22
ATOM     22  C   UNL     1      53.304   8.387  10.481  0.00  0.00    +0.000 C 
BRANCH  22  23
ATOM     23  N   UNL     1      53.549   7.062  11.044  0.00  0.00    +0.000 NA
ATOM     24  H   UNL     1      53.166   6.358  10.417  0.00  0.00    +0.000 HD
ATOM     25  H   UNL     1      53.034   6.979  11.920  0.00  0.00    +0.000 HD
ENDBRANCH  22  23
ENDBRANCH  16  22
ENDBRANCH  14  20
ENDBRANCH   1  15
TORSDOF 6
ENDMDL
MODEL 9
REMARK VINA RESULT:    -5.385      4.442      6.351
REMARK INTER + INTRA:          -7.525
REMARK INTER:                  -7.129
REMARK INTRA:                  -0.396
REMARK UNBOUND:                -0.408
REMARK  Name = 
REMARK  6 active torsions:
REMARK  status: ('A' for Active; 'I' for Inactive)
REMARK    1  A    between atoms: N_1  and  C_2
REMARK    2  A    between atoms: C_2  and  C_3
REMARK    3  A    between atoms: C_7  and  C_8
REMARK    4  A    between atoms: C_9  and  N_10
REMARK    5  A    between atoms: N_10  and  C_11
REMARK    6  A    between atoms: C_14  and  C_15
REMARK                            x       y       z     vdW  Elec       q    Type
REMARK                         _______ _______ _______ _____ _____    ______ ____
ROOT
ATOM      1  N   UNL     1      46.832   6.898  13.378  0.00  0.00    +0.000 N 
ATOM      2  H   UNL     1      46.614   7.018  14.362  0.00  0.00    +0.000 HD
ENDROOT
BRANCH   1   3
ATOM      3  C   UNL     1      46.190   5.850  12.703  0.00  0.00    +0.000 A 
ATOM      4  C   UNL     1      45.607   6.004  11.441  0.00  0.00    +0.000 A 
ATOM      5  C   UNL     1      44.873   4.969  10.864  0.00  0.00    +0.000 A 
ATOM      6  C   UNL     1      44.734   3.790  11.581  0.00  0.00    +0.000 A 
ATOM      7  N   UNL     1      45.290   3.577  12.806  0.00  0.00    +0.000 NA
ATOM      8  C   UNL     1      45.996   4.612  13.324  0.00  0.00    +0.000 A 
BRANCH   6   9
ATOM      9  C   UNL     1      43.909   2.676  11.015  0.00  0.00    +0.000 C 
ATOM     10  N   UNL     1      44.400   2.109   9.871  0.00  0.00    +0.000 N 
ATOM     11  O   UNL     1      42.872   2.285  11.538  0.00  0.00    +0.000 OA
ATOM     12  H   UNL     1      45.272   2.452   9.483  0.00  0.00    +0.000 HD
ATOM     13  H   UNL     1      43.909   1.341   9.442  0.00  0.00    +0.000 HD
ENDBRANCH   6   9
ENDBRANCH   1   3
BRANCH   1  15
ATOM     14  C   UNL     1      48.825   7.659  12.207  0.00  0.00    +0.000 C 
ATOM     15  C   UNL     1      47.647   7.848  12.816  0.00  0.00    +0.000 C 
BRANCH  14  20
ATOM     16  C   UNL     1      49.706  11.064  10.821  0.00  0.00    +0.000 A 
ATOM     17  C   UNL     1      51.087  10.935  10.627  0.00  0.00    +0.000 A 
ATOM     18  C   UNL     1      51.729   9.732  10.914  0.00  0.00    +0.000 A 
ATOM     19  C   UNL     1      51.000   8.651  11.413  0.00  0.00    +0.000 A 
ATOM     20  C   UNL     1      49.624   8.763  11.650  0.00  0.00    +0.000 A 
ATOM     21  C   UNL     1      48.983   9.965  11.321  0.00  0.00    +0.000 A 
BRANCH  16  22
ATOM     22  C   UNL     1      49.003  12.356  10.493  0.00  0.00    +0.000 C 
BRANCH  22  23
ATOM     23  N   UNL     1      48.078  12.195   9.374  0.00  0.00    +0.000 NA
ATOM     24  H   UNL     1      48.563  11.740   8.605  0.00  0.00    +0.000 HD
ATOM     25  H   UNL     1      47.809  13.119   9.039  0.00  0.00    +0.000 HD
ENDBRANCH  22  23
ENDBRANCH  16  22
ENDBRANCH  14  20
ENDBRANCH   1  15
TORSDOF 6
ENDMDL
