MODEL 1
REMARK VINA RESULT:    -7.784      0.000      0.000
REMARK INTER + INTRA:         -12.416
REMARK INTER:                 -10.969
REMARK INTRA:                  -1.447
REMARK UNBOUND:                -1.447
REMARK  Name = 
REMARK  8 active torsions:
REMARK  status: ('A' for Active; 'I' for Inactive)
REMARK    1  A    between atoms: C_1  and  N_2
REMARK    2  A    between atoms: N_2  and  C_3
REMARK    3  A    between atoms: C_3  and  C_4
REMARK    4  A    between atoms: C_7  and  C_8
REMARK    5  A    between atoms: C_8  and  C_9
REMARK    6  A    between atoms: C_9  and  N_10
REMARK    7  A    between atoms: N_10  and  C_11
REMARK    8  A    between atoms: C_19  and  C_21
REMARK                            x       y       z     vdW  Elec       q    Type
REMARK                         _______ _______ _______ _____ _____    ______ ____
ROOT
ATOM      1  C   UNL     1      47.717   7.767  13.490  0.00  0.00    +0.000 C 
ENDROOT
BRANCH   1   2
ATOM      2  C   UNL     1      46.951   6.550  13.067  0.00  0.00    +0.000 A 
ATOM      3  C   UNL     1      46.162   6.600  11.912  0.00  0.00    +0.000 A 
ATOM      4  C   UNL     1      45.417   5.488  11.539  0.00  0.00    +0.000 A 
ATOM      5  C   UNL     1      45.472   4.314  12.300  0.00  0.00    +0.000 A 
ATOM      6  C   UNL     1      46.257   4.281  13.461  0.00  0.00    +0.000 A 
ATOM      7  C   UNL     1      46.995   5.396  13.840  0.00  0.00    +0.000 A 
BRANCH   5   8
ATOM      8  C   UNL     1      44.668   3.092  11.943  0.00  0.00    +0.000 C 
BRANCH   8   9
ATOM      9  C   UNL     1      44.033   3.086  10.548  0.00  0.00    +0.000 C 
BRANCH   9  10
ATOM     10  N   UNL     1      44.482   1.960   9.715  0.00  0.00    +0.000 NA
ATOM     11  H   UNL     1      43.713   1.616   9.142  0.00  0.00    +0.000 HD
BRANCH  10  12
ATOM     12  C   UNL     1      45.641   2.311   8.888  0.00  0.00    +0.000 C 
ATOM     13  C   UNL     1      45.334   3.474   7.932  0.00  0.00    +0.000 C 
ATOM     14  C   UNL     1      46.537   3.810   7.060  0.00  0.00    +0.000 C 
ATOM     15  C   UNL     1      47.007   2.591   6.279  0.00  0.00    +0.000 C 
ATOM     16  C   UNL     1      47.312   1.419   7.206  0.00  0.00    +0.000 C 
ATOM     17  C   UNL     1      46.115   1.076   8.099  0.00  0.00    +0.000 C 
ENDBRANCH  10  12
ENDBRANCH   9  10
ENDBRANCH   8   9
ENDBRANCH   5   8
ENDBRANCH   1   2
BRANCH   1  19
ATOM     18  C   UNL     1      49.909   7.329  12.303  0.00  0.00    +0.000 C 
ATOM     19  N   UNL     1      49.175   7.646  13.523  0.00  0.00    +0.000 N 
ATOM     20  C   UNL     1      49.943   8.148  14.586  0.00  0.00    +0.000 C 
ATOM     21  O   UNL     1      51.162   8.281  14.482  0.00  0.00    +0.000 OA
BRANCH  20  22
ATOM     22  C   UNL     1      49.278   8.483  15.855  0.00  0.00    +0.000 A 
ATOM     23  C   UNL     1      48.848   9.755  16.202  0.00  0.00    +0.000 A 
ATOM     24  S   UNL     1      48.063   9.825  17.714  0.00  0.00    +0.000 S 
ATOM     25  C   UNL     1      48.148   8.138  17.890  0.00  0.00    +0.000 A 
ATOM     26  N   UNL     1      47.552   7.519  18.941  0.00  0.00    +0.000 NA
ATOM     27  C   UNL     1      47.642   6.233  18.913  0.00  0.00    +0.000 A 
ATOM     28  N   UNL     1      48.307   5.516  17.953  0.00  0.00    +0.000 N 
ATOM     29  C   UNL     1      49.047   6.104  16.950  0.00  0.00    +0.000 A 
ATOM     30  O   UNL     1      49.831   5.447  16.273  0.00  0.00    +0.000 OA
ATOM     31  C   UNL     1      48.858   7.544  16.864  0.00  0.00    +0.000 A 
ATOM     32  H   UNL     1      48.402   4.511  18.032  0.00  0.00    +0.000 HD
ENDBRANCH  20  22
ENDBRANCH   1  19
TORSDOF 7
ENDMDL
MODEL 2
REMARK VINA RESULT:    -7.421      1.792      2.419
REMARK INTER + INTRA:         -11.905
REMARK INTER:                 -10.747
REMARK INTRA:                  -1.158
REMARK UNBOUND:                -1.447
REMARK  Name = 
REMARK  8 active torsions:
REMARK  status: ('A' for Active; 'I' for Inactive)
REMARK    1  A    between atoms: C_1  and  N_2
REMARK    2  A    between atoms: N_2  and  C_3
REMARK    3  A    between atoms: C_3  and  C_4
REMARK    4  A    between atoms: C_7  and  C_8
REMARK    5  A    between atoms: C_8  and  C_9
REMARK    6  A    between atoms: C_9  and  N_10
REMARK    7  A    between atoms: N_10  and  C_11
REMARK    8  A    between atoms: C_19  and  C_21
REMARK                            x       y       z     vdW  Elec       q    Type
REMARK                         _______ _______ _______ _____ _____    ______ ____
ROOT
ATOM      1  C   UNL     1      48.674   6.905  13.346  0.00  0.00    +0.000 C 
ENDROOT
BRANCH   1   2
ATOM      2  C   UNL     1      47.512   6.040  12.960  0.00  0.00    +0.000 A 
ATOM      3  C   UNL     1      47.196   4.923  13.742  0.00  0.00    +0.000 A 
ATOM      4  C   UNL     1      46.146   4.095  13.364  0.00  0.00    +0.000 A 
ATOM      5  C   UNL     1      45.393   4.387  12.221  0.00  0.00    +0.000 A 
ATOM      6  C   UNL     1      45.728   5.501  11.440  0.00  0.00    +0.000 A 
ATOM      7  C   UNL     1      46.783   6.325  11.811  0.00  0.00    +0.000 A 
BRANCH   5   8
ATOM      8  C   UNL     1      44.259   3.507  11.765  0.00  0.00    +0.000 C 
BRANCH   8   9
ATOM      9  C   UNL     1      44.092   3.352  10.249  0.00  0.00    +0.000 C 
BRANCH   9  10
ATOM     10  N   UNL     1      44.683   2.110   9.728  0.00  0.00    +0.000 NA
ATOM     11  H   UNL     1      43.968   1.542   9.276  0.00  0.00    +0.000 HD
BRANCH  10  12
ATOM     12  C   UNL     1      45.805   2.369   8.820  0.00  0.00    +0.000 C 
ATOM     13  C   UNL     1      45.476   3.468   7.799  0.00  0.00    +0.000 C 
ATOM     14  C   UNL     1      46.639   3.708   6.845  0.00  0.00    +0.000 C 
ATOM     15  C   UNL     1      47.038   2.425   6.132  0.00  0.00    +0.000 C 
ATOM     16  C   UNL     1      47.364   1.314   7.125  0.00  0.00    +0.000 C 
ATOM     17  C   UNL     1      46.208   1.069   8.099  0.00  0.00    +0.000 C 
ENDBRANCH  10  12
ENDBRANCH   9  10
ENDBRANCH   8   9
ENDBRANCH   5   8
ENDBRANCH   1   2
BRANCH   1  19
ATOM     18  C   UNL     1      47.165   8.839  13.974  0.00  0.00    +0.000 C 
ATOM     19  N   UNL     1      48.379   8.060  14.196  0.00  0.00    +0.000 N 
ATOM     20  C   UNL     1      49.021   8.265  15.428  0.00  0.00    +0.000 C 
ATOM     21  O   UNL     1      48.584   9.075  16.244  0.00  0.00    +0.000 OA
BRANCH  20  22
ATOM     22  C   UNL     1      50.257   7.525  15.723  0.00  0.00    +0.000 A 
ATOM     23  C   UNL     1      51.531   7.956  15.381  0.00  0.00    +0.000 A 
ATOM     24  S   UNL     1      52.773   6.912  15.903  0.00  0.00    +0.000 S 
ATOM     25  C   UNL     1      51.662   5.924  16.725  0.00  0.00    +0.000 A 
ATOM     26  N   UNL     1      52.088   4.886  17.489  0.00  0.00    +0.000 NA
ATOM     27  C   UNL     1      51.143   4.263  18.105  0.00  0.00    +0.000 A 
ATOM     28  N   UNL     1      49.809   4.559  17.993  0.00  0.00    +0.000 N 
ATOM     29  C   UNL     1      49.317   5.506  17.121  0.00  0.00    +0.000 A 
ATOM     30  O   UNL     1      48.121   5.564  16.858  0.00  0.00    +0.000 OA
ATOM     31  C   UNL     1      50.356   6.324  16.514  0.00  0.00    +0.000 A 
ATOM     32  H   UNL     1      49.112   3.982  18.447  0.00  0.00    +0.000 HD
ENDBRANCH  20  22
ENDBRANCH   1  19
TORSDOF 7
ENDMDL
MODEL 3
REMARK VINA RESULT:    -7.253      2.435      3.557
REMARK INTER + INTRA:         -11.669
REMARK INTER:                 -10.676
REMARK INTRA:                  -0.993
REMARK UNBOUND:                -1.447
REMARK  Name = 
REMARK  8 active torsions:
REMARK  status: ('A' for Active; 'I' for Inactive)
REMARK    1  A    between atoms: C_1  and  N_2
REMARK    2  A    between atoms: N_2  and  C_3
REMARK    3  A    between atoms: C_3  and  C_4
REMARK    4  A    between atoms: C_7  and  C_8
REMARK    5  A    between atoms: C_8  and  C_9
REMARK    6  A    between atoms: C_9  and  N_10
REMARK    7  A    between atoms: N_10  and  C_11
REMARK    8  A    between atoms: C_19  and  C_21
REMARK                            x       y       z     vdW  Elec       q    Type
REMARK                         _______ _______ _______ _____ _____    ______ ____
ROOT
ATOM      1  C   UNL     1      49.319   6.808  14.987  0.00  0.00    +0.000 C 
ENDROOT
BRANCH   1   2
ATOM      2  C   UNL     1      48.251   6.665  13.946  0.00  0.00    +0.000 A 
ATOM      3  C   UNL     1      48.163   7.609  12.916  0.00  0.00    +0.000 A 
ATOM      4  C   UNL     1      47.147   7.504  11.973  0.00  0.00    +0.000 A 
ATOM      5  C   UNL     1      46.231   6.448  12.036  0.00  0.00    +0.000 A 
ATOM      6  C   UNL     1      46.323   5.517  13.080  0.00  0.00    +0.000 A 
ATOM      7  C   UNL     1      47.332   5.626  14.029  0.00  0.00    +0.000 A 
BRANCH   5   8
ATOM      8  C   UNL     1      45.105   6.306  11.046  0.00  0.00    +0.000 C 
BRANCH   8   9
ATOM      9  C   UNL     1      45.058   4.988  10.263  0.00  0.00    +0.000 C 
BRANCH   9  10
ATOM     10  N   UNL     1      45.418   5.146   8.847  0.00  0.00    +0.000 NA
ATOM     11  H   UNL     1      46.285   5.673   8.759  0.00  0.00    +0.000 HD
BRANCH  10  12
ATOM     12  C   UNL     1      45.511   3.857   8.153  0.00  0.00    +0.000 C 
ATOM     13  C   UNL     1      45.548   2.677   9.136  0.00  0.00    +0.000 C 
ATOM     14  C   UNL     1      45.673   1.347   8.404  0.00  0.00    +0.000 C 
ATOM     15  C   UNL     1      46.901   1.327   7.505  0.00  0.00    +0.000 C 
ATOM     16  C   UNL     1      46.892   2.495   6.524  0.00  0.00    +0.000 C 
ATOM     17  C   UNL     1      46.755   3.839   7.244  0.00  0.00    +0.000 C 
ENDBRANCH  10  12
ENDBRANCH   9  10
ENDBRANCH   8   9
ENDBRANCH   5   8
ENDBRANCH   1   2
BRANCH   1  19
ATOM     18  C   UNL     1      48.731   8.923  16.246  0.00  0.00    +0.000 C 
ATOM     19  N   UNL     1      48.939   7.480  16.230  0.00  0.00    +0.000 N 
ATOM     20  C   UNL     1      48.434   6.777  17.336  0.00  0.00    +0.000 C 
ATOM     21  O   UNL     1      47.875   7.365  18.261  0.00  0.00    +0.000 OA
BRANCH  20  22
ATOM     22  C   UNL     1      48.612   5.318  17.401  0.00  0.00    +0.000 A 
ATOM     23  C   UNL     1      47.605   4.394  17.165  0.00  0.00    +0.000 A 
ATOM     24  S   UNL     1      48.124   2.773  17.260  0.00  0.00    +0.000 S 
ATOM     25  C   UNL     1      49.739   3.253  17.479  0.00  0.00    +0.000 A 
ATOM     26  N   UNL     1      50.736   2.334  17.523  0.00  0.00    +0.000 NA
ATOM     27  C   UNL     1      51.916   2.843  17.629  0.00  0.00    +0.000 A 
ATOM     28  N   UNL     1      52.183   4.183  17.734  0.00  0.00    +0.000 N 
ATOM     29  C   UNL     1      51.198   5.142  17.840  0.00  0.00    +0.000 A 
ATOM     30  O   UNL     1      51.464   6.287  18.191  0.00  0.00    +0.000 OA
ATOM     31  C   UNL     1      49.862   4.626  17.585  0.00  0.00    +0.000 A 
ATOM     32  H   UNL     1      53.128   4.511  17.890  0.00  0.00    +0.000 HD
ENDBRANCH  20  22
ENDBRANCH   1  19
TORSDOF 7
ENDMDL
MODEL 4
REMARK VINA RESULT:    -7.238      3.995      8.594
REMARK INTER + INTRA:         -11.647
REMARK INTER:                 -10.490
REMARK INTRA:                  -1.157
REMARK UNBOUND:                -1.447
REMARK  Name = 
REMARK  8 active torsions:
REMARK  status: ('A' for Active; 'I' for Inactive)
REMARK    1  A    between atoms: C_1  and  N_2
REMARK    2  A    between atoms: N_2  and  C_3
REMARK    3  A    between atoms: C_3  and  C_4
REMARK    4  A    between atoms: C_7  and  C_8
REMARK    5  A    between atoms: C_8  and  C_9
REMARK    6  A    between atoms: C_9  and  N_10
REMARK    7  A    between atoms: N_10  and  C_11
REMARK    8  A    between atoms: C_19  and  C_21
REMARK                            x       y       z     vdW  Elec       q    Type
REMARK                         _______ _______ _______ _____ _____    ______ ____
ROOT
ATOM      1  C   UNL     1      47.195   6.224  12.406  0.00  0.00    +0.000 C 
ENDROOT
BRANCH   1   2
ATOM      2  C   UNL     1      47.523   5.830  13.814  0.00  0.00    +0.000 A 
ATOM      3  C   UNL     1      46.978   4.655  14.345  0.00  0.00    +0.000 A 
ATOM      4  C   UNL     1      47.246   4.309  15.664  0.00  0.00    +0.000 A 
ATOM      5  C   UNL     1      48.074   5.116  16.452  0.00  0.00    +0.000 A 
ATOM      6  C   UNL     1      48.603   6.297  15.912  0.00  0.00    +0.000 A 
ATOM      7  C   UNL     1      48.329   6.649  14.596  0.00  0.00    +0.000 A 
BRANCH   5   8
ATOM      8  C   UNL     1      48.376   4.788  17.891  0.00  0.00    +0.000 C 
BRANCH   8   9
ATOM      9  C   UNL     1      49.860   4.749  18.277  0.00  0.00    +0.000 C 
BRANCH   9  10
ATOM     10  N   UNL     1      50.697   4.061  17.283  0.00  0.00    +0.000 NA
ATOM     11  H   UNL     1      51.252   4.737  16.760  0.00  0.00    +0.000 HD
BRANCH  10  12
ATOM     12  C   UNL     1      51.548   3.035  17.892  0.00  0.00    +0.000 C 
ATOM     13  C   UNL     1      53.039   3.398  17.801  0.00  0.00    +0.000 C 
ATOM     14  C   UNL     1      53.914   2.311  18.413  0.00  0.00    +0.000 C 
ATOM     15  C   UNL     1      53.656   0.963  17.755  0.00  0.00    +0.000 C 
ATOM     16  C   UNL     1      52.180   0.583  17.825  0.00  0.00    +0.000 C 
ATOM     17  C   UNL     1      51.286   1.671  17.225  0.00  0.00    +0.000 C 
ENDBRANCH  10  12
ENDBRANCH   9  10
ENDBRANCH   8   9
ENDBRANCH   5   8
ENDBRANCH   1   2
BRANCH   1  19
ATOM     18  C   UNL     1      46.296   8.587  12.288  0.00  0.00    +0.000 C 
ATOM     19  N   UNL     1      46.073   7.147  12.226  0.00  0.00    +0.000 N 
ATOM     20  C   UNL     1      44.852   6.740  11.664  0.00  0.00    +0.000 C 
ATOM     21  O   UNL     1      44.026   7.565  11.276  0.00  0.00    +0.000 OA
BRANCH  20  22
ATOM     22  C   UNL     1      44.547   5.304  11.576  0.00  0.00    +0.000 A 
ATOM     23  C   UNL     1      43.847   4.590  12.537  0.00  0.00    +0.000 A 
ATOM     24  S   UNL     1      43.600   2.952  12.134  0.00  0.00    +0.000 S 
ATOM     25  C   UNL     1      44.297   3.176  10.600  0.00  0.00    +0.000 A 
ATOM     26  N   UNL     1      44.305   2.171   9.688  0.00  0.00    +0.000 NA
ATOM     27  C   UNL     1      44.807   2.501   8.547  0.00  0.00    +0.000 A 
ATOM     28  N   UNL     1      45.337   3.730   8.252  0.00  0.00    +0.000 N 
ATOM     29  C   UNL     1      45.483   4.733   9.186  0.00  0.00    +0.000 A 
ATOM     30  O   UNL     1      46.188   5.711   8.961  0.00  0.00    +0.000 OA
ATOM     31  C   UNL     1      44.805   4.452  10.442  0.00  0.00    +0.000 A 
ATOM     32  H   UNL     1      45.784   3.899   7.359  0.00  0.00    +0.000 HD
ENDBRANCH  20  22
ENDBRANCH   1  19
TORSDOF 7
ENDMDL
MODEL 5
REMARK VINA RESULT:    -7.221      1.252      2.151
REMARK INTER + INTRA:         -11.624
REMARK INTER:                 -10.184
REMARK INTRA:                  -1.440
REMARK UNBOUND:                -1.447
REMARK  Name = 
REMARK  8 active torsions:
REMARK  status: ('A' for Active; 'I' for Inactive)
REMARK    1  A    between atoms: C_1  and  N_2
REMARK    2  A    between atoms: N_2  and  C_3
REMARK    3  A    between atoms: C_3  and  C_4
REMARK    4  A    between atoms: C_7  and  C_8
REMARK    5  A    between atoms: C_8  and  C_9
REMARK    6  A    between atoms: C_9  and  N_10
REMARK    7  A    between atoms: N_10  and  C_11
REMARK    8  A    between atoms: C_19  and  C_21
REMARK                            x       y       z     vdW  Elec       q    Type
REMARK                         _______ _______ _______ _____ _____    ______ ____
ROOT
ATOM      1  C   UNL     1      47.740   7.693  13.447  0.00  0.00    +0.000 C 
ENDROOT
BRANCH   1   2
ATOM      2  C   UNL     1      46.935   6.528  12.957  0.00  0.00    +0.000 A 
ATOM      3  C   UNL     1      46.308   6.602  11.707  0.00  0.00    +0.000 A 
ATOM      4  C   UNL     1      45.526   5.540  11.268  0.00  0.00    +0.000 A 
ATOM      5  C   UNL     1      45.383   4.394  12.058  0.00  0.00    +0.000 A 
ATOM      6  C   UNL     1      46.006   4.338  13.312  0.00  0.00    +0.000 A 
ATOM      7  C   UNL     1      46.781   5.402  13.756  0.00  0.00    +0.000 A 
BRANCH   5   8
ATOM      8  C   UNL     1      44.531   3.228  11.628  0.00  0.00    +0.000 C 
BRANCH   8   9
ATOM      9  C   UNL     1      44.221   3.135  10.129  0.00  0.00    +0.000 C 
BRANCH   9  10
ATOM     10  N   UNL     1      44.626   1.853   9.535  0.00  0.00    +0.000 NA
ATOM     11  H   UNL     1      43.818   1.240   9.433  0.00  0.00    +0.000 HD
BRANCH  10  12
ATOM     12  C   UNL     1      45.320   2.030   8.256  0.00  0.00    +0.000 C 
ATOM     13  C   UNL     1      46.480   1.036   8.090  0.00  0.00    +0.000 C 
ATOM     14  C   UNL     1      47.211   1.248   6.770  0.00  0.00    +0.000 C 
ATOM     15  C   UNL     1      47.717   2.678   6.646  0.00  0.00    +0.000 C 
ATOM     16  C   UNL     1      46.584   3.686   6.815  0.00  0.00    +0.000 C 
ATOM     17  C   UNL     1      45.832   3.478   8.132  0.00  0.00    +0.000 C 
ENDBRANCH  10  12
ENDBRANCH   9  10
ENDBRANCH   8   9
ENDBRANCH   5   8
ENDBRANCH   1   2
BRANCH   1  19
ATOM     18  C   UNL     1      49.941   7.719  12.197  0.00  0.00    +0.000 C 
ATOM     19  N   UNL     1      49.195   7.536  13.437  0.00  0.00    +0.000 N 
ATOM     20  C   UNL     1      49.957   7.551  14.617  0.00  0.00    +0.000 C 
ATOM     21  O   UNL     1      51.179   7.686  14.582  0.00  0.00    +0.000 OA
BRANCH  20  22
ATOM     22  C   UNL     1      49.280   7.364  15.909  0.00  0.00    +0.000 A 
ATOM     23  C   UNL     1      49.170   6.147  16.568  0.00  0.00    +0.000 A 
ATOM     24  S   UNL     1      48.378   6.251  18.073  0.00  0.00    +0.000 S 
ATOM     25  C   UNL     1      48.281   7.943  17.960  0.00  0.00    +0.000 A 
ATOM     26  N   UNL     1      47.797   8.681  18.991  0.00  0.00    +0.000 NA
ATOM     27  C   UNL     1      47.841   9.954  18.792  0.00  0.00    +0.000 A 
ATOM     28  N   UNL     1      48.287  10.551  17.642  0.00  0.00    +0.000 N 
ATOM     29  C   UNL     1      48.651   9.843  16.517  0.00  0.00    +0.000 A 
ATOM     30  O   UNL     1      48.793  10.402  15.435  0.00  0.00    +0.000 OA
ATOM     31  C   UNL     1      48.748   8.409  16.746  0.00  0.00    +0.000 A 
ATOM     32  H   UNL     1      48.225  11.554  17.523  0.00  0.00    +0.000 HD
ENDBRANCH  20  22
ENDBRANCH   1  19
TORSDOF 7
ENDMDL
MODEL 6
REMARK VINA RESULT:    -6.958      3.176      9.103
REMARK INTER + INTRA:         -11.253
REMARK INTER:                  -9.896
REMARK INTRA:                  -1.358
REMARK UNBOUND:                -1.447
REMARK  Name = 
REMARK  8 active torsions:
REMARK  status: ('A' for Active; 'I' for Inactive)
REMARK    1  A    between atoms: C_1  and  N_2
REMARK    2  A    between atoms: N_2  and  C_3
REMARK    3  A    between atoms: C_3  and  C_4
REMARK    4  A    between atoms: C_7  and  C_8
REMARK    5  A    between atoms: C_8  and  C_9
REMARK    6  A    between atoms: C_9  and  N_10
REMARK    7  A    between atoms: N_10  and  C_11
REMARK    8  A    between atoms: C_19  and  C_21
REMARK                            x       y       z     vdW  Elec       q    Type
REMARK                         _______ _______ _______ _____ _____    ______ ____
ROOT
ATOM      1  C   UNL     1      47.395   6.178  12.522  0.00  0.00    +0.000 C 
ENDROOT
BRANCH   1   2
ATOM      2  C   UNL     1      47.657   5.783  13.944  0.00  0.00    +0.000 A 
ATOM      3  C   UNL     1      47.032   4.644  14.467  0.00  0.00    +0.000 A 
ATOM      4  C   UNL     1      47.239   4.298  15.797  0.00  0.00    +0.000 A 
ATOM      5  C   UNL     1      48.084   5.067  16.604  0.00  0.00    +0.000 A 
ATOM      6  C   UNL     1      48.693   6.212  16.071  0.00  0.00    +0.000 A 
ATOM      7  C   UNL     1      48.480   6.565  14.745  0.00  0.00    +0.000 A 
BRANCH   5   8
ATOM      8  C   UNL     1      48.323   4.738  18.055  0.00  0.00    +0.000 C 
BRANCH   8   9
ATOM      9  C   UNL     1      47.660   5.671  19.076  0.00  0.00    +0.000 C 
BRANCH   9  10
ATOM     10  N   UNL     1      48.461   6.869  19.367  0.00  0.00    +0.000 NA
ATOM     11  H   UNL     1      49.323   6.859  18.823  0.00  0.00    +0.000 HD
BRANCH  10  12
ATOM     12  C   UNL     1      47.708   8.107  19.142  0.00  0.00    +0.000 C 
ATOM     13  C   UNL     1      48.494   9.109  18.281  0.00  0.00    +0.000 C 
ATOM     14  C   UNL     1      47.712  10.400  18.078  0.00  0.00    +0.000 C 
ATOM     15  C   UNL     1      47.334  11.030  19.411  0.00  0.00    +0.000 C 
ATOM     16  C   UNL     1      46.559  10.051  20.288  0.00  0.00    +0.000 C 
ATOM     17  C   UNL     1      47.326   8.742  20.492  0.00  0.00    +0.000 C 
ENDBRANCH  10  12
ENDBRANCH   9  10
ENDBRANCH   8   9
ENDBRANCH   5   8
ENDBRANCH   1   2
BRANCH   1  19
ATOM     18  C   UNL     1      46.694   8.602  12.318  0.00  0.00    +0.000 C 
ATOM     19  N   UNL     1      46.354   7.184  12.302  0.00  0.00    +0.000 N 
ATOM     20  C   UNL     1      45.108   6.860  11.741  0.00  0.00    +0.000 C 
ATOM     21  O   UNL     1      44.355   7.735  11.318  0.00  0.00    +0.000 OA
BRANCH  20  22
ATOM     22  C   UNL     1      44.687   5.451  11.697  0.00  0.00    +0.000 A 
ATOM     23  C   UNL     1      43.987   4.809  12.708  0.00  0.00    +0.000 A 
ATOM     24  S   UNL     1      43.591   3.191  12.350  0.00  0.00    +0.000 S 
ATOM     25  C   UNL     1      44.217   3.335  10.777  0.00  0.00    +0.000 A 
ATOM     26  N   UNL     1      44.096   2.320   9.886  0.00  0.00    +0.000 NA
ATOM     27  C   UNL     1      44.559   2.591   8.713  0.00  0.00    +0.000 A 
ATOM     28  N   UNL     1      45.166   3.770   8.366  0.00  0.00    +0.000 N 
ATOM     29  C   UNL     1      45.442   4.772   9.272  0.00  0.00    +0.000 A 
ATOM     30  O   UNL     1      46.208   5.687   8.990  0.00  0.00    +0.000 OA
ATOM     31  C   UNL     1      44.814   4.564  10.568  0.00  0.00    +0.000 A 
ATOM     32  H   UNL     1      45.574   3.889   7.447  0.00  0.00    +0.000 HD
ENDBRANCH  20  22
ENDBRANCH   1  19
TORSDOF 7
ENDMDL
MODEL 7
REMARK VINA RESULT:    -6.803      2.224      3.282
REMARK INTER + INTRA:         -11.035
REMARK INTER:                  -9.851
REMARK INTRA:                  -1.184
REMARK UNBOUND:                -1.447
REMARK  Name = 
REMARK  8 active torsions:
REMARK  status: ('A' for Active; 'I' for Inactive)
REMARK    1  A    between atoms: C_1  and  N_2
REMARK    2  A    between atoms: N_2  and  C_3
REMARK    3  A    between atoms: C_3  and  C_4
REMARK    4  A    between atoms: C_7  and  C_8
REMARK    5  A    between atoms: C_8  and  C_9
REMARK    6  A    between atoms: C_9  and  N_10
REMARK    7  A    between atoms: N_10  and  C_11
REMARK    8  A    between atoms: C_19  and  C_21
REMARK                            x       y       z     vdW  Elec       q    Type
REMARK                         _______ _______ _______ _____ _____    ______ ____
ROOT
ATOM      1  C   UNL     1      47.350   4.512  16.589  0.00  0.00    +0.000 C 
ENDROOT
BRANCH   1   2
ATOM      2  C   UNL     1      47.087   4.944  15.178  0.00  0.00    +0.000 A 
ATOM      3  C   UNL     1      46.167   4.231  14.400  0.00  0.00    +0.000 A 
ATOM      4  C   UNL     1      45.953   4.602  13.078  0.00  0.00    +0.000 A 
ATOM      5  C   UNL     1      46.633   5.696  12.532  0.00  0.00    +0.000 A 
ATOM      6  C   UNL     1      47.560   6.394  13.318  0.00  0.00    +0.000 A 
ATOM      7  C   UNL     1      47.783   6.019  14.637  0.00  0.00    +0.000 A 
BRANCH   5   8
ATOM      8  C   UNL     1      46.444   6.122  11.100  0.00  0.00    +0.000 C 
BRANCH   8   9
ATOM      9  C   UNL     1      45.372   5.363  10.307  0.00  0.00    +0.000 C 
BRANCH   9  10
ATOM     10  N   UNL     1      45.600   5.395   8.855  0.00  0.00    +0.000 NA
ATOM     11  H   UNL     1      46.489   5.846   8.646  0.00  0.00    +0.000 HD
BRANCH  10  12
ATOM     12  C   UNL     1      45.530   4.059   8.254  0.00  0.00    +0.000 C 
ATOM     13  C   UNL     1      45.412   2.957   9.318  0.00  0.00    +0.000 C 
ATOM     14  C   UNL     1      45.368   1.573   8.683  0.00  0.00    +0.000 C 
ATOM     15  C   UNL     1      46.587   1.333   7.804  0.00  0.00    +0.000 C 
ATOM     16  C   UNL     1      46.730   2.419   6.743  0.00  0.00    +0.000 C 
ATOM     17  C   UNL     1      46.764   3.818   7.365  0.00  0.00    +0.000 C 
ENDBRANCH  10  12
ENDBRANCH   9  10
ENDBRANCH   8   9
ENDBRANCH   5   8
ENDBRANCH   1   2
BRANCH   1  19
ATOM     18  C   UNL     1      48.669   2.372  16.295  0.00  0.00    +0.000 C 
ATOM     19  N   UNL     1      48.564   3.729  16.821  0.00  0.00    +0.000 N 
ATOM     20  C   UNL     1      49.770   4.320  17.231  0.00  0.00    +0.000 C 
ATOM     21  O   UNL     1      50.833   3.706  17.164  0.00  0.00    +0.000 OA
BRANCH  20  22
ATOM     22  C   UNL     1      49.747   5.684  17.783  0.00  0.00    +0.000 A 
ATOM     23  C   UNL     1      50.204   6.809  17.112  0.00  0.00    +0.000 A 
ATOM     24  S   UNL     1      50.000   8.259  17.984  0.00  0.00    +0.000 S 
ATOM     25  C   UNL     1      49.167   7.451  19.225  0.00  0.00    +0.000 A 
ATOM     26  N   UNL     1      48.612   8.142  20.253  0.00  0.00    +0.000 NA
ATOM     27  C   UNL     1      47.957   7.409  21.087  0.00  0.00    +0.000 A 
ATOM     28  N   UNL     1      47.843   6.045  21.007  0.00  0.00    +0.000 N 
ATOM     29  C   UNL     1      48.508   5.287  20.067  0.00  0.00    +0.000 A 
ATOM     30  O   UNL     1      48.592   4.068  20.181  0.00  0.00    +0.000 OA
ATOM     31  C   UNL     1      49.141   6.084  19.028  0.00  0.00    +0.000 A 
ATOM     32  H   UNL     1      47.376   5.522  21.737  0.00  0.00    +0.000 HD
ENDBRANCH  20  22
ENDBRANCH   1  19
TORSDOF 7
ENDMDL
MODEL 8
REMARK VINA RESULT:    -6.681      3.259      4.731
REMARK INTER + INTRA:         -10.862
REMARK INTER:                 -10.135
REMARK INTRA:                  -0.727
REMARK UNBOUND:                -1.447
REMARK  Name = 
REMARK  8 active torsions:
REMARK  status: ('A' for Active; 'I' for Inactive)
REMARK    1  A    between atoms: C_1  and  N_2
REMARK    2  A    between atoms: N_2  and  C_3
REMARK    3  A    between atoms: C_3  and  C_4
REMARK    4  A    between atoms: C_7  and  C_8
REMARK    5  A    between atoms: C_8  and  C_9
REMARK    6  A    between atoms: C_9  and  N_10
REMARK    7  A    between atoms: N_10  and  C_11
REMARK    8  A    between atoms: C_19  and  C_21
REMARK                            x       y       z     vdW  Elec       q    Type
REMARK                         _______ _______ _______ _____ _____    ______ ____
ROOT
ATOM      1  C   UNL     1      49.085   5.272  16.316  0.00  0.00    +0.000 C 
ENDROOT
BRANCH   1   2
ATOM      2  C   UNL     1      48.156   5.481  15.158  0.00  0.00    +0.000 A 
ATOM      3  C   UNL     1      47.316   4.437  14.753  0.00  0.00    +0.000 A 
ATOM      4  C   UNL     1      46.483   4.613  13.654  0.00  0.00    +0.000 A 
ATOM      5  C   UNL     1      46.467   5.834  12.969  0.00  0.00    +0.000 A 
ATOM      6  C   UNL     1      47.322   6.866  13.378  0.00  0.00    +0.000 A 
ATOM      7  C   UNL     1      48.161   6.688  14.471  0.00  0.00    +0.000 A 
BRANCH   5   8
ATOM      8  C   UNL     1      45.594   6.061  11.763  0.00  0.00    +0.000 C 
BRANCH   8   9
ATOM      9  C   UNL     1      44.464   5.047  11.547  0.00  0.00    +0.000 C 
BRANCH   9  10
ATOM     10  N   UNL     1      43.798   5.195  10.245  0.00  0.00    +0.000 NA
ATOM     11  H   UNL     1      43.989   6.115   9.852  0.00  0.00    +0.000 HD
BRANCH  10  12
ATOM     12  C   UNL     1      44.174   4.131   9.307  0.00  0.00    +0.000 C 
ATOM     13  C   UNL     1      44.324   2.773  10.010  0.00  0.00    +0.000 C 
ATOM     14  C   UNL     1      44.742   1.684   9.031  0.00  0.00    +0.000 C 
ATOM     15  C   UNL     1      46.032   2.054   8.314  0.00  0.00    +0.000 C 
ATOM     16  C   UNL     1      45.912   3.404   7.614  0.00  0.00    +0.000 C 
ATOM     17  C   UNL     1      45.480   4.508   8.583  0.00  0.00    +0.000 C 
ENDBRANCH  10  12
ENDBRANCH   9  10
ENDBRANCH   8   9
ENDBRANCH   5   8
ENDBRANCH   1   2
BRANCH   1  19
ATOM     18  C   UNL     1      47.022   5.154  17.778  0.00  0.00    +0.000 C 
ATOM     19  N   UNL     1      48.466   5.018  17.617  0.00  0.00    +0.000 N 
ATOM     20  C   UNL     1      49.132   4.324  18.641  0.00  0.00    +0.000 C 
ATOM     21  O   UNL     1      48.521   3.888  19.615  0.00  0.00    +0.000 OA
BRANCH  20  22
ATOM     22  C   UNL     1      50.591   4.153  18.558  0.00  0.00    +0.000 A 
ATOM     23  C   UNL     1      51.515   5.011  19.136  0.00  0.00    +0.000 A 
ATOM     24  S   UNL     1      53.134   4.525  18.917  0.00  0.00    +0.000 S 
ATOM     25  C   UNL     1      52.649   3.081  18.164  0.00  0.00    +0.000 A 
ATOM     26  N   UNL     1      53.562   2.139  17.816  0.00  0.00    +0.000 NA
ATOM     27  C   UNL     1      53.048   1.069  17.314  0.00  0.00    +0.000 A 
ATOM     28  N   UNL     1      51.710   0.874  17.092  0.00  0.00    +0.000 N 
ATOM     29  C   UNL     1      50.761   1.854  17.293  0.00  0.00    +0.000 A 
ATOM     30  O   UNL     1      49.625   1.738  16.846  0.00  0.00    +0.000 OA
ATOM     31  C   UNL     1      51.280   3.022  17.988  0.00  0.00    +0.000 A 
ATOM     32  H   UNL     1      51.380   0.039  16.625  0.00  0.00    +0.000 HD
ENDBRANCH  20  22
ENDBRANCH   1  19
TORSDOF 7
ENDMDL
MODEL 9
REMARK VINA RESULT:    -6.321      3.042      5.010
REMARK INTER + INTRA:         -10.355
REMARK INTER:                  -8.695
REMARK INTRA:                  -1.660
REMARK UNBOUND:                -1.447
REMARK  Name = 
REMARK  8 active torsions:
REMARK  status: ('A' for Active; 'I' for Inactive)
REMARK    1  A    between atoms: C_1  and  N_2
REMARK    2  A    between atoms: N_2  and  C_3
REMARK    3  A    between atoms: C_3  and  C_4
REMARK    4  A    between atoms: C_7  and  C_8
REMARK    5  A    between atoms: C_8  and  C_9
REMARK    6  A    between atoms: C_9  and  N_10
REMARK    7  A    between atoms: N_10  and  C_11
REMARK    8  A    between atoms: C_19  and  C_21
REMARK                            x       y       z     vdW  Elec       q    Type
REMARK                         _______ _______ _______ _____ _____    ______ ____
ROOT
ATOM      1  C   UNL     1      49.588   8.185  17.286  0.00  0.00    +0.000 C 
ENDROOT
BRANCH   1   2
ATOM      2  C   UNL     1      48.979   8.094  15.920  0.00  0.00    +0.000 A 
ATOM      3  C   UNL     1      48.225   9.167  15.430  0.00  0.00    +0.000 A 
ATOM      4  C   UNL     1      47.622   9.071  14.181  0.00  0.00    +0.000 A 
ATOM      5  C   UNL     1      47.787   7.917  13.406  0.00  0.00    +0.000 A 
ATOM      6  C   UNL     1      48.533   6.845  13.913  0.00  0.00    +0.000 A 
ATOM      7  C   UNL     1      49.129   6.937  15.165  0.00  0.00    +0.000 A 
BRANCH   5   8
ATOM      8  C   UNL     1      47.138   7.763  12.055  0.00  0.00    +0.000 C 
BRANCH   8   9
ATOM      9  C   UNL     1      45.606   7.824  12.032  0.00  0.00    +0.000 C 
BRANCH   9  10
ATOM     10  N   UNL     1      44.981   7.035  13.104  0.00  0.00    +0.000 NA
ATOM     11  H   UNL     1      44.210   7.554  13.521  0.00  0.00    +0.000 HD
BRANCH  10  12
ATOM     12  C   UNL     1      44.540   5.717  12.637  0.00  0.00    +0.000 C 
ATOM     13  C   UNL     1      45.608   4.637  12.873  0.00  0.00    +0.000 C 
ATOM     14  C   UNL     1      45.149   3.279  12.358  0.00  0.00    +0.000 C 
ATOM     15  C   UNL     1      44.780   3.346  10.884  0.00  0.00    +0.000 C 
ATOM     16  C   UNL     1      43.726   4.417  10.621  0.00  0.00    +0.000 C 
ATOM     17  C   UNL     1      44.167   5.787  11.144  0.00  0.00    +0.000 C 
ENDBRANCH  10  12
ENDBRANCH   9  10
ENDBRANCH   8   9
ENDBRANCH   5   8
ENDBRANCH   1   2
BRANCH   1  19
ATOM     18  C   UNL     1      47.680   8.791  18.834  0.00  0.00    +0.000 C 
ATOM     19  N   UNL     1      48.718   7.856  18.416  0.00  0.00    +0.000 N 
ATOM     20  C   UNL     1      48.599   6.548  18.913  0.00  0.00    +0.000 C 
ATOM     21  O   UNL     1      47.683   6.239  19.672  0.00  0.00    +0.000 OA
BRANCH  20  22
ATOM     22  C   UNL     1      49.613   5.547  18.546  0.00  0.00    +0.000 A 
ATOM     23  C   UNL     1      50.915   5.538  19.025  0.00  0.00    +0.000 A 
ATOM     24  S   UNL     1      51.844   4.224  18.464  0.00  0.00    +0.000 S 
ATOM     25  C   UNL     1      50.499   3.547  17.677  0.00  0.00    +0.000 A 
ATOM     26  N   UNL     1      50.584   2.333  17.077  0.00  0.00    +0.000 NA
ATOM     27  C   UNL     1      49.471   1.915  16.576  0.00  0.00    +0.000 A 
ATOM     28  N   UNL     1      48.295   2.619  16.588  0.00  0.00    +0.000 N 
ATOM     29  C   UNL     1      48.195   3.912  17.055  0.00  0.00    +0.000 A 
ATOM     30  O   UNL     1      47.206   4.597  16.816  0.00  0.00    +0.000 OA
ATOM     31  C   UNL     1      49.388   4.366  17.752  0.00  0.00    +0.000 A 
ATOM     32  H   UNL     1      47.476   2.264  16.110  0.00  0.00    +0.000 HD
ENDBRANCH  20  22
ENDBRANCH   1  19
TORSDOF 7
ENDMDL
