MODEL 1
REMARK VINA RESULT:    -7.434      0.000      0.000
REMARK INTER + INTRA:         -12.379
REMARK INTER:                 -11.345
REMARK INTRA:                  -1.034
REMARK UNBOUND:                -1.034
REMARK  Name = 
REMARK  11 active torsions:
REMARK  status: ('A' for Active; 'I' for Inactive)
REMARK    1  A    between atoms: C_1  and  C_2
REMARK    2  A    between atoms: C_2  and  C_3
REMARK    3  A    between atoms: C_2  and  C_4
REMARK    4  A    between atoms: C_4  and  N_5
REMARK    5  A    between atoms: N_5  and  C_6
REMARK    6  A    between atoms: N_5  and  C_17
REMARK    7  A    between atoms: C_6  and  C_7
REMARK    8  A    between atoms: C_7  and  C_8
REMARK    9  A    between atoms: C_11  and  C_12
REMARK   10  A    between atoms: C_21  and  O_22
REMARK   11  A    between atoms: O_22  and  C_23
REMARK                            x       y       z     vdW  Elec       q    Type
REMARK                         _______ _______ _______ _____ _____    ______ ____
ROOT
ATOM      1  N   UNL     1      45.092   5.707  11.762  0.00  0.00    +0.000 N 
ENDROOT
BRANCH   1   2
ATOM      2  C   UNL     1      44.989   4.658  10.837  0.00  0.00    +0.000 A 
ATOM      3  C   UNL     1      44.221   3.504  11.085  0.00  0.00    +0.000 A 
ATOM      4  C   UNL     1      44.050   2.493  10.129  0.00  0.00    +0.000 A 
ATOM      5  C   UNL     1      44.678   2.584   8.893  0.00  0.00    +0.000 A 
ATOM      6  C   UNL     1      45.476   3.686   8.627  0.00  0.00    +0.000 A 
ATOM      7  C   UNL     1      45.609   4.710   9.577  0.00  0.00    +0.000 A 
BRANCH   6   8
ATOM      8  O   UNL     1      46.142   3.889   7.443  0.00  0.00    +0.000 OA
BRANCH   8   9
ATOM      9  C   UNL     1      46.511   2.734   6.653  0.00  0.00    +0.000 C 
ATOM     10  C   UNL     1      47.792   1.966   7.039  0.00  0.00    +0.000 C 
ATOM     11  N   UNL     1      48.262   2.031   5.644  0.00  0.00    +0.000 NA
ATOM     12  C   UNL     1      47.254   3.059   5.341  0.00  0.00    +0.000 C 
ATOM     13  H   UNL     1      48.140   1.163   5.123  0.00  0.00    +0.000 HD
ENDBRANCH   8   9
ENDBRANCH   6   8
ENDBRANCH   1   2
BRANCH   1  14
ATOM     14  C   UNL     1      45.195   7.103  11.284  0.00  0.00    +0.000 C 
BRANCH  14  16
ATOM     15  C   UNL     1      47.299   8.322  12.109  0.00  0.00    +0.000 C 
ATOM     16  C   UNL     1      45.797   8.107  12.283  0.00  0.00    +0.000 C 
ATOM     17  C   UNL     1      45.083   9.460  12.115  0.00  0.00    +0.000 C 
ENDBRANCH  14  16
ENDBRANCH   1  14
BRANCH   1  18
ATOM     18  C   UNL     1      45.433   5.382  13.168  0.00  0.00    +0.000 C 
BRANCH  18  19
ATOM     19  C   UNL     1      46.860   4.873  13.429  0.00  0.00    +0.000 C 
BRANCH  19  20
ATOM     20  C   UNL     1      47.299   4.767  14.874  0.00  0.00    +0.000 A 
ATOM     21  C   UNL     1      48.087   5.752  15.463  0.00  0.00    +0.000 A 
ATOM     22  C   UNL     1      48.657   5.525  16.715  0.00  0.00    +0.000 A 
ATOM     23  C   UNL     1      48.409   4.323  17.368  0.00  0.00    +0.000 A 
ATOM     24  C   UNL     1      47.587   3.401  16.737  0.00  0.00    +0.000 A 
ATOM     25  N   UNL     1      47.030   3.600  15.512  0.00  0.00    +0.000 NA
BRANCH  23  26
ATOM     26  C   UNL     1      49.029   3.980  18.667  0.00  0.00    +0.000 C 
ATOM     27  N   UNL     1      48.278   3.269  19.563  0.00  0.00    +0.000 N 
ATOM     28  O   UNL     1      50.172   4.327  18.939  0.00  0.00    +0.000 OA
ATOM     29  H   UNL     1      47.431   2.784  19.308  0.00  0.00    +0.000 HD
ATOM     30  H   UNL     1      48.734   2.996  20.425  0.00  0.00    +0.000 HD
ENDBRANCH  23  26
ENDBRANCH  19  20
ENDBRANCH  18  19
ENDBRANCH   1  18
TORSDOF 9
ENDMDL
MODEL 2
REMARK VINA RESULT:    -7.090      1.663      8.260
REMARK INTER + INTRA:         -11.854
REMARK INTER:                 -11.561
REMARK INTRA:                  -0.294
REMARK UNBOUND:                -1.034
REMARK  Name = 
REMARK  11 active torsions:
REMARK  status: ('A' for Active; 'I' for Inactive)
REMARK    1  A    between atoms: C_1  and  C_2
REMARK    2  A    between atoms: C_2  and  C_3
REMARK    3  A    between atoms: C_2  and  C_4
REMARK    4  A    between atoms: C_4  and  N_5
REMARK    5  A    between atoms: N_5  and  C_6
REMARK    6  A    between atoms: N_5  and  C_17
REMARK    7  A    between atoms: C_6  and  C_7
REMARK    8  A    between atoms: C_7  and  C_8
REMARK    9  A    between atoms: C_11  and  C_12
REMARK   10  A    between atoms: C_21  and  O_22
REMARK   11  A    between atoms: O_22  and  C_23
REMARK                            x       y       z     vdW  Elec       q    Type
REMARK                         _______ _______ _______ _____ _____    ______ ____
ROOT
ATOM      1  N   UNL     1      45.847   5.904  12.034  0.00  0.00    +0.000 N 
ENDROOT
BRANCH   1   2
ATOM      2  C   UNL     1      46.678   5.774  13.157  0.00  0.00    +0.000 A 
ATOM      3  C   UNL     1      47.596   6.771  13.538  0.00  0.00    +0.000 A 
ATOM      4  C   UNL     1      48.367   6.679  14.704  0.00  0.00    +0.000 A 
ATOM      5  C   UNL     1      48.274   5.558  15.519  0.00  0.00    +0.000 A 
ATOM      6  C   UNL     1      47.412   4.536  15.156  0.00  0.00    +0.000 A 
ATOM      7  C   UNL     1      46.615   4.656  14.006  0.00  0.00    +0.000 A 
BRANCH   6   8
ATOM      8  O   UNL     1      47.230   3.384  15.881  0.00  0.00    +0.000 OA
BRANCH   8   9
ATOM      9  C   UNL     1      47.019   3.495  17.309  0.00  0.00    +0.000 C 
ATOM     10  C   UNL     1      47.171   4.884  17.962  0.00  0.00    +0.000 C 
ATOM     11  N   UNL     1      48.072   4.316  18.980  0.00  0.00    +0.000 NA
ATOM     12  C   UNL     1      48.231   3.095  18.175  0.00  0.00    +0.000 C 
ATOM     13  H   UNL     1      47.630   4.161  19.886  0.00  0.00    +0.000 HD
ENDBRANCH   8   9
ENDBRANCH   6   8
ENDBRANCH   1   2
BRANCH   1  14
ATOM     14  C   UNL     1      45.808   7.182  11.291  0.00  0.00    +0.000 C 
BRANCH  14  16
ATOM     15  C   UNL     1      45.702   9.551  12.273  0.00  0.00    +0.000 C 
ATOM     16  C   UNL     1      44.931   8.286  11.906  0.00  0.00    +0.000 C 
ATOM     17  C   UNL     1      43.825   8.656  10.902  0.00  0.00    +0.000 C 
ENDBRANCH  14  16
ENDBRANCH   1  14
BRANCH   1  18
ATOM     18  C   UNL     1      44.786   4.892  11.816  0.00  0.00    +0.000 C 
BRANCH  18  19
ATOM     19  C   UNL     1      44.154   4.851  10.415  0.00  0.00    +0.000 C 
BRANCH  19  20
ATOM     20  C   UNL     1      44.835   3.982   9.379  0.00  0.00    +0.000 A 
ATOM     21  C   UNL     1      44.857   2.595   9.501  0.00  0.00    +0.000 A 
ATOM     22  C   UNL     1      45.672   1.839   8.661  0.00  0.00    +0.000 A 
ATOM     23  C   UNL     1      46.437   2.483   7.694  0.00  0.00    +0.000 A 
ATOM     24  C   UNL     1      46.340   3.864   7.608  0.00  0.00    +0.000 A 
ATOM     25  N   UNL     1      45.558   4.620   8.424  0.00  0.00    +0.000 NA
BRANCH  23  26
ATOM     26  C   UNL     1      47.376   1.759   6.810  0.00  0.00    +0.000 C 
ATOM     27  N   UNL     1      48.437   2.458   6.300  0.00  0.00    +0.000 N 
ATOM     28  O   UNL     1      47.210   0.578   6.533  0.00  0.00    +0.000 OA
ATOM     29  H   UNL     1      48.732   3.352   6.662  0.00  0.00    +0.000 HD
ATOM     30  H   UNL     1      49.099   1.936   5.740  0.00  0.00    +0.000 HD
ENDBRANCH  23  26
ENDBRANCH  19  20
ENDBRANCH  18  19
ENDBRANCH   1  18
TORSDOF 9
ENDMDL
MODEL 3
REMARK VINA RESULT:    -7.018      1.786      8.665
REMARK INTER + INTRA:         -11.745
REMARK INTER:                 -11.100
REMARK INTRA:                  -0.646
REMARK UNBOUND:                -1.034
REMARK  Name = 
REMARK  11 active torsions:
REMARK  status: ('A' for Active; 'I' for Inactive)
REMARK    1  A    between atoms: C_1  and  C_2
REMARK    2  A    between atoms: C_2  and  C_3
REMARK    3  A    between atoms: C_2  and  C_4
REMARK    4  A    between atoms: C_4  and  N_5
REMARK    5  A    between atoms: N_5  and  C_6
REMARK    6  A    between atoms: N_5  and  C_17
REMARK    7  A    between atoms: C_6  and  C_7
REMARK    8  A    between atoms: C_7  and  C_8
REMARK    9  A    between atoms: C_11  and  C_12
REMARK   10  A    between atoms: C_21  and  O_22
REMARK   11  A    between atoms: O_22  and  C_23
REMARK                            x       y       z     vdW  Elec       q    Type
REMARK                         _______ _______ _______ _____ _____    ______ ____
ROOT
ATOM      1  N   UNL     1      45.958   5.146  12.331  0.00  0.00    +0.000 N 
ENDROOT
BRANCH   1   2
ATOM      2  C   UNL     1      46.957   5.643  13.181  0.00  0.00    +0.000 A 
ATOM      3  C   UNL     1      47.896   6.605  12.764  0.00  0.00    +0.000 A 
ATOM      4  C   UNL     1      48.841   7.163  13.635  0.00  0.00    +0.000 A 
ATOM      5  C   UNL     1      48.907   6.746  14.958  0.00  0.00    +0.000 A 
ATOM      6  C   UNL     1      48.026   5.769  15.397  0.00  0.00    +0.000 A 
ATOM      7  C   UNL     1      47.058   5.246  14.526  0.00  0.00    +0.000 A 
BRANCH   6   8
ATOM      8  O   UNL     1      47.991   5.281  16.680  0.00  0.00    +0.000 OA
BRANCH   8   9
ATOM      9  C   UNL     1      49.113   4.497  17.150  0.00  0.00    +0.000 C 
ATOM     10  C   UNL     1      48.982   2.960  17.143  0.00  0.00    +0.000 C 
ATOM     11  N   UNL     1      49.426   2.907  18.547  0.00  0.00    +0.000 NA
ATOM     12  C   UNL     1      49.206   4.355  18.683  0.00  0.00    +0.000 C 
ATOM     13  H   UNL     1      50.398   2.622  18.664  0.00  0.00    +0.000 HD
ENDBRANCH   8   9
ENDBRANCH   6   8
ENDBRANCH   1   2
BRANCH   1  14
ATOM     14  C   UNL     1      45.496   3.749  12.476  0.00  0.00    +0.000 C 
BRANCH  14  16
ATOM     15  C   UNL     1      43.301   4.885  13.172  0.00  0.00    +0.000 C 
ATOM     16  C   UNL     1      44.066   3.573  13.017  0.00  0.00    +0.000 C 
ATOM     17  C   UNL     1      43.284   2.657  12.058  0.00  0.00    +0.000 C 
ENDBRANCH  14  16
ENDBRANCH   1  14
BRANCH   1  18
ATOM     18  C   UNL     1      45.629   5.907  11.102  0.00  0.00    +0.000 C 
BRANCH  18  19
ATOM     19  C   UNL     1      44.658   5.236  10.117  0.00  0.00    +0.000 C 
BRANCH  19  20
ATOM     20  C   UNL     1      45.267   4.377   9.029  0.00  0.00    +0.000 A 
ATOM     21  C   UNL     1      45.039   3.004   8.980  0.00  0.00    +0.000 A 
ATOM     22  C   UNL     1      45.782   2.211   8.108  0.00  0.00    +0.000 A 
ATOM     23  C   UNL     1      46.727   2.808   7.280  0.00  0.00    +0.000 A 
ATOM     24  C   UNL     1      46.877   4.185   7.359  0.00  0.00    +0.000 A 
ATOM     25  N   UNL     1      46.168   4.975   8.209  0.00  0.00    +0.000 NA
BRANCH  23  26
ATOM     26  C   UNL     1      47.600   2.028   6.377  0.00  0.00    +0.000 C 
ATOM     27  N   UNL     1      48.119   2.667   5.284  0.00  0.00    +0.000 N 
ATOM     28  O   UNL     1      47.848   0.847   6.591  0.00  0.00    +0.000 OA
ATOM     29  H   UNL     1      48.121   3.671   5.184  0.00  0.00    +0.000 HD
ATOM     30  H   UNL     1      48.756   2.136   4.704  0.00  0.00    +0.000 HD
ENDBRANCH  23  26
ENDBRANCH  19  20
ENDBRANCH  18  19
ENDBRANCH   1  18
TORSDOF 9
ENDMDL
MODEL 4
REMARK VINA RESULT:    -6.984      2.228      8.283
REMARK INTER + INTRA:         -11.693
REMARK INTER:                 -10.629
REMARK INTRA:                  -1.064
REMARK UNBOUND:                -1.034
REMARK  Name = 
REMARK  11 active torsions:
REMARK  status: ('A' for Active; 'I' for Inactive)
REMARK    1  A    between atoms: C_1  and  C_2
REMARK    2  A    between atoms: C_2  and  C_3
REMARK    3  A    between atoms: C_2  and  C_4
REMARK    4  A    between atoms: C_4  and  N_5
REMARK    5  A    between atoms: N_5  and  C_6
REMARK    6  A    between atoms: N_5  and  C_17
REMARK    7  A    between atoms: C_6  and  C_7
REMARK    8  A    between atoms: C_7  and  C_8
REMARK    9  A    between atoms: C_11  and  C_12
REMARK   10  A    between atoms: C_21  and  O_22
REMARK   11  A    between atoms: O_22  and  C_23
REMARK                            x       y       z     vdW  Elec       q    Type
REMARK                         _______ _______ _______ _____ _____    ______ ____
ROOT
ATOM      1  N   UNL     1      45.324   6.462  11.984  0.00  0.00    +0.000 N 
ENDROOT
BRANCH   1   2
ATOM      2  C   UNL     1      46.660   6.621  12.382  0.00  0.00    +0.000 A 
ATOM      3  C   UNL     1      47.619   7.261  11.575  0.00  0.00    +0.000 A 
ATOM      4  C   UNL     1      48.932   7.494  12.005  0.00  0.00    +0.000 A 
ATOM      5  C   UNL     1      49.347   7.056  13.257  0.00  0.00    +0.000 A 
ATOM      6  C   UNL     1      48.443   6.384  14.065  0.00  0.00    +0.000 A 
ATOM      7  C   UNL     1      47.120   6.192  13.639  0.00  0.00    +0.000 A 
BRANCH   6   8
ATOM      8  O   UNL     1      48.734   5.910  15.321  0.00  0.00    +0.000 OA
BRANCH   8   9
ATOM      9  C   UNL     1      49.737   6.600  16.103  0.00  0.00    +0.000 C 
ATOM     10  C   UNL     1      50.218   5.943  17.414  0.00  0.00    +0.000 C 
ATOM     11  N   UNL     1      49.979   7.201  18.143  0.00  0.00    +0.000 NA
ATOM     12  C   UNL     1      49.189   7.718  17.014  0.00  0.00    +0.000 C 
ATOM     13  H   UNL     1      50.825   7.736  18.336  0.00  0.00    +0.000 HD
ENDBRANCH   8   9
ENDBRANCH   6   8
ENDBRANCH   1   2
BRANCH   1  14
ATOM     14  C   UNL     1      44.354   7.555  12.208  0.00  0.00    +0.000 C 
BRANCH  14  16
ATOM     15  C   UNL     1      43.209   9.275  10.685  0.00  0.00    +0.000 C 
ATOM     16  C   UNL     1      44.517   8.788  11.303  0.00  0.00    +0.000 C 
ATOM     17  C   UNL     1      45.127   9.933  12.132  0.00  0.00    +0.000 C 
ENDBRANCH  14  16
ENDBRANCH   1  14
BRANCH   1  18
ATOM     18  C   UNL     1      44.838   5.100  11.659  0.00  0.00    +0.000 C 
BRANCH  18  19
ATOM     19  C   UNL     1      44.142   4.925  10.300  0.00  0.00    +0.000 C 
BRANCH  19  20
ATOM     20  C   UNL     1      44.831   4.039   9.284  0.00  0.00    +0.000 A 
ATOM     21  C   UNL     1      44.790   2.651   9.389  0.00  0.00    +0.000 A 
ATOM     22  C   UNL     1      45.609   1.871   8.576  0.00  0.00    +0.000 A 
ATOM     23  C   UNL     1      46.440   2.492   7.650  0.00  0.00    +0.000 A 
ATOM     24  C   UNL     1      46.405   3.877   7.577  0.00  0.00    +0.000 A 
ATOM     25  N   UNL     1      45.620   4.656   8.368  0.00  0.00    +0.000 NA
BRANCH  23  26
ATOM     26  C   UNL     1      47.387   1.739   6.798  0.00  0.00    +0.000 C 
ATOM     27  N   UNL     1      48.417   2.433   6.224  0.00  0.00    +0.000 N 
ATOM     28  O   UNL     1      47.251   0.537   6.603  0.00  0.00    +0.000 OA
ATOM     29  H   UNL     1      48.691   3.357   6.522  0.00  0.00    +0.000 HD
ATOM     30  H   UNL     1      49.086   1.894   5.687  0.00  0.00    +0.000 HD
ENDBRANCH  23  26
ENDBRANCH  19  20
ENDBRANCH  18  19
ENDBRANCH   1  18
TORSDOF 9
ENDMDL
MODEL 5
REMARK VINA RESULT:    -6.761      2.957      7.662
REMARK INTER + INTRA:         -11.353
REMARK INTER:                  -9.775
REMARK INTRA:                  -1.578
REMARK UNBOUND:                -1.034
REMARK  Name = 
REMARK  11 active torsions:
REMARK  status: ('A' for Active; 'I' for Inactive)
REMARK    1  A    between atoms: C_1  and  C_2
REMARK    2  A    between atoms: C_2  and  C_3
REMARK    3  A    between atoms: C_2  and  C_4
REMARK    4  A    between atoms: C_4  and  N_5
REMARK    5  A    between atoms: N_5  and  C_6
REMARK    6  A    between atoms: N_5  and  C_17
REMARK    7  A    between atoms: C_6  and  C_7
REMARK    8  A    between atoms: C_7  and  C_8
REMARK    9  A    between atoms: C_11  and  C_12
REMARK   10  A    between atoms: C_21  and  O_22
REMARK   11  A    between atoms: O_22  and  C_23
REMARK                            x       y       z     vdW  Elec       q    Type
REMARK                         _______ _______ _______ _____ _____    ______ ____
ROOT
ATOM      1  N   UNL     1      48.054   8.184  12.561  0.00  0.00    +0.000 N 
ENDROOT
BRANCH   1   2
ATOM      2  C   UNL     1      48.413   8.001  13.905  0.00  0.00    +0.000 A 
ATOM      3  C   UNL     1      48.605   9.078  14.790  0.00  0.00    +0.000 A 
ATOM      4  C   UNL     1      48.883   8.894  16.152  0.00  0.00    +0.000 A 
ATOM      5  C   UNL     1      49.016   7.613  16.673  0.00  0.00    +0.000 A 
ATOM      6  C   UNL     1      48.874   6.527  15.824  0.00  0.00    +0.000 A 
ATOM      7  C   UNL     1      48.558   6.722  14.471  0.00  0.00    +0.000 A 
BRANCH   6   8
ATOM      8  O   UNL     1      48.978   5.217  16.223  0.00  0.00    +0.000 OA
BRANCH   8   9
ATOM      9  C   UNL     1      47.767   4.430  16.326  0.00  0.00    +0.000 C 
ATOM     10  C   UNL     1      46.985   4.467  17.655  0.00  0.00    +0.000 C 
ATOM     11  N   UNL     1      46.954   2.995  17.689  0.00  0.00    +0.000 NA
ATOM     12  C   UNL     1      47.992   2.938  16.647  0.00  0.00    +0.000 C 
ATOM     13  H   UNL     1      46.061   2.592  17.407  0.00  0.00    +0.000 HD
ENDBRANCH   8   9
ENDBRANCH   6   8
ENDBRANCH   1   2
BRANCH   1  14
ATOM     14  C   UNL     1      49.004   7.819  11.489  0.00  0.00    +0.000 C 
BRANCH  14  16
ATOM     15  C   UNL     1      51.458   7.718  10.739  0.00  0.00    +0.000 C 
ATOM     16  C   UNL     1      50.421   8.404  11.626  0.00  0.00    +0.000 C 
ATOM     17  C   UNL     1      50.375   9.899  11.266  0.00  0.00    +0.000 C 
ENDBRANCH  14  16
ENDBRANCH   1  14
BRANCH   1  18
ATOM     18  C   UNL     1      46.885   9.042  12.250  0.00  0.00    +0.000 C 
BRANCH  18  19
ATOM     19  C   UNL     1      45.499   8.449  12.552  0.00  0.00    +0.000 C 
BRANCH  19  20
ATOM     20  C   UNL     1      45.290   6.987  12.220  0.00  0.00    +0.000 A 
ATOM     21  C   UNL     1      45.471   6.506  10.926  0.00  0.00    +0.000 A 
ATOM     22  C   UNL     1      45.061   5.214  10.604  0.00  0.00    +0.000 A 
ATOM     23  C   UNL     1      44.497   4.413  11.591  0.00  0.00    +0.000 A 
ATOM     24  C   UNL     1      44.378   4.945  12.866  0.00  0.00    +0.000 A 
ATOM     25  N   UNL     1      44.763   6.206  13.198  0.00  0.00    +0.000 NA
BRANCH  23  26
ATOM     26  C   UNL     1      43.977   3.056  11.314  0.00  0.00    +0.000 C 
ATOM     27  N   UNL     1      43.643   2.271  12.384  0.00  0.00    +0.000 N 
ATOM     28  O   UNL     1      43.855   2.641  10.167  0.00  0.00    +0.000 OA
ATOM     29  H   UNL     1      43.523   2.635  13.317  0.00  0.00    +0.000 HD
ATOM     30  H   UNL     1      43.240   1.365  12.177  0.00  0.00    +0.000 HD
ENDBRANCH  23  26
ENDBRANCH  19  20
ENDBRANCH  18  19
ENDBRANCH   1  18
TORSDOF 9
ENDMDL
MODEL 6
REMARK VINA RESULT:    -6.593      2.897      8.004
REMARK INTER + INTRA:         -11.097
REMARK INTER:                 -10.699
REMARK INTRA:                  -0.398
REMARK UNBOUND:                -1.034
REMARK  Name = 
REMARK  11 active torsions:
REMARK  status: ('A' for Active; 'I' for Inactive)
REMARK    1  A    between atoms: C_1  and  C_2
REMARK    2  A    between atoms: C_2  and  C_3
REMARK    3  A    between atoms: C_2  and  C_4
REMARK    4  A    between atoms: C_4  and  N_5
REMARK    5  A    between atoms: N_5  and  C_6
REMARK    6  A    between atoms: N_5  and  C_17
REMARK    7  A    between atoms: C_6  and  C_7
REMARK    8  A    between atoms: C_7  and  C_8
REMARK    9  A    between atoms: C_11  and  C_12
REMARK   10  A    between atoms: C_21  and  O_22
REMARK   11  A    between atoms: O_22  and  C_23
REMARK                            x       y       z     vdW  Elec       q    Type
REMARK                         _______ _______ _______ _____ _____    ______ ____
ROOT
ATOM      1  N   UNL     1      45.750   5.358  12.194  0.00  0.00    +0.000 N 
ENDROOT
BRANCH   1   2
ATOM      2  C   UNL     1      46.678   5.991  13.034  0.00  0.00    +0.000 A 
ATOM      3  C   UNL     1      47.164   5.392  14.212  0.00  0.00    +0.000 A 
ATOM      4  C   UNL     1      48.151   5.987  15.008  0.00  0.00    +0.000 A 
ATOM      5  C   UNL     1      48.666   7.232  14.672  0.00  0.00    +0.000 A 
ATOM      6  C   UNL     1      48.184   7.873  13.541  0.00  0.00    +0.000 A 
ATOM      7  C   UNL     1      47.223   7.250  12.730  0.00  0.00    +0.000 A 
BRANCH   6   8
ATOM      8  O   UNL     1      48.618   9.101  13.105  0.00  0.00    +0.000 OA
BRANCH   8   9
ATOM      9  C   UNL     1      49.874   9.174  12.390  0.00  0.00    +0.000 C 
ATOM     10  C   UNL     1      50.291   7.965  11.525  0.00  0.00    +0.000 C 
ATOM     11  N   UNL     1      51.615   7.949  12.171  0.00  0.00    +0.000 NA
ATOM     12  C   UNL     1      51.120   8.837  13.235  0.00  0.00    +0.000 C 
ATOM     13  H   UNL     1      52.358   8.356  11.604  0.00  0.00    +0.000 HD
ENDBRANCH   8   9
ENDBRANCH   6   8
ENDBRANCH   1   2
BRANCH   1  14
ATOM     14  C   UNL     1      45.403   3.938  12.417  0.00  0.00    +0.000 C 
BRANCH  14  16
ATOM     15  C   UNL     1      43.151   4.933  13.142  0.00  0.00    +0.000 C 
ATOM     16  C   UNL     1      44.012   3.678  13.021  0.00  0.00    +0.000 C 
ATOM     17  C   UNL     1      43.274   2.656  12.140  0.00  0.00    +0.000 C 
ENDBRANCH  14  16
ENDBRANCH   1  14
BRANCH   1  18
ATOM     18  C   UNL     1      45.394   6.010  10.911  0.00  0.00    +0.000 C 
BRANCH  18  19
ATOM     19  C   UNL     1      44.449   5.231   9.983  0.00  0.00    +0.000 C 
BRANCH  19  20
ATOM     20  C   UNL     1      45.087   4.271   9.001  0.00  0.00    +0.000 A 
ATOM     21  C   UNL     1      44.928   2.894   9.129  0.00  0.00    +0.000 A 
ATOM     22  C   UNL     1      45.699   2.033   8.352  0.00  0.00    +0.000 A 
ATOM     23  C   UNL     1      46.603   2.565   7.438  0.00  0.00    +0.000 A 
ATOM     24  C   UNL     1      46.686   3.946   7.340  0.00  0.00    +0.000 A 
ATOM     25  N   UNL     1      45.948   4.802   8.096  0.00  0.00    +0.000 NA
BRANCH  23  26
ATOM     26  C   UNL     1      47.505   1.719   6.625  0.00  0.00    +0.000 C 
ATOM     27  N   UNL     1      48.553   2.331   5.994  0.00  0.00    +0.000 N 
ATOM     28  O   UNL     1      47.318   0.514   6.511  0.00  0.00    +0.000 OA
ATOM     29  H   UNL     1      48.869   3.260   6.227  0.00  0.00    +0.000 HD
ATOM     30  H   UNL     1      49.191   1.732   5.485  0.00  0.00    +0.000 HD
ENDBRANCH  23  26
ENDBRANCH  19  20
ENDBRANCH  18  19
ENDBRANCH   1  18
TORSDOF 9
ENDMDL
MODEL 7
REMARK VINA RESULT:    -6.592      2.059      2.843
REMARK INTER + INTRA:         -11.094
REMARK INTER:                 -10.230
REMARK INTRA:                  -0.864
REMARK UNBOUND:                -1.034
REMARK  Name = 
REMARK  11 active torsions:
REMARK  status: ('A' for Active; 'I' for Inactive)
REMARK    1  A    between atoms: C_1  and  C_2
REMARK    2  A    between atoms: C_2  and  C_3
REMARK    3  A    between atoms: C_2  and  C_4
REMARK    4  A    between atoms: C_4  and  N_5
REMARK    5  A    between atoms: N_5  and  C_6
REMARK    6  A    between atoms: N_5  and  C_17
REMARK    7  A    between atoms: C_6  and  C_7
REMARK    8  A    between atoms: C_7  and  C_8
REMARK    9  A    between atoms: C_11  and  C_12
REMARK   10  A    between atoms: C_21  and  O_22
REMARK   11  A    between atoms: O_22  and  C_23
REMARK                            x       y       z     vdW  Elec       q    Type
REMARK                         _______ _______ _______ _____ _____    ______ ____
ROOT
ATOM      1  N   UNL     1      46.410   5.418  13.503  0.00  0.00    +0.000 N 
ENDROOT
BRANCH   1   2
ATOM      2  C   UNL     1      45.274   5.229  12.701  0.00  0.00    +0.000 A 
ATOM      3  C   UNL     1      43.970   5.485  13.165  0.00  0.00    +0.000 A 
ATOM      4  C   UNL     1      42.842   5.375  12.341  0.00  0.00    +0.000 A 
ATOM      5  C   UNL     1      42.976   4.966  11.020  0.00  0.00    +0.000 A 
ATOM      6  C   UNL     1      44.240   4.665  10.538  0.00  0.00    +0.000 A 
ATOM      7  C   UNL     1      45.367   4.815  11.361  0.00  0.00    +0.000 A 
BRANCH   6   8
ATOM      8  O   UNL     1      44.499   4.256   9.252  0.00  0.00    +0.000 OA
BRANCH   8   9
ATOM      9  C   UNL     1      45.707   3.500   9.000  0.00  0.00    +0.000 C 
ATOM     10  C   UNL     1      46.243   3.444   7.554  0.00  0.00    +0.000 C 
ATOM     11  N   UNL     1      46.334   1.976   7.635  0.00  0.00    +0.000 NA
ATOM     12  C   UNL     1      45.498   1.980   8.846  0.00  0.00    +0.000 C 
ATOM     13  H   UNL     1      47.280   1.627   7.786  0.00  0.00    +0.000 HD
ENDBRANCH   8   9
ENDBRANCH   6   8
ENDBRANCH   1   2
BRANCH   1  14
ATOM     14  C   UNL     1      47.177   6.678  13.406  0.00  0.00    +0.000 C 
BRANCH  14  16
ATOM     15  C   UNL     1      46.320   8.772  12.194  0.00  0.00    +0.000 C 
ATOM     16  C   UNL     1      47.049   7.437  12.074  0.00  0.00    +0.000 C 
ATOM     17  C   UNL     1      48.459   7.694  11.513  0.00  0.00    +0.000 C 
ENDBRANCH  14  16
ENDBRANCH   1  14
BRANCH   1  18
ATOM     18  C   UNL     1      47.008   4.240  14.174  0.00  0.00    +0.000 C 
BRANCH  18  19
ATOM     19  C   UNL     1      46.999   4.246  15.711  0.00  0.00    +0.000 C 
BRANCH  19  20
ATOM     20  C   UNL     1      48.191   3.625  16.408  0.00  0.00    +0.000 A 
ATOM     21  C   UNL     1      49.010   4.377  17.246  0.00  0.00    +0.000 A 
ATOM     22  C   UNL     1      50.216   3.844  17.696  0.00  0.00    +0.000 A 
ATOM     23  C   UNL     1      50.574   2.554  17.318  0.00  0.00    +0.000 A 
ATOM     24  C   UNL     1      49.694   1.851  16.509  0.00  0.00    +0.000 A 
ATOM     25  N   UNL     1      48.517   2.357  16.052  0.00  0.00    +0.000 NA
BRANCH  23  26
ATOM     26  C   UNL     1      51.866   1.942  17.698  0.00  0.00    +0.000 C 
ATOM     27  N   UNL     1      52.101   0.654  17.300  0.00  0.00    +0.000 N 
ATOM     28  O   UNL     1      52.696   2.560  18.353  0.00  0.00    +0.000 OA
ATOM     29  H   UNL     1      51.555   0.189  16.591  0.00  0.00    +0.000 HD
ATOM     30  H   UNL     1      53.011   0.267  17.522  0.00  0.00    +0.000 HD
ENDBRANCH  23  26
ENDBRANCH  19  20
ENDBRANCH  18  19
ENDBRANCH   1  18
TORSDOF 9
ENDMDL
MODEL 8
REMARK VINA RESULT:    -6.537      1.552      2.277
REMARK INTER + INTRA:         -11.011
REMARK INTER:                  -9.737
REMARK INTRA:                  -1.274
REMARK UNBOUND:                -1.034
REMARK  Name = 
REMARK  11 active torsions:
REMARK  status: ('A' for Active; 'I' for Inactive)
REMARK    1  A    between atoms: C_1  and  C_2
REMARK    2  A    between atoms: C_2  and  C_3
REMARK    3  A    between atoms: C_2  and  C_4
REMARK    4  A    between atoms: C_4  and  N_5
REMARK    5  A    between atoms: N_5  and  C_6
REMARK    6  A    between atoms: N_5  and  C_17
REMARK    7  A    between atoms: C_6  and  C_7
REMARK    8  A    between atoms: C_7  and  C_8
REMARK    9  A    between atoms: C_11  and  C_12
REMARK   10  A    between atoms: C_21  and  O_22
REMARK   11  A    between atoms: O_22  and  C_23
REMARK                            x       y       z     vdW  Elec       q    Type
REMARK                         _______ _______ _______ _____ _____    ______ ____
ROOT
ATOM      1  N   UNL     1      46.348   6.174  12.952  0.00  0.00    +0.000 N 
ENDROOT
BRANCH   1   2
ATOM      2  C   UNL     1      45.184   5.669  12.351  0.00  0.00    +0.000 A 
ATOM      3  C   UNL     1      43.929   5.708  12.986  0.00  0.00    +0.000 A 
ATOM      4  C   UNL     1      42.752   5.280  12.356  0.00  0.00    +0.000 A 
ATOM      5  C   UNL     1      42.797   4.759  11.069  0.00  0.00    +0.000 A 
ATOM      6  C   UNL     1      44.022   4.665  10.426  0.00  0.00    +0.000 A 
ATOM      7  C   UNL     1      45.187   5.133  11.052  0.00  0.00    +0.000 A 
BRANCH   6   8
ATOM      8  O   UNL     1      44.191   4.174   9.155  0.00  0.00    +0.000 OA
BRANCH   8   9
ATOM      9  C   UNL     1      45.473   3.599   8.804  0.00  0.00    +0.000 C 
ATOM     10  C   UNL     1      45.823   3.460   7.308  0.00  0.00    +0.000 C 
ATOM     11  N   UNL     1      46.182   2.046   7.515  0.00  0.00    +0.000 NA
ATOM     12  C   UNL     1      45.517   2.057   8.827  0.00  0.00    +0.000 C 
ATOM     13  H   UNL     1      47.186   1.874   7.560  0.00  0.00    +0.000 HD
ENDBRANCH   8   9
ENDBRANCH   6   8
ENDBRANCH   1   2
BRANCH   1  14
ATOM     14  C   UNL     1      46.646   7.620  12.880  0.00  0.00    +0.000 C 
BRANCH  14  16
ATOM     15  C   UNL     1      48.711   8.615  11.725  0.00  0.00    +0.000 C 
ATOM     16  C   UNL     1      48.131   8.002  12.997  0.00  0.00    +0.000 C 
ATOM     17  C   UNL     1      48.293   9.010  14.148  0.00  0.00    +0.000 C 
ENDBRANCH  14  16
ENDBRANCH   1  14
BRANCH   1  18
ATOM     18  C   UNL     1      47.412   5.221  13.348  0.00  0.00    +0.000 C 
BRANCH  18  19
ATOM     19  C   UNL     1      47.032   4.163  14.396  0.00  0.00    +0.000 C 
BRANCH  19  20
ATOM     20  C   UNL     1      47.439   4.438  15.829  0.00  0.00    +0.000 A 
ATOM     21  C   UNL     1      48.216   5.545  16.159  0.00  0.00    +0.000 A 
ATOM     22  C   UNL     1      48.758   5.653  17.438  0.00  0.00    +0.000 A 
ATOM     23  C   UNL     1      48.493   4.660  18.376  0.00  0.00    +0.000 A 
ATOM     24  C   UNL     1      47.684   3.603  17.988  0.00  0.00    +0.000 A 
ATOM     25  N   UNL     1      47.154   3.475  16.742  0.00  0.00    +0.000 NA
BRANCH  23  26
ATOM     26  C   UNL     1      49.085   4.669  19.732  0.00  0.00    +0.000 C 
ATOM     27  N   UNL     1      48.545   3.827  20.666  0.00  0.00    +0.000 N 
ATOM     28  O   UNL     1      50.020   5.407  20.016  0.00  0.00    +0.000 OA
ATOM     29  H   UNL     1      47.933   3.062  20.429  0.00  0.00    +0.000 HD
ATOM     30  H   UNL     1      48.994   3.806  21.574  0.00  0.00    +0.000 HD
ENDBRANCH  23  26
ENDBRANCH  19  20
ENDBRANCH  18  19
ENDBRANCH   1  18
TORSDOF 9
ENDMDL
MODEL 9
REMARK VINA RESULT:    -6.524      1.733      2.537
REMARK INTER + INTRA:         -10.990
REMARK INTER:                  -9.813
REMARK INTRA:                  -1.178
REMARK UNBOUND:                -1.034
REMARK  Name = 
REMARK  11 active torsions:
REMARK  status: ('A' for Active; 'I' for Inactive)
REMARK    1  A    between atoms: C_1  and  C_2
REMARK    2  A    between atoms: C_2  and  C_3
REMARK    3  A    between atoms: C_2  and  C_4
REMARK    4  A    between atoms: C_4  and  N_5
REMARK    5  A    between atoms: N_5  and  C_6
REMARK    6  A    between atoms: N_5  and  C_17
REMARK    7  A    between atoms: C_6  and  C_7
REMARK    8  A    between atoms: C_7  and  C_8
REMARK    9  A    between atoms: C_11  and  C_12
REMARK   10  A    between atoms: C_21  and  O_22
REMARK   11  A    between atoms: O_22  and  C_23
REMARK                            x       y       z     vdW  Elec       q    Type
REMARK                         _______ _______ _______ _____ _____    ______ ____
ROOT
ATOM      1  N   UNL     1      46.038   7.414  12.242  0.00  0.00    +0.000 N 
ENDROOT
BRANCH   1   2
ATOM      2  C   UNL     1      45.152   6.359  11.976  0.00  0.00    +0.000 A 
ATOM      3  C   UNL     1      44.200   5.917  12.913  0.00  0.00    +0.000 A 
ATOM      4  C   UNL     1      43.260   4.919  12.619  0.00  0.00    +0.000 A 
ATOM      5  C   UNL     1      43.264   4.297  11.377  0.00  0.00    +0.000 A 
ATOM      6  C   UNL     1      44.214   4.676  10.441  0.00  0.00    +0.000 A 
ATOM      7  C   UNL     1      45.125   5.703  10.733  0.00  0.00    +0.000 A 
BRANCH   6   8
ATOM      8  O   UNL     1      44.314   4.139   9.181  0.00  0.00    +0.000 OA
BRANCH   8   9
ATOM      9  C   UNL     1      45.578   3.560   8.777  0.00  0.00    +0.000 C 
ATOM     10  C   UNL     1      45.888   3.468   7.269  0.00  0.00    +0.000 C 
ATOM     11  N   UNL     1      46.233   2.043   7.418  0.00  0.00    +0.000 NA
ATOM     12  C   UNL     1      45.603   2.018   8.748  0.00  0.00    +0.000 C 
ATOM     13  H   UNL     1      47.236   1.858   7.431  0.00  0.00    +0.000 HD
ENDBRANCH   8   9
ENDBRANCH   6   8
ENDBRANCH   1   2
BRANCH   1  14
ATOM     14  C   UNL     1      45.519   8.697  12.763  0.00  0.00    +0.000 C 
BRANCH  14  16
ATOM     15  C   UNL     1      43.976  10.473  11.735  0.00  0.00    +0.000 C 
ATOM     16  C   UNL     1      45.356   9.821  11.724  0.00  0.00    +0.000 C 
ATOM     17  C   UNL     1      46.415  10.903  11.997  0.00  0.00    +0.000 C 
ENDBRANCH  14  16
ENDBRANCH   1  14
BRANCH   1  18
ATOM     18  C   UNL     1      47.411   7.344  11.689  0.00  0.00    +0.000 C 
BRANCH  18  19
ATOM     19  C   UNL     1      48.406   6.439  12.433  0.00  0.00    +0.000 C 
BRANCH  19  20
ATOM     20  C   UNL     1      47.965   5.888  13.772  0.00  0.00    +0.000 A 
ATOM     21  C   UNL     1      48.306   6.524  14.963  0.00  0.00    +0.000 A 
ATOM     22  C   UNL     1      48.079   5.884  16.179  0.00  0.00    +0.000 A 
ATOM     23  C   UNL     1      47.492   4.623  16.186  0.00  0.00    +0.000 A 
ATOM     24  C   UNL     1      47.149   4.063  14.965  0.00  0.00    +0.000 A 
ATOM     25  N   UNL     1      47.370   4.668  13.767  0.00  0.00    +0.000 NA
BRANCH  23  26
ATOM     26  C   UNL     1      47.280   3.850  17.430  0.00  0.00    +0.000 C 
ATOM     27  N   UNL     1      48.032   4.185  18.523  0.00  0.00    +0.000 N 
ATOM     28  O   UNL     1      46.467   2.935  17.481  0.00  0.00    +0.000 OA
ATOM     29  H   UNL     1      48.546   5.050  18.593  0.00  0.00    +0.000 HD
ATOM     30  H   UNL     1      47.838   3.682  19.381  0.00  0.00    +0.000 HD
ENDBRANCH  23  26
ENDBRANCH  19  20
ENDBRANCH  18  19
ENDBRANCH   1  18
TORSDOF 9
ENDMDL
