MODEL 1
REMARK VINA RESULT:    -7.596      0.000      0.000
REMARK INTER + INTRA:          -9.432
REMARK INTER:                  -8.928
REMARK INTRA:                  -0.503
REMARK UNBOUND:                -0.503
REMARK  Name = 
REMARK  3 active torsions:
REMARK  status: ('A' for Active; 'I' for Inactive)
REMARK    1  A    between atoms: N_5  and  C_6
REMARK    2  A    between atoms: C_6  and  C_7
REMARK    3  A    between atoms: C_11  and  C_12
REMARK                            x       y       z     vdW  Elec       q    Type
REMARK                         _______ _______ _______ _____ _____    ______ ____
ROOT
ATOM      1  C   UNL     1      45.400   5.353  12.012  0.00  0.00    +0.000 A 
ATOM      2  C   UNL     1      46.105   6.377  11.362  0.00  0.00    +0.000 A 
ATOM      3  C   UNL     1      47.279   6.900  11.900  0.00  0.00    +0.000 A 
ATOM      4  C   UNL     1      47.771   6.410  13.110  0.00  0.00    +0.000 A 
ATOM      5  C   UNL     1      47.115   5.375  13.795  0.00  0.00    +0.000 A 
ATOM      6  C   UNL     1      45.957   4.838  13.201  0.00  0.00    +0.000 A 
ENDROOT
BRANCH   5   7
ATOM      7  C   UNL     1      47.569   4.913  15.124  0.00  0.00    +0.000 A 
ATOM      8  C   UNL     1      47.231   3.656  15.643  0.00  0.00    +0.000 A 
ATOM      9  C   UNL     1      47.626   3.295  16.932  0.00  0.00    +0.000 A 
ATOM     10  C   UNL     1      48.362   4.199  17.677  0.00  0.00    +0.000 A 
ATOM     11  N   UNL     1      48.723   5.413  17.225  0.00  0.00    +0.000 NA
ATOM     12  C   UNL     1      48.315   5.740  15.972  0.00  0.00    +0.000 A 
ENDBRANCH   5   7
BRANCH   1  13
ATOM     13  C   UNL     1      44.038   4.889  11.499  0.00  0.00    +0.000 C 
ATOM     14  C   UNL     1      42.818   5.110  12.391  0.00  0.00    +0.000 C 
ATOM     15  C   UNL     1      43.033   5.988  11.204  0.00  0.00    +0.000 C 
BRANCH  13  20
ATOM     16  C   UNL     1      46.272   2.689   7.453  0.00  0.00    +0.000 A 
ATOM     17  C   UNL     1      45.920   1.772   8.405  0.00  0.00    +0.000 A 
ATOM     18  N   UNL     1      45.212   2.078   9.510  0.00  0.00    +0.000 NA
ATOM     19  C   UNL     1      44.853   3.363   9.670  0.00  0.00    +0.000 A 
ATOM     20  N   UNL     1      44.056   3.607  10.790  0.00  0.00    +0.000 N 
ATOM     21  N   UNL     1      45.170   4.341   8.801  0.00  0.00    +0.000 NA
ATOM     22  C   UNL     1      45.862   3.975   7.704  0.00  0.00    +0.000 A 
ATOM     23  H   UNL     1      44.091   2.759  11.344  0.00  0.00    +0.000 HD
ENDBRANCH  13  20
ENDBRANCH   1  13
TORSDOF 3
ENDMDL
MODEL 2
REMARK VINA RESULT:    -7.546      2.153      3.692
REMARK INTER + INTRA:          -9.373
REMARK INTER:                  -8.618
REMARK INTRA:                  -0.755
REMARK UNBOUND:                -0.503
REMARK  Name = 
REMARK  3 active torsions:
REMARK  status: ('A' for Active; 'I' for Inactive)
REMARK    1  A    between atoms: N_5  and  C_6
REMARK    2  A    between atoms: C_6  and  C_7
REMARK    3  A    between atoms: C_11  and  C_12
REMARK                            x       y       z     vdW  Elec       q    Type
REMARK                         _______ _______ _______ _____ _____    ______ ____
ROOT
ATOM      1  C   UNL     1      45.103   5.180  12.200  0.00  0.00    +0.000 A 
ATOM      2  C   UNL     1      45.671   4.251  13.084  0.00  0.00    +0.000 A 
ATOM      3  C   UNL     1      46.919   4.473  13.662  0.00  0.00    +0.000 A 
ATOM      4  C   UNL     1      47.632   5.633  13.360  0.00  0.00    +0.000 A 
ATOM      5  C   UNL     1      47.105   6.604  12.494  0.00  0.00    +0.000 A 
ATOM      6  C   UNL     1      45.822   6.370  11.963  0.00  0.00    +0.000 A 
ENDROOT
BRANCH   5   7
ATOM      7  C   UNL     1      47.888   7.791  12.089  0.00  0.00    +0.000 A 
ATOM      8  C   UNL     1      49.245   7.720  11.743  0.00  0.00    +0.000 A 
ATOM      9  C   UNL     1      49.956   8.880  11.435  0.00  0.00    +0.000 A 
ATOM     10  C   UNL     1      49.293  10.093  11.471  0.00  0.00    +0.000 A 
ATOM     11  N   UNL     1      47.990  10.218  11.786  0.00  0.00    +0.000 NA
ATOM     12  C   UNL     1      47.328   9.074  12.091  0.00  0.00    +0.000 A 
ENDBRANCH   5   7
BRANCH   1  13
ATOM     13  C   UNL     1      43.809   4.864  11.453  0.00  0.00    +0.000 C 
ATOM     14  C   UNL     1      42.483   5.177  12.145  0.00  0.00    +0.000 C 
ATOM     15  C   UNL     1      42.970   6.062  11.048  0.00  0.00    +0.000 C 
BRANCH  13  20
ATOM     16  C   UNL     1      46.309   2.668   7.563  0.00  0.00    +0.000 A 
ATOM     17  C   UNL     1      45.816   1.743   8.442  0.00  0.00    +0.000 A 
ATOM     18  N   UNL     1      45.019   2.054   9.484  0.00  0.00    +0.000 NA
ATOM     19  C   UNL     1      44.717   3.352   9.656  0.00  0.00    +0.000 A 
ATOM     20  N   UNL     1      43.827   3.605  10.702  0.00  0.00    +0.000 N 
ATOM     21  N   UNL     1      45.171   4.337   8.860  0.00  0.00    +0.000 NA
ATOM     22  C   UNL     1      45.946   3.967   7.822  0.00  0.00    +0.000 A 
ATOM     23  H   UNL     1      43.761   2.740  11.225  0.00  0.00    +0.000 HD
ENDBRANCH  13  20
ENDBRANCH   1  13
TORSDOF 3
ENDMDL
MODEL 3
REMARK VINA RESULT:    -6.908      2.423      6.918
REMARK INTER + INTRA:          -8.622
REMARK INTER:                  -8.211
REMARK INTRA:                  -0.411
REMARK UNBOUND:                -0.503
REMARK  Name = 
REMARK  3 active torsions:
REMARK  status: ('A' for Active; 'I' for Inactive)
REMARK    1  A    between atoms: N_5  and  C_6
REMARK    2  A    between atoms: C_6  and  C_7
REMARK    3  A    between atoms: C_11  and  C_12
REMARK                            x       y       z     vdW  Elec       q    Type
REMARK                         _______ _______ _______ _____ _____    ______ ____
ROOT
ATOM      1  C   UNL     1      44.465   4.104  10.712  0.00  0.00    +0.000 A 
ATOM      2  C   UNL     1      43.685   3.001  11.089  0.00  0.00    +0.000 A 
ATOM      3  C   UNL     1      43.767   1.790  10.405  0.00  0.00    +0.000 A 
ATOM      4  C   UNL     1      44.632   1.659   9.319  0.00  0.00    +0.000 A 
ATOM      5  C   UNL     1      45.448   2.724   8.908  0.00  0.00    +0.000 A 
ATOM      6  C   UNL     1      45.374   3.920   9.649  0.00  0.00    +0.000 A 
ENDROOT
BRANCH   5   7
ATOM      7  C   UNL     1      46.297   2.633   7.702  0.00  0.00    +0.000 A 
ATOM      8  C   UNL     1      46.181   3.524   6.626  0.00  0.00    +0.000 A 
ATOM      9  C   UNL     1      46.959   3.351   5.480  0.00  0.00    +0.000 A 
ATOM     10  C   UNL     1      47.846   2.292   5.434  0.00  0.00    +0.000 A 
ATOM     11  N   UNL     1      48.006   1.414   6.441  0.00  0.00    +0.000 NA
ATOM     12  C   UNL     1      47.228   1.601   7.537  0.00  0.00    +0.000 A 
ENDBRANCH   5   7
BRANCH   1  13
ATOM     13  C   UNL     1      44.262   5.469  11.365  0.00  0.00    +0.000 C 
ATOM     14  C   UNL     1      42.862   6.078  11.343  0.00  0.00    +0.000 C 
ATOM     15  C   UNL     1      43.388   5.485  12.606  0.00  0.00    +0.000 C 
BRANCH  13  20
ATOM     16  C   UNL     1      48.771   6.812  13.383  0.00  0.00    +0.000 A 
ATOM     17  C   UNL     1      48.709   7.083  12.043  0.00  0.00    +0.000 A 
ATOM     18  N   UNL     1      47.592   6.935  11.304  0.00  0.00    +0.000 NA
ATOM     19  C   UNL     1      46.495   6.483  11.935  0.00  0.00    +0.000 A 
ATOM     20  N   UNL     1      45.350   6.424  11.138  0.00  0.00    +0.000 N 
ATOM     21  N   UNL     1      46.462   6.169  13.244  0.00  0.00    +0.000 NA
ATOM     22  C   UNL     1      47.601   6.356  13.939  0.00  0.00    +0.000 A 
ATOM     23  H   UNL     1      45.669   6.562  10.186  0.00  0.00    +0.000 HD
ENDBRANCH  13  20
ENDBRANCH   1  13
TORSDOF 3
ENDMDL
MODEL 4
REMARK VINA RESULT:    -6.740      3.444      7.180
REMARK INTER + INTRA:          -8.425
REMARK INTER:                  -8.344
REMARK INTRA:                  -0.081
REMARK UNBOUND:                -0.503
REMARK  Name = 
REMARK  3 active torsions:
REMARK  status: ('A' for Active; 'I' for Inactive)
REMARK    1  A    between atoms: N_5  and  C_6
REMARK    2  A    between atoms: C_6  and  C_7
REMARK    3  A    between atoms: C_11  and  C_12
REMARK                            x       y       z     vdW  Elec       q    Type
REMARK                         _______ _______ _______ _____ _____    ______ ____
ROOT
ATOM      1  C   UNL     1      44.947   6.454  11.756  0.00  0.00    +0.000 A 
ATOM      2  C   UNL     1      43.575   6.281  11.993  0.00  0.00    +0.000 A 
ATOM      3  C   UNL     1      42.846   5.296  11.329  0.00  0.00    +0.000 A 
ATOM      4  C   UNL     1      43.479   4.462  10.406  0.00  0.00    +0.000 A 
ATOM      5  C   UNL     1      44.852   4.580  10.143  0.00  0.00    +0.000 A 
ATOM      6  C   UNL     1      45.568   5.556  10.864  0.00  0.00    +0.000 A 
ENDROOT
BRANCH   5   7
ATOM      7  C   UNL     1      45.516   3.771   9.099  0.00  0.00    +0.000 A 
ATOM      8  C   UNL     1      46.122   4.342   7.972  0.00  0.00    +0.000 A 
ATOM      9  C   UNL     1      46.674   3.530   6.980  0.00  0.00    +0.000 A 
ATOM     10  C   UNL     1      46.615   2.158   7.138  0.00  0.00    +0.000 A 
ATOM     11  N   UNL     1      46.055   1.557   8.204  0.00  0.00    +0.000 NA
ATOM     12  C   UNL     1      45.518   2.373   9.146  0.00  0.00    +0.000 A 
ENDBRANCH   5   7
BRANCH   1  13
ATOM     13  C   UNL     1      45.706   7.629  12.369  0.00  0.00    +0.000 C 
ATOM     14  C   UNL     1      46.784   7.327  13.409  0.00  0.00    +0.000 C 
ATOM     15  C   UNL     1      47.183   7.713  12.025  0.00  0.00    +0.000 C 
BRANCH  13  20
ATOM     16  C   UNL     1      45.158  12.492  10.870  0.00  0.00    +0.000 A 
ATOM     17  C   UNL     1      43.992  11.973  11.361  0.00  0.00    +0.000 A 
ATOM     18  N   UNL     1      43.898  10.755  11.929  0.00  0.00    +0.000 NA
ATOM     19  C   UNL     1      45.023  10.022  11.995  0.00  0.00    +0.000 A 
ATOM     20  N   UNL     1      44.883   8.804  12.663  0.00  0.00    +0.000 N 
ATOM     21  N   UNL     1      46.213  10.436  11.521  0.00  0.00    +0.000 NA
ATOM     22  C   UNL     1      46.253  11.671  10.982  0.00  0.00    +0.000 A 
ATOM     23  H   UNL     1      43.886   8.667  12.782  0.00  0.00    +0.000 HD
ENDBRANCH  13  20
ENDBRANCH   1  13
TORSDOF 3
ENDMDL
MODEL 5
REMARK VINA RESULT:    -6.614      2.097      7.234
REMARK INTER + INTRA:          -8.277
REMARK INTER:                  -7.613
REMARK INTRA:                  -0.664
REMARK UNBOUND:                -0.503
REMARK  Name = 
REMARK  3 active torsions:
REMARK  status: ('A' for Active; 'I' for Inactive)
REMARK    1  A    between atoms: N_5  and  C_6
REMARK    2  A    between atoms: C_6  and  C_7
REMARK    3  A    between atoms: C_11  and  C_12
REMARK                            x       y       z     vdW  Elec       q    Type
REMARK                         _______ _______ _______ _____ _____    ______ ____
ROOT
ATOM      1  C   UNL     1      47.408   7.648  12.268  0.00  0.00    +0.000 A 
ATOM      2  C   UNL     1      46.451   8.648  12.494  0.00  0.00    +0.000 A 
ATOM      3  C   UNL     1      45.121   8.473  12.115  0.00  0.00    +0.000 A 
ATOM      4  C   UNL     1      44.722   7.289  11.494  0.00  0.00    +0.000 A 
ATOM      5  C   UNL     1      45.635   6.249  11.258  0.00  0.00    +0.000 A 
ATOM      6  C   UNL     1      46.960   6.441  11.694  0.00  0.00    +0.000 A 
ENDROOT
BRANCH   5   7
ATOM      7  C   UNL     1      45.250   5.031  10.515  0.00  0.00    +0.000 A 
ATOM      8  C   UNL     1      45.485   4.877   9.142  0.00  0.00    +0.000 A 
ATOM      9  C   UNL     1      45.039   3.736   8.473  0.00  0.00    +0.000 A 
ATOM     10  C   UNL     1      44.371   2.764   9.194  0.00  0.00    +0.000 A 
ATOM     11  N   UNL     1      44.127   2.855  10.515  0.00  0.00    +0.000 NA
ATOM     12  C   UNL     1      44.563   3.981  11.135  0.00  0.00    +0.000 A 
ENDBRANCH   5   7
BRANCH   1  13
ATOM     13  C   UNL     1      48.889   7.902  12.545  0.00  0.00    +0.000 C 
ATOM     14  C   UNL     1      49.811   8.161  11.355  0.00  0.00    +0.000 C 
ATOM     15  C   UNL     1      49.391   9.299  12.224  0.00  0.00    +0.000 C 
BRANCH  13  20
ATOM     16  C   UNL     1      48.723   7.346  17.631  0.00  0.00    +0.000 A 
ATOM     17  C   UNL     1      49.034   6.174  16.998  0.00  0.00    +0.000 A 
ATOM     18  N   UNL     1      49.256   6.079  15.672  0.00  0.00    +0.000 NA
ATOM     19  C   UNL     1      49.149   7.208  14.951  0.00  0.00    +0.000 A 
ATOM     20  N   UNL     1      49.467   7.064  13.599  0.00  0.00    +0.000 N 
ATOM     21  N   UNL     1      48.827   8.403  15.478  0.00  0.00    +0.000 NA
ATOM     22  C   UNL     1      48.636   8.445  16.812  0.00  0.00    +0.000 A 
ATOM     23  H   UNL     1      49.524   6.066  13.433  0.00  0.00    +0.000 HD
ENDBRANCH  13  20
ENDBRANCH   1  13
TORSDOF 3
ENDMDL
MODEL 6
REMARK VINA RESULT:    -6.083      3.300      6.723
REMARK INTER + INTRA:          -7.653
REMARK INTER:                  -7.294
REMARK INTRA:                  -0.360
REMARK UNBOUND:                -0.503
REMARK  Name = 
REMARK  3 active torsions:
REMARK  status: ('A' for Active; 'I' for Inactive)
REMARK    1  A    between atoms: N_5  and  C_6
REMARK    2  A    between atoms: C_6  and  C_7
REMARK    3  A    between atoms: C_11  and  C_12
REMARK                            x       y       z     vdW  Elec       q    Type
REMARK                         _______ _______ _______ _____ _____    ______ ____
ROOT
ATOM      1  C   UNL     1      47.023   6.033  13.326  0.00  0.00    +0.000 A 
ATOM      2  C   UNL     1      48.388   5.926  13.022  0.00  0.00    +0.000 A 
ATOM      3  C   UNL     1      49.087   6.990  12.454  0.00  0.00    +0.000 A 
ATOM      4  C   UNL     1      48.429   8.187  12.174  0.00  0.00    +0.000 A 
ATOM      5  C   UNL     1      47.068   8.355  12.473  0.00  0.00    +0.000 A 
ATOM      6  C   UNL     1      46.402   7.276  13.087  0.00  0.00    +0.000 A 
ENDROOT
BRANCH   5   7
ATOM      7  C   UNL     1      46.334   9.581  12.093  0.00  0.00    +0.000 A 
ATOM      8  C   UNL     1      46.981  10.741  11.645  0.00  0.00    +0.000 A 
ATOM      9  C   UNL     1      46.247  11.895  11.366  0.00  0.00    +0.000 A 
ATOM     10  C   UNL     1      44.874  11.864  11.534  0.00  0.00    +0.000 A 
ATOM     11  N   UNL     1      44.201  10.776  11.950  0.00  0.00    +0.000 NA
ATOM     12  C   UNL     1      44.944   9.673  12.224  0.00  0.00    +0.000 A 
ENDBRANCH   5   7
BRANCH   1  13
ATOM     13  C   UNL     1      46.228   4.820  13.805  0.00  0.00    +0.000 C 
ATOM     14  C   UNL     1      44.925   4.482  13.084  0.00  0.00    +0.000 C 
ATOM     15  C   UNL     1      46.143   3.659  12.830  0.00  0.00    +0.000 C 
BRANCH  13  20
ATOM     16  C   UNL     1      48.992   2.745  17.581  0.00  0.00    +0.000 A 
ATOM     17  C   UNL     1      48.228   3.792  18.021  0.00  0.00    +0.000 A 
ATOM     18  N   UNL     1      47.323   4.430  17.252  0.00  0.00    +0.000 NA
ATOM     19  C   UNL     1      47.191   4.006  15.984  0.00  0.00    +0.000 A 
ATOM     20  N   UNL     1      46.186   4.651  15.260  0.00  0.00    +0.000 N 
ATOM     21  N   UNL     1      47.911   3.001  15.453  0.00  0.00    +0.000 NA
ATOM     22  C   UNL     1      48.786   2.385  16.273  0.00  0.00    +0.000 A 
ATOM     23  H   UNL     1      45.908   5.447  15.821  0.00  0.00    +0.000 HD
ENDBRANCH  13  20
ENDBRANCH   1  13
TORSDOF 3
ENDMDL
MODEL 7
REMARK VINA RESULT:    -5.974      4.793      7.318
REMARK INTER + INTRA:          -7.525
REMARK INTER:                  -7.058
REMARK INTRA:                  -0.467
REMARK UNBOUND:                -0.503
REMARK  Name = 
REMARK  3 active torsions:
REMARK  status: ('A' for Active; 'I' for Inactive)
REMARK    1  A    between atoms: N_5  and  C_6
REMARK    2  A    between atoms: C_6  and  C_7
REMARK    3  A    between atoms: C_11  and  C_12
REMARK                            x       y       z     vdW  Elec       q    Type
REMARK                         _______ _______ _______ _____ _____    ______ ____
ROOT
ATOM      1  C   UNL     1      44.677   9.780  11.291  0.00  0.00    +0.000 A 
ATOM      2  C   UNL     1      45.702  10.092  12.196  0.00  0.00    +0.000 A 
ATOM      3  C   UNL     1      46.321   9.100  12.956  0.00  0.00    +0.000 A 
ATOM      4  C   UNL     1      45.920   7.770  12.827  0.00  0.00    +0.000 A 
ATOM      5  C   UNL     1      44.911   7.400  11.924  0.00  0.00    +0.000 A 
ATOM      6  C   UNL     1      44.338   8.420  11.140  0.00  0.00    +0.000 A 
ENDROOT
BRANCH   5   7
ATOM      7  C   UNL     1      44.409   6.012  11.846  0.00  0.00    +0.000 A 
ATOM      8  C   UNL     1      44.490   5.243  10.677  0.00  0.00    +0.000 A 
ATOM      9  C   UNL     1      43.937   3.962  10.636  0.00  0.00    +0.000 A 
ATOM     10  C   UNL     1      43.319   3.470  11.771  0.00  0.00    +0.000 A 
ATOM     11  N   UNL     1      43.222   4.160  12.922  0.00  0.00    +0.000 NA
ATOM     12  C   UNL     1      43.759   5.406  12.928  0.00  0.00    +0.000 A 
ENDBRANCH   5   7
BRANCH   1  13
ATOM     13  C   UNL     1      43.901  10.884  10.575  0.00  0.00    +0.000 C 
ATOM     14  C   UNL     1      44.602  11.648   9.453  0.00  0.00    +0.000 C 
ATOM     15  C   UNL     1      43.573  10.622   9.115  0.00  0.00    +0.000 C 
BRANCH  13  20
ATOM     16  C   UNL     1      39.108  11.071  12.361  0.00  0.00    +0.000 A 
ATOM     17  C   UNL     1      39.995  11.667  13.214  0.00  0.00    +0.000 A 
ATOM     18  N   UNL     1      41.297  11.856  12.923  0.00  0.00    +0.000 NA
ATOM     19  C   UNL     1      41.727  11.416  11.728  0.00  0.00    +0.000 A 
ATOM     20  N   UNL     1      43.064  11.710  11.449  0.00  0.00    +0.000 N 
ATOM     21  N   UNL     1      40.937  10.799  10.831  0.00  0.00    +0.000 NA
ATOM     22  C   UNL     1      39.639  10.654  11.166  0.00  0.00    +0.000 A 
ATOM     23  H   UNL     1      43.464  12.032  12.322  0.00  0.00    +0.000 HD
ENDBRANCH  13  20
ENDBRANCH   1  13
TORSDOF 3
ENDMDL
MODEL 8
REMARK VINA RESULT:    -5.507      4.120      6.450
REMARK INTER + INTRA:          -6.976
REMARK INTER:                  -6.815
REMARK INTRA:                  -0.161
REMARK UNBOUND:                -0.503
REMARK  Name = 
REMARK  3 active torsions:
REMARK  status: ('A' for Active; 'I' for Inactive)
REMARK    1  A    between atoms: N_5  and  C_6
REMARK    2  A    between atoms: C_6  and  C_7
REMARK    3  A    between atoms: C_11  and  C_12
REMARK                            x       y       z     vdW  Elec       q    Type
REMARK                         _______ _______ _______ _____ _____    ______ ____
ROOT
ATOM      1  C   UNL     1      47.304   9.526  11.944  0.00  0.00    +0.000 A 
ATOM      2  C   UNL     1      48.650   9.131  11.923  0.00  0.00    +0.000 A 
ATOM      3  C   UNL     1      49.011   7.790  12.044  0.00  0.00    +0.000 A 
ATOM      4  C   UNL     1      48.027   6.813  12.196  0.00  0.00    +0.000 A 
ATOM      5  C   UNL     1      46.664   7.150  12.208  0.00  0.00    +0.000 A 
ATOM      6  C   UNL     1      46.333   8.509  12.038  0.00  0.00    +0.000 A 
ENDROOT
BRANCH   5   7
ATOM      7  C   UNL     1      45.616   6.141  12.465  0.00  0.00    +0.000 A 
ATOM      8  C   UNL     1      44.248   6.426  12.353  0.00  0.00    +0.000 A 
ATOM      9  C   UNL     1      43.297   5.457  12.675  0.00  0.00    +0.000 A 
ATOM     10  C   UNL     1      43.732   4.214  13.097  0.00  0.00    +0.000 A 
ATOM     11  N   UNL     1      45.032   3.883  13.212  0.00  0.00    +0.000 NA
ATOM     12  C   UNL     1      45.933   4.850  12.902  0.00  0.00    +0.000 A 
ENDBRANCH   5   7
BRANCH   1  13
ATOM     13  C   UNL     1      46.921  11.004  11.964  0.00  0.00    +0.000 C 
ATOM     14  C   UNL     1      47.899  11.994  12.595  0.00  0.00    +0.000 C 
ATOM     15  C   UNL     1      47.779  11.921  11.110  0.00  0.00    +0.000 C 
BRANCH  13  20
ATOM     16  C   UNL     1      42.361  10.863   9.644  0.00  0.00    +0.000 A 
ATOM     17  C   UNL     1      42.254  10.678  10.995  0.00  0.00    +0.000 A 
ATOM     18  N   UNL     1      43.291  10.790  11.848  0.00  0.00    +0.000 NA
ATOM     19  C   UNL     1      44.490  11.088  11.317  0.00  0.00    +0.000 A 
ATOM     20  N   UNL     1      45.509  11.267  12.255  0.00  0.00    +0.000 N 
ATOM     21  N   UNL     1      44.700  11.266  10.000  0.00  0.00    +0.000 NA
ATOM     22  C   UNL     1      43.624  11.164   9.196  0.00  0.00    +0.000 A 
ATOM     23  H   UNL     1      45.137  10.934  13.136  0.00  0.00    +0.000 HD
ENDBRANCH  13  20
ENDBRANCH   1  13
TORSDOF 3
ENDMDL
MODEL 9
REMARK VINA RESULT:    -5.444      2.116      7.992
REMARK INTER + INTRA:          -6.902
REMARK INTER:                  -6.664
REMARK INTRA:                  -0.238
REMARK UNBOUND:                -0.503
REMARK  Name = 
REMARK  3 active torsions:
REMARK  status: ('A' for Active; 'I' for Inactive)
REMARK    1  A    between atoms: N_5  and  C_6
REMARK    2  A    between atoms: C_6  and  C_7
REMARK    3  A    between atoms: C_11  and  C_12
REMARK                            x       y       z     vdW  Elec       q    Type
REMARK                         _______ _______ _______ _____ _____    ______ ____
ROOT
ATOM      1  C   UNL     1      47.586   5.217  15.527  0.00  0.00    +0.000 A 
ATOM      2  C   UNL     1      48.510   6.186  15.107  0.00  0.00    +0.000 A 
ATOM      3  C   UNL     1      48.485   6.694  13.810  0.00  0.00    +0.000 A 
ATOM      4  C   UNL     1      47.532   6.237  12.900  0.00  0.00    +0.000 A 
ATOM      5  C   UNL     1      46.573   5.281  13.270  0.00  0.00    +0.000 A 
ATOM      6  C   UNL     1      46.598   4.822  14.602  0.00  0.00    +0.000 A 
ENDROOT
BRANCH   5   7
ATOM      7  C   UNL     1      45.620   4.716  12.292  0.00  0.00    +0.000 A 
ATOM      8  C   UNL     1      44.862   3.566  12.552  0.00  0.00    +0.000 A 
ATOM      9  C   UNL     1      44.029   3.032  11.568  0.00  0.00    +0.000 A 
ATOM     10  C   UNL     1      43.963   3.665  10.340  0.00  0.00    +0.000 A 
ATOM     11  N   UNL     1      44.660   4.776  10.040  0.00  0.00    +0.000 NA
ATOM     12  C   UNL     1      45.470   5.265  11.013  0.00  0.00    +0.000 A 
ENDBRANCH   5   7
BRANCH   1  13
ATOM     13  C   UNL     1      47.712   4.554  16.897  0.00  0.00    +0.000 C 
ATOM     14  C   UNL     1      47.391   3.065  17.009  0.00  0.00    +0.000 C 
ATOM     15  C   UNL     1      48.812   3.517  17.031  0.00  0.00    +0.000 C 
BRANCH  13  20
ATOM     16  C   UNL     1      49.391   8.222  20.047  0.00  0.00    +0.000 A 
ATOM     17  C   UNL     1      48.034   8.276  19.877  0.00  0.00    +0.000 A 
ATOM     18  N   UNL     1      47.332   7.351  19.193  0.00  0.00    +0.000 NA
ATOM     19  C   UNL     1      48.025   6.337  18.646  0.00  0.00    +0.000 A 
ATOM     20  N   UNL     1      47.237   5.370  18.018  0.00  0.00    +0.000 N 
ATOM     21  N   UNL     1      49.361   6.210  18.740  0.00  0.00    +0.000 NA
ATOM     22  C   UNL     1      50.010   7.151  19.453  0.00  0.00    +0.000 A 
ATOM     23  H   UNL     1      46.308   5.769  17.954  0.00  0.00    +0.000 HD
ENDBRANCH  13  20
ENDBRANCH   1  13
TORSDOF 3
ENDMDL
