MODEL 1
REMARK VINA RESULT:    -8.954      0.000      0.000
REMARK INTER + INTRA:         -13.208
REMARK INTER:                 -12.094
REMARK INTRA:                  -1.114
REMARK UNBOUND:                -1.114
REMARK  Name = 
REMARK  8 active torsions:
REMARK  status: ('A' for Active; 'I' for Inactive)
REMARK    1  A    between atoms: C_1  and  O_2
REMARK    2  A    between atoms: O_2  and  C_3
REMARK    3  A    between atoms: C_5  and  C_6
REMARK    4  A    between atoms: C_13  and  C_14
REMARK    5  A    between atoms: C_14  and  C_15
REMARK    6  A    between atoms: C_14  and  C_16
REMARK    7  A    between atoms: C_16  and  N_17
REMARK    8  A    between atoms: C_21  and  C_22
REMARK                            x       y       z     vdW  Elec       q    Type
REMARK                         _______ _______ _______ _____ _____    ______ ____
ROOT
ATOM      1  C   UNL     1      43.199   4.858  12.329  0.00  0.00    +0.000 C 
ATOM      2  C   UNL     1      42.423   6.166  12.133  0.00  0.00    +0.000 C 
ENDROOT
BRANCH   1   7
ATOM      3  C   UNL     1      46.721   4.360  13.767  0.00  0.00    +0.000 A 
ATOM      4  C   UNL     1      47.305   5.603  13.505  0.00  0.00    +0.000 A 
ATOM      5  C   UNL     1      46.595   6.627  12.854  0.00  0.00    +0.000 A 
ATOM      6  C   UNL     1      45.250   6.373  12.524  0.00  0.00    +0.000 A 
ATOM      7  C   UNL     1      44.632   5.135  12.781  0.00  0.00    +0.000 A 
ATOM      8  C   UNL     1      45.389   4.134  13.404  0.00  0.00    +0.000 A 
BRANCH   5   9
ATOM      9  C   UNL     1      47.258   7.895  12.458  0.00  0.00    +0.000 A 
ATOM     10  C   UNL     1      48.632   7.930  12.152  0.00  0.00    +0.000 A 
ATOM     11  C   UNL     1      49.255   9.099  11.703  0.00  0.00    +0.000 A 
ATOM     12  C   UNL     1      48.513  10.263  11.542  0.00  0.00    +0.000 A 
ATOM     13  C   UNL     1      47.156  10.263  11.852  0.00  0.00    +0.000 A 
ATOM     14  C   UNL     1      46.540   9.096  12.315  0.00  0.00    +0.000 A 
ENDBRANCH   5   9
BRANCH   3  16
ATOM     15  C   UNL     1      47.704   3.429  15.724  0.00  0.00    +0.000 C 
ATOM     16  O   UNL     1      47.356   3.294  14.350  0.00  0.00    +0.000 OA
ENDBRANCH   3  16
ENDBRANCH   1   7
BRANCH   1  17
ATOM     17  C   UNL     1      43.212   3.983  11.053  0.00  0.00    +0.000 C 
BRANCH  17  18
ATOM     18  N   UNL     1      43.834   4.665   9.905  0.00  0.00    +0.000 N 
ATOM     19  C   UNL     1      44.685   3.817   9.171  0.00  0.00    +0.000 A 
ATOM     20  C   UNL     1      45.367   4.337   8.071  0.00  0.00    +0.000 A 
ATOM     21  C   UNL     1      46.221   3.507   7.339  0.00  0.00    +0.000 A 
ATOM     22  C   UNL     1      46.381   2.175   7.713  0.00  0.00    +0.000 A 
ATOM     23  C   UNL     1      45.655   1.740   8.808  0.00  0.00    +0.000 A 
ATOM     24  N   UNL     1      44.820   2.526   9.529  0.00  0.00    +0.000 NA
ATOM     25  H   UNL     1      44.384   5.471  10.191  0.00  0.00    +0.000 HD
BRANCH  22  26
ATOM     26  C   UNL     1      47.299   1.297   6.953  0.00  0.00    +0.000 C 
ATOM     27  N   UNL     1      48.428   1.830   6.400  0.00  0.00    +0.000 N 
ATOM     28  O   UNL     1      47.051   0.102   6.807  0.00  0.00    +0.000 OA
ATOM     29  H   UNL     1      48.727   2.792   6.458  0.00  0.00    +0.000 HD
ATOM     30  H   UNL     1      49.026   1.193   5.888  0.00  0.00    +0.000 HD
ENDBRANCH  22  26
ENDBRANCH  17  18
ENDBRANCH   1  17
TORSDOF 6
ENDMDL
MODEL 2
REMARK VINA RESULT:    -8.209      1.716      4.022
REMARK INTER + INTRA:         -12.203
REMARK INTER:                 -11.175
REMARK INTRA:                  -1.028
REMARK UNBOUND:                -1.114
REMARK  Name = 
REMARK  8 active torsions:
REMARK  status: ('A' for Active; 'I' for Inactive)
REMARK    1  A    between atoms: C_1  and  O_2
REMARK    2  A    between atoms: O_2  and  C_3
REMARK    3  A    between atoms: C_5  and  C_6
REMARK    4  A    between atoms: C_13  and  C_14
REMARK    5  A    between atoms: C_14  and  C_15
REMARK    6  A    between atoms: C_14  and  C_16
REMARK    7  A    between atoms: C_16  and  N_17
REMARK    8  A    between atoms: C_21  and  C_22
REMARK                            x       y       z     vdW  Elec       q    Type
REMARK                         _______ _______ _______ _____ _____    ______ ____
ROOT
ATOM      1  C   UNL     1      43.888   4.414  12.393  0.00  0.00    +0.000 C 
ATOM      2  C   UNL     1      42.799   5.377  12.881  0.00  0.00    +0.000 C 
ENDROOT
BRANCH   1   7
ATOM      3  C   UNL     1      47.189   6.368  12.328  0.00  0.00    +0.000 A 
ATOM      4  C   UNL     1      47.779   5.954  13.525  0.00  0.00    +0.000 A 
ATOM      5  C   UNL     1      47.136   5.051  14.389  0.00  0.00    +0.000 A 
ATOM      6  C   UNL     1      45.894   4.532  13.975  0.00  0.00    +0.000 A 
ATOM      7  C   UNL     1      45.279   4.924  12.771  0.00  0.00    +0.000 A 
ATOM      8  C   UNL     1      45.944   5.850  11.958  0.00  0.00    +0.000 A 
BRANCH   5   9
ATOM      9  C   UNL     1      47.703   4.717  15.720  0.00  0.00    +0.000 A 
ATOM     10  C   UNL     1      48.475   5.654  16.434  0.00  0.00    +0.000 A 
ATOM     11  C   UNL     1      48.951   5.385  17.722  0.00  0.00    +0.000 A 
ATOM     12  C   UNL     1      48.658   4.171  18.330  0.00  0.00    +0.000 A 
ATOM     13  C   UNL     1      47.910   3.219  17.643  0.00  0.00    +0.000 A 
ATOM     14  C   UNL     1      47.449   3.486  16.350  0.00  0.00    +0.000 A 
ENDBRANCH   5   9
BRANCH   3  16
ATOM     15  C   UNL     1      48.979   7.850  11.814  0.00  0.00    +0.000 C 
ATOM     16  O   UNL     1      47.724   7.280  11.456  0.00  0.00    +0.000 OA
ENDBRANCH   3  16
ENDBRANCH   1   7
BRANCH   1  17
ATOM     17  C   UNL     1      43.817   4.168  10.868  0.00  0.00    +0.000 C 
BRANCH  17  18
ATOM     18  N   UNL     1      44.125   2.775  10.504  0.00  0.00    +0.000 N 
ATOM     19  C   UNL     1      44.991   2.685   9.398  0.00  0.00    +0.000 A 
ATOM     20  C   UNL     1      45.346   1.424   8.921  0.00  0.00    +0.000 A 
ATOM     21  C   UNL     1      46.199   1.323   7.818  0.00  0.00    +0.000 A 
ATOM     22  C   UNL     1      46.685   2.478   7.210  0.00  0.00    +0.000 A 
ATOM     23  C   UNL     1      46.293   3.687   7.757  0.00  0.00    +0.000 A 
ATOM     24  N   UNL     1      45.471   3.807   8.826  0.00  0.00    +0.000 NA
ATOM     25  H   UNL     1      43.287   2.246  10.274  0.00  0.00    +0.000 HD
BRANCH  22  26
ATOM     26  C   UNL     1      47.574   2.376   6.030  0.00  0.00    +0.000 C 
ATOM     27  N   UNL     1      47.375   3.214   4.969  0.00  0.00    +0.000 N 
ATOM     28  O   UNL     1      48.477   1.545   5.992  0.00  0.00    +0.000 OA
ATOM     29  H   UNL     1      46.667   3.930   4.895  0.00  0.00    +0.000 HD
ATOM     30  H   UNL     1      48.006   3.107   4.184  0.00  0.00    +0.000 HD
ENDBRANCH  22  26
ENDBRANCH  17  18
ENDBRANCH   1  17
TORSDOF 6
ENDMDL
MODEL 3
REMARK VINA RESULT:    -8.039      1.640      2.438
REMARK INTER + INTRA:         -11.972
REMARK INTER:                 -11.473
REMARK INTRA:                  -0.499
REMARK UNBOUND:                -1.114
REMARK  Name = 
REMARK  8 active torsions:
REMARK  status: ('A' for Active; 'I' for Inactive)
REMARK    1  A    between atoms: C_1  and  O_2
REMARK    2  A    between atoms: O_2  and  C_3
REMARK    3  A    between atoms: C_5  and  C_6
REMARK    4  A    between atoms: C_13  and  C_14
REMARK    5  A    between atoms: C_14  and  C_15
REMARK    6  A    between atoms: C_14  and  C_16
REMARK    7  A    between atoms: C_16  and  N_17
REMARK    8  A    between atoms: C_21  and  C_22
REMARK                            x       y       z     vdW  Elec       q    Type
REMARK                         _______ _______ _______ _____ _____    ______ ____
ROOT
ATOM      1  C   UNL     1      44.147   4.403  12.262  0.00  0.00    +0.000 C 
ATOM      2  C   UNL     1      43.170   4.327  13.442  0.00  0.00    +0.000 C 
ENDROOT
BRANCH   1   7
ATOM      3  C   UNL     1      47.306   6.493  12.876  0.00  0.00    +0.000 A 
ATOM      4  C   UNL     1      46.853   7.777  12.561  0.00  0.00    +0.000 A 
ATOM      5  C   UNL     1      45.534   8.009  12.134  0.00  0.00    +0.000 A 
ATOM      6  C   UNL     1      44.665   6.902  12.089  0.00  0.00    +0.000 A 
ATOM      7  C   UNL     1      45.089   5.598  12.408  0.00  0.00    +0.000 A 
ATOM      8  C   UNL     1      46.421   5.412  12.799  0.00  0.00    +0.000 A 
BRANCH   5   9
ATOM      9  C   UNL     1      45.095   9.350  11.673  0.00  0.00    +0.000 A 
ATOM     10  C   UNL     1      43.845   9.528  11.048  0.00  0.00    +0.000 A 
ATOM     11  C   UNL     1      43.384  10.796  10.677  0.00  0.00    +0.000 A 
ATOM     12  C   UNL     1      44.162  11.919  10.930  0.00  0.00    +0.000 A 
ATOM     13  C   UNL     1      45.408  11.773  11.533  0.00  0.00    +0.000 A 
ATOM     14  C   UNL     1      45.873  10.502  11.888  0.00  0.00    +0.000 A 
ENDBRANCH   5   9
BRANCH   3  16
ATOM     15  C   UNL     1      49.267   7.117  14.071  0.00  0.00    +0.000 C 
ATOM     16  O   UNL     1      48.585   6.174  13.250  0.00  0.00    +0.000 OA
ENDBRANCH   3  16
ENDBRANCH   1   7
BRANCH   1  17
ATOM     17  C   UNL     1      43.420   4.473  10.898  0.00  0.00    +0.000 C 
BRANCH  17  18
ATOM     18  N   UNL     1      44.235   5.114   9.854  0.00  0.00    +0.000 N 
ATOM     19  C   UNL     1      45.004   4.187   9.125  0.00  0.00    +0.000 A 
ATOM     20  C   UNL     1      45.850   4.656   8.120  0.00  0.00    +0.000 A 
ATOM     21  C   UNL     1      46.624   3.745   7.395  0.00  0.00    +0.000 A 
ATOM     22  C   UNL     1      46.542   2.384   7.681  0.00  0.00    +0.000 A 
ATOM     23  C   UNL     1      45.666   2.006   8.684  0.00  0.00    +0.000 A 
ATOM     24  N   UNL     1      44.906   2.871   9.396  0.00  0.00    +0.000 NA
ATOM     25  H   UNL     1      44.878   5.802  10.239  0.00  0.00    +0.000 HD
BRANCH  22  26
ATOM     26  C   UNL     1      47.374   1.418   6.929  0.00  0.00    +0.000 C 
ATOM     27  N   UNL     1      48.502   1.858   6.297  0.00  0.00    +0.000 N 
ATOM     28  O   UNL     1      47.056   0.233   6.860  0.00  0.00    +0.000 OA
ATOM     29  H   UNL     1      48.855   2.803   6.288  0.00  0.00    +0.000 HD
ATOM     30  H   UNL     1      49.039   1.162   5.793  0.00  0.00    +0.000 HD
ENDBRANCH  22  26
ENDBRANCH  17  18
ENDBRANCH   1  17
TORSDOF 6
ENDMDL
MODEL 4
REMARK VINA RESULT:    -7.619      2.433      3.455
REMARK INTER + INTRA:         -11.406
REMARK INTER:                 -10.479
REMARK INTRA:                  -0.927
REMARK UNBOUND:                -1.114
REMARK  Name = 
REMARK  8 active torsions:
REMARK  status: ('A' for Active; 'I' for Inactive)
REMARK    1  A    between atoms: C_1  and  O_2
REMARK    2  A    between atoms: O_2  and  C_3
REMARK    3  A    between atoms: C_5  and  C_6
REMARK    4  A    between atoms: C_13  and  C_14
REMARK    5  A    between atoms: C_14  and  C_15
REMARK    6  A    between atoms: C_14  and  C_16
REMARK    7  A    between atoms: C_16  and  N_17
REMARK    8  A    between atoms: C_21  and  C_22
REMARK                            x       y       z     vdW  Elec       q    Type
REMARK                         _______ _______ _______ _____ _____    ______ ____
ROOT
ATOM      1  C   UNL     1      44.164   5.033  12.185  0.00  0.00    +0.000 C 
ATOM      2  C   UNL     1      43.030   4.967  13.216  0.00  0.00    +0.000 C 
ENDROOT
BRANCH   1   7
ATOM      3  C   UNL     1      46.726   7.862  12.573  0.00  0.00    +0.000 A 
ATOM      4  C   UNL     1      46.031   8.942  12.022  0.00  0.00    +0.000 A 
ATOM      5  C   UNL     1      44.733   8.795  11.503  0.00  0.00    +0.000 A 
ATOM      6  C   UNL     1      44.134   7.525  11.609  0.00  0.00    +0.000 A 
ATOM      7  C   UNL     1      44.805   6.420  12.166  0.00  0.00    +0.000 A 
ATOM      8  C   UNL     1      46.109   6.609  12.642  0.00  0.00    +0.000 A 
BRANCH   5   9
ATOM      9  C   UNL     1      44.051   9.909  10.799  0.00  0.00    +0.000 A 
ATOM     10  C   UNL     1      44.773  11.031  10.347  0.00  0.00    +0.000 A 
ATOM     11  C   UNL     1      44.160  12.053   9.614  0.00  0.00    +0.000 A 
ATOM     12  C   UNL     1      42.808  11.972   9.309  0.00  0.00    +0.000 A 
ATOM     13  C   UNL     1      42.064  10.883   9.754  0.00  0.00    +0.000 A 
ATOM     14  C   UNL     1      42.678   9.871  10.500  0.00  0.00    +0.000 A 
ENDBRANCH   5   9
BRANCH   3  16
ATOM     15  C   UNL     1      49.057   7.848  12.092  0.00  0.00    +0.000 C 
ATOM     16  O   UNL     1      48.009   7.908  13.054  0.00  0.00    +0.000 OA
ENDBRANCH   3  16
ENDBRANCH   1   7
BRANCH   1  17
ATOM     17  C   UNL     1      43.689   4.656  10.761  0.00  0.00    +0.000 C 
BRANCH  17  18
ATOM     18  N   UNL     1      43.888   3.229  10.457  0.00  0.00    +0.000 N 
ATOM     19  C   UNL     1      44.819   3.024   9.422  0.00  0.00    +0.000 A 
ATOM     20  C   UNL     1      45.085   1.720   9.006  0.00  0.00    +0.000 A 
ATOM     21  C   UNL     1      46.002   1.503   7.973  0.00  0.00    +0.000 A 
ATOM     22  C   UNL     1      46.639   2.587   7.373  0.00  0.00    +0.000 A 
ATOM     23  C   UNL     1      46.325   3.845   7.858  0.00  0.00    +0.000 A 
ATOM     24  N   UNL     1      45.443   4.076   8.859  0.00  0.00    +0.000 NA
ATOM     25  H   UNL     1      43.022   2.774  10.179  0.00  0.00    +0.000 HD
BRANCH  22  26
ATOM     26  C   UNL     1      47.596   2.365   6.266  0.00  0.00    +0.000 C 
ATOM     27  N   UNL     1      47.557   3.185   5.174  0.00  0.00    +0.000 N 
ATOM     28  O   UNL     1      48.415   1.450   6.316  0.00  0.00    +0.000 OA
ATOM     29  H   UNL     1      46.930   3.962   5.030  0.00  0.00    +0.000 HD
ATOM     30  H   UNL     1      48.230   2.994   4.441  0.00  0.00    +0.000 HD
ENDBRANCH  22  26
ENDBRANCH  17  18
ENDBRANCH   1  17
TORSDOF 6
ENDMDL
MODEL 5
REMARK VINA RESULT:    -7.491      2.157      3.393
REMARK INTER + INTRA:         -11.233
REMARK INTER:                 -10.321
REMARK INTRA:                  -0.913
REMARK UNBOUND:                -1.114
REMARK  Name = 
REMARK  8 active torsions:
REMARK  status: ('A' for Active; 'I' for Inactive)
REMARK    1  A    between atoms: C_1  and  O_2
REMARK    2  A    between atoms: O_2  and  C_3
REMARK    3  A    between atoms: C_5  and  C_6
REMARK    4  A    between atoms: C_13  and  C_14
REMARK    5  A    between atoms: C_14  and  C_15
REMARK    6  A    between atoms: C_14  and  C_16
REMARK    7  A    between atoms: C_16  and  N_17
REMARK    8  A    between atoms: C_21  and  C_22
REMARK                            x       y       z     vdW  Elec       q    Type
REMARK                         _______ _______ _______ _____ _____    ______ ____
ROOT
ATOM      1  C   UNL     1      44.138   4.991  12.162  0.00  0.00    +0.000 C 
ATOM      2  C   UNL     1      43.032   5.071  13.221  0.00  0.00    +0.000 C 
ENDROOT
BRANCH   1   7
ATOM      3  C   UNL     1      44.891   8.707  11.569  0.00  0.00    +0.000 A 
ATOM      4  C   UNL     1      46.228   8.785  11.969  0.00  0.00    +0.000 A 
ATOM      5  C   UNL     1      46.921   7.659  12.447  0.00  0.00    +0.000 A 
ATOM      6  C   UNL     1      46.231   6.431  12.457  0.00  0.00    +0.000 A 
ATOM      7  C   UNL     1      44.887   6.319  12.054  0.00  0.00    +0.000 A 
ATOM      8  C   UNL     1      44.230   7.475  11.613  0.00  0.00    +0.000 A 
BRANCH   5   9
ATOM      9  C   UNL     1      48.296   7.773  12.996  0.00  0.00    +0.000 A 
ATOM     10  C   UNL     1      49.266   8.572  12.359  0.00  0.00    +0.000 A 
ATOM     11  C   UNL     1      50.542   8.751  12.904  0.00  0.00    +0.000 A 
ATOM     12  C   UNL     1      50.875   8.141  14.106  0.00  0.00    +0.000 A 
ATOM     13  C   UNL     1      49.942   7.333  14.751  0.00  0.00    +0.000 A 
ATOM     14  C   UNL     1      48.672   7.144  14.195  0.00  0.00    +0.000 A 
ENDBRANCH   5   9
BRANCH   3  16
ATOM     15  C   UNL     1      44.826  10.956  10.795  0.00  0.00    +0.000 C 
ATOM     16  O   UNL     1      44.130   9.763  11.139  0.00  0.00    +0.000 OA
ENDBRANCH   3  16
ENDBRANCH   1   7
BRANCH   1  17
ATOM     17  C   UNL     1      43.596   4.581  10.773  0.00  0.00    +0.000 C 
BRANCH  17  18
ATOM     18  N   UNL     1      43.836   3.160  10.469  0.00  0.00    +0.000 N 
ATOM     19  C   UNL     1      44.778   2.981   9.438  0.00  0.00    +0.000 A 
ATOM     20  C   UNL     1      45.083   1.686   9.023  0.00  0.00    +0.000 A 
ATOM     21  C   UNL     1      46.010   1.496   7.994  0.00  0.00    +0.000 A 
ATOM     22  C   UNL     1      46.620   2.598   7.399  0.00  0.00    +0.000 A 
ATOM     23  C   UNL     1      46.269   3.846   7.883  0.00  0.00    +0.000 A 
ATOM     24  N   UNL     1      45.376   4.051   8.879  0.00  0.00    +0.000 NA
ATOM     25  H   UNL     1      42.985   2.681  10.186  0.00  0.00    +0.000 HD
BRANCH  22  26
ATOM     26  C   UNL     1      47.589   2.403   6.297  0.00  0.00    +0.000 C 
ATOM     27  N   UNL     1      47.467   3.151   5.160  0.00  0.00    +0.000 N 
ATOM     28  O   UNL     1      48.491   1.574   6.390  0.00  0.00    +0.000 OA
ATOM     29  H   UNL     1      46.769   3.856   4.978  0.00  0.00    +0.000 HD
ATOM     30  H   UNL     1      48.152   2.983   4.432  0.00  0.00    +0.000 HD
ENDBRANCH  22  26
ENDBRANCH  17  18
ENDBRANCH   1  17
TORSDOF 6
ENDMDL
MODEL 6
REMARK VINA RESULT:    -7.046      3.686      7.688
REMARK INTER + INTRA:         -10.631
REMARK INTER:                  -9.450
REMARK INTRA:                  -1.181
REMARK UNBOUND:                -1.114
REMARK  Name = 
REMARK  8 active torsions:
REMARK  status: ('A' for Active; 'I' for Inactive)
REMARK    1  A    between atoms: C_1  and  O_2
REMARK    2  A    between atoms: O_2  and  C_3
REMARK    3  A    between atoms: C_5  and  C_6
REMARK    4  A    between atoms: C_13  and  C_14
REMARK    5  A    between atoms: C_14  and  C_15
REMARK    6  A    between atoms: C_14  and  C_16
REMARK    7  A    between atoms: C_16  and  N_17
REMARK    8  A    between atoms: C_21  and  C_22
REMARK                            x       y       z     vdW  Elec       q    Type
REMARK                         _______ _______ _______ _____ _____    ______ ____
ROOT
ATOM      1  C   UNL     1      48.987   8.578  11.984  0.00  0.00    +0.000 C 
ATOM      2  C   UNL     1      49.258   9.817  12.848  0.00  0.00    +0.000 C 
ENDROOT
BRANCH   1   7
ATOM      3  C   UNL     1      45.187   9.105  11.948  0.00  0.00    +0.000 A 
ATOM      4  C   UNL     1      44.737   7.841  11.554  0.00  0.00    +0.000 A 
ATOM      5  C   UNL     1      45.632   6.794  11.278  0.00  0.00    +0.000 A 
ATOM      6  C   UNL     1      47.004   7.048  11.470  0.00  0.00    +0.000 A 
ATOM      7  C   UNL     1      47.487   8.306  11.874  0.00  0.00    +0.000 A 
ATOM      8  C   UNL     1      46.558   9.329  12.107  0.00  0.00    +0.000 A 
BRANCH   5   9
ATOM      9  C   UNL     1      45.159   5.497  10.731  0.00  0.00    +0.000 A 
ATOM     10  C   UNL     1      45.501   5.093   9.426  0.00  0.00    +0.000 A 
ATOM     11  C   UNL     1      45.130   3.842   8.923  0.00  0.00    +0.000 A 
ATOM     12  C   UNL     1      44.412   2.959   9.720  0.00  0.00    +0.000 A 
ATOM     13  C   UNL     1      44.046   3.336  11.009  0.00  0.00    +0.000 A 
ATOM     14  C   UNL     1      44.406   4.594  11.503  0.00  0.00    +0.000 A 
ENDBRANCH   5   9
BRANCH   3  16
ATOM     15  C   UNL     1      44.844  11.446  11.691  0.00  0.00    +0.000 C 
ATOM     16  O   UNL     1      44.386  10.191  12.187  0.00  0.00    +0.000 OA
ENDBRANCH   3  16
ENDBRANCH   1   7
BRANCH   1  17
ATOM     17  C   UNL     1      49.710   7.319  12.517  0.00  0.00    +0.000 C 
BRANCH  17  18
ATOM     18  N   UNL     1      50.176   7.477  13.904  0.00  0.00    +0.000 N 
ATOM     19  C   UNL     1      49.433   6.702  14.814  0.00  0.00    +0.000 A 
ATOM     20  C   UNL     1      49.743   6.775  16.171  0.00  0.00    +0.000 A 
ATOM     21  C   UNL     1      49.007   6.017  17.086  0.00  0.00    +0.000 A 
ATOM     22  C   UNL     1      47.974   5.198  16.634  0.00  0.00    +0.000 A 
ATOM     23  C   UNL     1      47.744   5.175  15.269  0.00  0.00    +0.000 A 
ATOM     24  N   UNL     1      48.447   5.900  14.367  0.00  0.00    +0.000 NA
ATOM     25  H   UNL     1      50.124   8.443  14.217  0.00  0.00    +0.000 HD
BRANCH  22  26
ATOM     26  C   UNL     1      47.179   4.407  17.600  0.00  0.00    +0.000 C 
ATOM     27  N   UNL     1      47.036   4.864  18.879  0.00  0.00    +0.000 N 
ATOM     28  O   UNL     1      46.657   3.346  17.267  0.00  0.00    +0.000 OA
ATOM     29  H   UNL     1      47.419   5.717  19.258  0.00  0.00    +0.000 HD
ATOM     30  H   UNL     1      46.484   4.289  19.506  0.00  0.00    +0.000 HD
ENDBRANCH  22  26
ENDBRANCH  17  18
ENDBRANCH   1  17
TORSDOF 6
ENDMDL
MODEL 7
REMARK VINA RESULT:    -6.683      4.277      8.223
REMARK INTER + INTRA:         -10.141
REMARK INTER:                  -9.297
REMARK INTRA:                  -0.844
REMARK UNBOUND:                -1.114
REMARK  Name = 
REMARK  8 active torsions:
REMARK  status: ('A' for Active; 'I' for Inactive)
REMARK    1  A    between atoms: C_1  and  O_2
REMARK    2  A    between atoms: O_2  and  C_3
REMARK    3  A    between atoms: C_5  and  C_6
REMARK    4  A    between atoms: C_13  and  C_14
REMARK    5  A    between atoms: C_14  and  C_15
REMARK    6  A    between atoms: C_14  and  C_16
REMARK    7  A    between atoms: C_16  and  N_17
REMARK    8  A    between atoms: C_21  and  C_22
REMARK                            x       y       z     vdW  Elec       q    Type
REMARK                         _______ _______ _______ _____ _____    ______ ____
ROOT
ATOM      1  C   UNL     1      48.772   7.278  13.388  0.00  0.00    +0.000 C 
ATOM      2  C   UNL     1      49.725   8.257  12.691  0.00  0.00    +0.000 C 
ENDROOT
BRANCH   1   7
ATOM      3  C   UNL     1      45.373   8.514  12.107  0.00  0.00    +0.000 A 
ATOM      4  C   UNL     1      44.906   7.384  11.429  0.00  0.00    +0.000 A 
ATOM      5  C   UNL     1      45.666   6.204  11.354  0.00  0.00    +0.000 A 
ATOM      6  C   UNL     1      46.897   6.183  12.037  0.00  0.00    +0.000 A 
ATOM      7  C   UNL     1      47.391   7.302  12.734  0.00  0.00    +0.000 A 
ATOM      8  C   UNL     1      46.611   8.465  12.756  0.00  0.00    +0.000 A 
BRANCH   5   9
ATOM      9  C   UNL     1      45.228   5.054  10.523  0.00  0.00    +0.000 A 
ATOM     10  C   UNL     1      45.523   5.001   9.146  0.00  0.00    +0.000 A 
ATOM     11  C   UNL     1      45.186   3.891   8.365  0.00  0.00    +0.000 A 
ATOM     12  C   UNL     1      44.551   2.801   8.947  0.00  0.00    +0.000 A 
ATOM     13  C   UNL     1      44.233   2.830  10.302  0.00  0.00    +0.000 A 
ATOM     14  C   UNL     1      44.558   3.949  11.076  0.00  0.00    +0.000 A 
ENDBRANCH   5   9
BRANCH   3  16
ATOM     15  C   UNL     1      45.432  10.863  11.735  0.00  0.00    +0.000 C 
ATOM     16  O   UNL     1      44.719   9.716  12.186  0.00  0.00    +0.000 OA
ENDBRANCH   3  16
ENDBRANCH   1   7
BRANCH   1  17
ATOM     17  C   UNL     1      48.639   7.562  14.903  0.00  0.00    +0.000 C 
BRANCH  17  18
ATOM     18  N   UNL     1      48.098   6.415  15.649  0.00  0.00    +0.000 N 
ATOM     19  C   UNL     1      49.093   5.717  16.360  0.00  0.00    +0.000 A 
ATOM     20  C   UNL     1      48.730   4.586  17.090  0.00  0.00    +0.000 A 
ATOM     21  C   UNL     1      49.710   3.879  17.793  0.00  0.00    +0.000 A 
ATOM     22  C   UNL     1      51.034   4.311  17.758  0.00  0.00    +0.000 A 
ATOM     23  C   UNL     1      51.302   5.450  17.021  0.00  0.00    +0.000 A 
ATOM     24  N   UNL     1      50.368   6.151  16.335  0.00  0.00    +0.000 NA
ATOM     25  H   UNL     1      47.637   5.745  15.039  0.00  0.00    +0.000 HD
BRANCH  22  26
ATOM     26  C   UNL     1      52.079   3.556  18.486  0.00  0.00    +0.000 C 
ATOM     27  N   UNL     1      52.250   2.227  18.219  0.00  0.00    +0.000 N 
ATOM     28  O   UNL     1      52.784   4.107  19.327  0.00  0.00    +0.000 OA
ATOM     29  H   UNL     1      51.730   1.677  17.551  0.00  0.00    +0.000 HD
ATOM     30  H   UNL     1      52.976   1.750  18.742  0.00  0.00    +0.000 HD
ENDBRANCH  22  26
ENDBRANCH  17  18
ENDBRANCH   1  17
TORSDOF 6
ENDMDL
MODEL 8
REMARK VINA RESULT:    -6.451      4.507      6.615
REMARK INTER + INTRA:          -9.828
REMARK INTER:                  -8.945
REMARK INTRA:                  -0.882
REMARK UNBOUND:                -1.114
REMARK  Name = 
REMARK  8 active torsions:
REMARK  status: ('A' for Active; 'I' for Inactive)
REMARK    1  A    between atoms: C_1  and  O_2
REMARK    2  A    between atoms: O_2  and  C_3
REMARK    3  A    between atoms: C_5  and  C_6
REMARK    4  A    between atoms: C_13  and  C_14
REMARK    5  A    between atoms: C_14  and  C_15
REMARK    6  A    between atoms: C_14  and  C_16
REMARK    7  A    between atoms: C_16  and  N_17
REMARK    8  A    between atoms: C_21  and  C_22
REMARK                            x       y       z     vdW  Elec       q    Type
REMARK                         _______ _______ _______ _____ _____    ______ ____
ROOT
ATOM      1  C   UNL     1      47.671   3.907  17.509  0.00  0.00    +0.000 C 
ATOM      2  C   UNL     1      47.274   5.246  18.143  0.00  0.00    +0.000 C 
ENDROOT
BRANCH   1   7
ATOM      3  C   UNL     1      51.124   2.235  17.431  0.00  0.00    +0.000 A 
ATOM      4  C   UNL     1      51.969   3.343  17.541  0.00  0.00    +0.000 A 
ATOM      5  C   UNL     1      51.462   4.650  17.631  0.00  0.00    +0.000 A 
ATOM      6  C   UNL     1      50.063   4.800  17.663  0.00  0.00    +0.000 A 
ATOM      7  C   UNL     1      49.185   3.704  17.563  0.00  0.00    +0.000 A 
ATOM      8  C   UNL     1      49.738   2.423  17.444  0.00  0.00    +0.000 A 
BRANCH   5   9
ATOM      9  C   UNL     1      52.362   5.831  17.612  0.00  0.00    +0.000 A 
ATOM     10  C   UNL     1      52.851   6.389  18.810  0.00  0.00    +0.000 A 
ATOM     11  C   UNL     1      53.760   7.453  18.807  0.00  0.00    +0.000 A 
ATOM     12  C   UNL     1      54.208   7.979  17.602  0.00  0.00    +0.000 A 
ATOM     13  C   UNL     1      53.731   7.458  16.402  0.00  0.00    +0.000 A 
ATOM     14  C   UNL     1      52.811   6.405  16.409  0.00  0.00    +0.000 A 
ENDBRANCH   5   9
BRANCH   3  16
ATOM     15  C   UNL     1      52.856   0.630  17.725  0.00  0.00    +0.000 C 
ATOM     16  O   UNL     1      51.535   0.935  17.289  0.00  0.00    +0.000 OA
ENDBRANCH   3  16
ENDBRANCH   1   7
BRANCH   1  17
ATOM     17  C   UNL     1      47.177   3.776  16.049  0.00  0.00    +0.000 C 
BRANCH  17  18
ATOM     18  N   UNL     1      47.276   5.041  15.302  0.00  0.00    +0.000 N 
ATOM     19  C   UNL     1      46.628   4.981  14.054  0.00  0.00    +0.000 A 
ATOM     20  C   UNL     1      46.665   6.100  13.222  0.00  0.00    +0.000 A 
ATOM     21  C   UNL     1      46.033   6.050  11.977  0.00  0.00    +0.000 A 
ATOM     22  C   UNL     1      45.372   4.889  11.581  0.00  0.00    +0.000 A 
ATOM     23  C   UNL     1      45.373   3.832  12.474  0.00  0.00    +0.000 A 
ATOM     24  N   UNL     1      45.977   3.861  13.686  0.00  0.00    +0.000 NA
ATOM     25  H   UNL     1      48.241   5.307  15.128  0.00  0.00    +0.000 HD
BRANCH  22  26
ATOM     26  C   UNL     1      44.717   4.824  10.255  0.00  0.00    +0.000 C 
ATOM     27  N   UNL     1      45.449   5.096   9.134  0.00  0.00    +0.000 N 
ATOM     28  O   UNL     1      43.526   4.539  10.154  0.00  0.00    +0.000 OA
ATOM     29  H   UNL     1      46.428   5.339   9.101  0.00  0.00    +0.000 HD
ATOM     30  H   UNL     1      44.959   5.041   8.249  0.00  0.00    +0.000 HD
ENDBRANCH  22  26
ENDBRANCH  17  18
ENDBRANCH   1  17
TORSDOF 6
ENDMDL
MODEL 9
REMARK VINA RESULT:    -6.346      3.171      6.147
REMARK INTER + INTRA:          -9.687
REMARK INTER:                  -8.728
REMARK INTRA:                  -0.959
REMARK UNBOUND:                -1.114
REMARK  Name = 
REMARK  8 active torsions:
REMARK  status: ('A' for Active; 'I' for Inactive)
REMARK    1  A    between atoms: C_1  and  O_2
REMARK    2  A    between atoms: O_2  and  C_3
REMARK    3  A    between atoms: C_5  and  C_6
REMARK    4  A    between atoms: C_13  and  C_14
REMARK    5  A    between atoms: C_14  and  C_15
REMARK    6  A    between atoms: C_14  and  C_16
REMARK    7  A    between atoms: C_16  and  N_17
REMARK    8  A    between atoms: C_21  and  C_22
REMARK                            x       y       z     vdW  Elec       q    Type
REMARK                         _______ _______ _______ _____ _____    ______ ____
ROOT
ATOM      1  C   UNL     1      48.446   8.593  12.775  0.00  0.00    +0.000 C 
ATOM      2  C   UNL     1      49.253   7.567  11.971  0.00  0.00    +0.000 C 
ENDROOT
BRANCH   1   7
ATOM      3  C   UNL     1      48.486   9.152  16.571  0.00  0.00    +0.000 A 
ATOM      4  C   UNL     1      48.709   7.854  17.039  0.00  0.00    +0.000 A 
ATOM      5  C   UNL     1      48.841   6.767  16.159  0.00  0.00    +0.000 A 
ATOM      6  C   UNL     1      48.796   7.042  14.779  0.00  0.00    +0.000 A 
ATOM      7  C   UNL     1      48.581   8.339  14.277  0.00  0.00    +0.000 A 
ATOM      8  C   UNL     1      48.425   9.387  15.193  0.00  0.00    +0.000 A 
BRANCH   5   9
ATOM      9  C   UNL     1      48.943   5.373  16.661  0.00  0.00    +0.000 A 
ATOM     10  C   UNL     1      47.910   4.443  16.433  0.00  0.00    +0.000 A 
ATOM     11  C   UNL     1      48.023   3.107  16.832  0.00  0.00    +0.000 A 
ATOM     12  C   UNL     1      49.180   2.667  17.463  0.00  0.00    +0.000 A 
ATOM     13  C   UNL     1      50.212   3.567  17.716  0.00  0.00    +0.000 A 
ATOM     14  C   UNL     1      50.088   4.906  17.330  0.00  0.00    +0.000 A 
ENDBRANCH   5   9
BRANCH   3  16
ATOM     15  C   UNL     1      48.808  11.491  16.867  0.00  0.00    +0.000 C 
ATOM     16  O   UNL     1      48.297  10.257  17.360  0.00  0.00    +0.000 OA
ENDBRANCH   3  16
ENDBRANCH   1   7
BRANCH   1  17
ATOM     17  C   UNL     1      46.951   8.608  12.379  0.00  0.00    +0.000 C 
BRANCH  17  18
ATOM     18  N   UNL     1      46.130   7.732  13.231  0.00  0.00    +0.000 N 
ATOM     19  C   UNL     1      45.619   6.623  12.530  0.00  0.00    +0.000 A 
ATOM     20  C   UNL     1      44.797   5.721  13.204  0.00  0.00    +0.000 A 
ATOM     21  C   UNL     1      44.277   4.621  12.516  0.00  0.00    +0.000 A 
ATOM     22  C   UNL     1      44.585   4.437  11.170  0.00  0.00    +0.000 A 
ATOM     23  C   UNL     1      45.419   5.372  10.584  0.00  0.00    +0.000 A 
ATOM     24  N   UNL     1      45.935   6.443  11.233  0.00  0.00    +0.000 NA
ATOM     25  H   UNL     1      45.338   8.224  13.635  0.00  0.00    +0.000 HD
BRANCH  22  26
ATOM     26  C   UNL     1      44.021   3.283  10.433  0.00  0.00    +0.000 C 
ATOM     27  N   UNL     1      44.341   3.113   9.115  0.00  0.00    +0.000 N 
ATOM     28  O   UNL     1      43.268   2.488  10.988  0.00  0.00    +0.000 OA
ATOM     29  H   UNL     1      44.947   3.702   8.564  0.00  0.00    +0.000 HD
ATOM     30  H   UNL     1      43.931   2.311   8.651  0.00  0.00    +0.000 HD
ENDBRANCH  22  26
ENDBRANCH  17  18
ENDBRANCH   1  17
TORSDOF 6
ENDMDL
