MODEL 1
REMARK VINA RESULT:    -8.568      0.000      0.000
REMARK INTER + INTRA:         -14.234
REMARK INTER:                 -12.825
REMARK INTRA:                  -1.409
REMARK UNBOUND:                -1.409
REMARK  Name = 
REMARK  9 active torsions:
REMARK  status: ('A' for Active; 'I' for Inactive)
REMARK    1  A    between atoms: C_2  and  C_4
REMARK    2  A    between atoms: C_7  and  C_8
REMARK    3  A    between atoms: C_8  and  O_9
REMARK    4  A    between atoms: O_9  and  C_10
REMARK    5  A    between atoms: C_10  and  C_11
REMARK    6  A    between atoms: C_14  and  C_15
REMARK    7  A    between atoms: C_15  and  N_16
REMARK    8  A    between atoms: C_17  and  C_19
REMARK    9  A    between atoms: C_26  and  O_27
REMARK                            x       y       z     vdW  Elec       q    Type
REMARK                         _______ _______ _______ _____ _____    ______ ____
ROOT
ATOM      1  C   UNL     1      44.553   5.878  12.123  0.00  0.00    +0.000 A 
ATOM      2  C   UNL     1      45.001   5.181  13.255  0.00  0.00    +0.000 A 
ATOM      3  C   UNL     1      46.294   5.376  13.750  0.00  0.00    +0.000 A 
ATOM      4  C   UNL     1      47.166   6.282  13.131  0.00  0.00    +0.000 A 
ATOM      5  C   UNL     1      46.733   6.949  11.977  0.00  0.00    +0.000 A 
ATOM      6  C   UNL     1      45.440   6.752  11.482  0.00  0.00    +0.000 A 
ENDROOT
BRANCH   1   7
ATOM      7  C   UNL     1      43.152   5.675  11.602  0.00  0.00    +0.000 C 
BRANCH   7   8
ATOM      8  O   UNL     1      43.213   4.992  10.351  0.00  0.00    +0.000 OA
BRANCH   8   9
ATOM      9  C   UNL     1      43.638   3.638  10.507  0.00  0.00    +0.000 C 
BRANCH   9  13
ATOM     10  C   UNL     1      46.543   2.638   7.458  0.00  0.00    +0.000 A 
ATOM     11  C   UNL     1      45.969   1.625   8.234  0.00  0.00    +0.000 A 
ATOM     12  C   UNL     1      45.028   1.946   9.218  0.00  0.00    +0.000 A 
ATOM     13  C   UNL     1      44.660   3.279   9.455  0.00  0.00    +0.000 A 
ATOM     14  C   UNL     1      45.229   4.285   8.659  0.00  0.00    +0.000 A 
ATOM     15  C   UNL     1      46.172   3.968   7.676  0.00  0.00    +0.000 A 
BRANCH  10  17
ATOM     16  N   UNL     1      47.504   3.060   5.257  0.00  0.00    +0.000 N 
ATOM     17  C   UNL     1      47.571   2.350   6.424  0.00  0.00    +0.000 C 
ATOM     18  O   UNL     1      48.467   1.537   6.615  0.00  0.00    +0.000 OA
ATOM     19  H   UNL     1      48.265   2.923   4.605  0.00  0.00    +0.000 HD
ATOM     20  H   UNL     1      46.945   3.895   5.162  0.00  0.00    +0.000 HD
ENDBRANCH  10  17
ENDBRANCH   9  13
ENDBRANCH   8   9
ENDBRANCH   7   8
ENDBRANCH   1   7
BRANCH   4  21
ATOM     21  C   UNL     1      48.552   6.518  13.678  0.00  0.00    +0.000 C 
BRANCH  21  22
ATOM     22  N   UNL     1      48.498   7.130  14.979  0.00  0.00    +0.000 N 
ATOM     23  C   UNL     1      48.736   6.419  16.125  0.00  0.00    +0.000 C 
ATOM     24  O   UNL     1      48.880   5.199  16.126  0.00  0.00    +0.000 OA
ATOM     25  H   UNL     1      48.570   8.140  15.005  0.00  0.00    +0.000 HD
BRANCH  23  26
ATOM     26  C   UNL     1      48.768   7.199  17.368  0.00  0.00    +0.000 A 
ATOM     27  C   UNL     1      49.430   8.420  17.412  0.00  0.00    +0.000 A 
ATOM     28  S   UNL     1      49.390   9.157  18.950  0.00  0.00    +0.000 S 
ATOM     29  C   UNL     1      48.451   7.893  19.589  0.00  0.00    +0.000 A 
ATOM     30  N   UNL     1      48.055   7.923  20.875  0.00  0.00    +0.000 NA
ATOM     31  C   UNL     1      47.315   6.864  21.213  0.00  0.00    +0.000 A 
ATOM     32  N   UNL     1      46.956   5.835  20.429  0.00  0.00    +0.000 NA
ATOM     33  C   UNL     1      47.386   5.870  19.167  0.00  0.00    +0.000 A 
ATOM     34  C   UNL     1      48.174   6.901  18.659  0.00  0.00    +0.000 A 
BRANCH  33  35
ATOM     35  O   UNL     1      46.993   4.791  18.429  0.00  0.00    +0.000 OA
ATOM     36  H   UNL     1      46.274   4.441  18.990  0.00  0.00    +0.000 HD
ENDBRANCH  33  35
ENDBRANCH  23  26
ENDBRANCH  21  22
ENDBRANCH   4  21
TORSDOF 9
ENDMDL
MODEL 2
REMARK VINA RESULT:    -8.455      2.088      2.442
REMARK INTER + INTRA:         -14.065
REMARK INTER:                 -12.868
REMARK INTRA:                  -1.197
REMARK UNBOUND:                -1.409
REMARK  Name = 
REMARK  9 active torsions:
REMARK  status: ('A' for Active; 'I' for Inactive)
REMARK    1  A    between atoms: C_2  and  C_4
REMARK    2  A    between atoms: C_7  and  C_8
REMARK    3  A    between atoms: C_8  and  O_9
REMARK    4  A    between atoms: O_9  and  C_10
REMARK    5  A    between atoms: C_10  and  C_11
REMARK    6  A    between atoms: C_14  and  C_15
REMARK    7  A    between atoms: C_15  and  N_16
REMARK    8  A    between atoms: C_17  and  C_19
REMARK    9  A    between atoms: C_26  and  O_27
REMARK                            x       y       z     vdW  Elec       q    Type
REMARK                         _______ _______ _______ _____ _____    ______ ____
ROOT
ATOM      1  C   UNL     1      44.734   6.200  11.923  0.00  0.00    +0.000 A 
ATOM      2  C   UNL     1      45.080   7.541  11.701  0.00  0.00    +0.000 A 
ATOM      3  C   UNL     1      46.383   7.991  11.933  0.00  0.00    +0.000 A 
ATOM      4  C   UNL     1      47.375   7.108  12.380  0.00  0.00    +0.000 A 
ATOM      5  C   UNL     1      47.020   5.777  12.640  0.00  0.00    +0.000 A 
ATOM      6  C   UNL     1      45.715   5.328  12.410  0.00  0.00    +0.000 A 
ENDROOT
BRANCH   1   7
ATOM      7  C   UNL     1      43.330   5.716  11.659  0.00  0.00    +0.000 C 
BRANCH   7   8
ATOM      8  O   UNL     1      43.292   5.060  10.393  0.00  0.00    +0.000 OA
BRANCH   8   9
ATOM      9  C   UNL     1      43.683   3.691  10.495  0.00  0.00    +0.000 C 
BRANCH   9  13
ATOM     10  C   UNL     1      46.632   2.687   7.490  0.00  0.00    +0.000 A 
ATOM     11  C   UNL     1      46.276   4.023   7.699  0.00  0.00    +0.000 A 
ATOM     12  C   UNL     1      45.325   4.350   8.671  0.00  0.00    +0.000 A 
ATOM     13  C   UNL     1      44.704   3.351   9.434  0.00  0.00    +0.000 A 
ATOM     14  C   UNL     1      45.081   2.015   9.229  0.00  0.00    +0.000 A 
ATOM     15  C   UNL     1      46.029   1.684   8.256  0.00  0.00    +0.000 A 
BRANCH  10  17
ATOM     16  N   UNL     1      47.714   3.086   5.341  0.00  0.00    +0.000 N 
ATOM     17  C   UNL     1      47.612   2.287   6.446  0.00  0.00    +0.000 C 
ATOM     18  O   UNL     1      48.328   1.303   6.579  0.00  0.00    +0.000 OA
ATOM     19  H   UNL     1      48.450   2.856   4.687  0.00  0.00    +0.000 HD
ATOM     20  H   UNL     1      47.329   4.019   5.309  0.00  0.00    +0.000 HD
ENDBRANCH  10  17
ENDBRANCH   9  13
ENDBRANCH   8   9
ENDBRANCH   7   8
ENDBRANCH   1   7
BRANCH   4  21
ATOM     21  C   UNL     1      48.790   7.581  12.603  0.00  0.00    +0.000 C 
BRANCH  21  22
ATOM     22  N   UNL     1      49.375   6.941  13.751  0.00  0.00    +0.000 N 
ATOM     23  C   UNL     1      49.124   7.370  15.027  0.00  0.00    +0.000 C 
ATOM     24  O   UNL     1      48.497   8.399  15.265  0.00  0.00    +0.000 OA
ATOM     25  H   UNL     1      49.731   6.003  13.611  0.00  0.00    +0.000 HD
BRANCH  23  26
ATOM     26  C   UNL     1      49.689   6.548  16.103  0.00  0.00    +0.000 A 
ATOM     27  C   UNL     1      50.935   6.854  16.638  0.00  0.00    +0.000 A 
ATOM     28  S   UNL     1      51.439   5.764  17.849  0.00  0.00    +0.000 S 
ATOM     29  C   UNL     1      49.992   4.881  17.729  0.00  0.00    +0.000 A 
ATOM     30  N   UNL     1      49.780   3.812  18.518  0.00  0.00    +0.000 NA
ATOM     31  C   UNL     1      48.591   3.239  18.307  0.00  0.00    +0.000 A 
ATOM     32  N   UNL     1      47.650   3.616  17.428  0.00  0.00    +0.000 NA
ATOM     33  C   UNL     1      47.928   4.682  16.676  0.00  0.00    +0.000 A 
ATOM     34  C   UNL     1      49.127   5.386  16.768  0.00  0.00    +0.000 A 
BRANCH  33  35
ATOM     35  O   UNL     1      46.933   5.004  15.799  0.00  0.00    +0.000 OA
ATOM     36  H   UNL     1      47.038   4.292  15.139  0.00  0.00    +0.000 HD
ENDBRANCH  33  35
ENDBRANCH  23  26
ENDBRANCH  21  22
ENDBRANCH   4  21
TORSDOF 9
ENDMDL
MODEL 3
REMARK VINA RESULT:    -8.144      1.443      1.991
REMARK INTER + INTRA:         -13.600
REMARK INTER:                 -12.280
REMARK INTRA:                  -1.319
REMARK UNBOUND:                -1.409
REMARK  Name = 
REMARK  9 active torsions:
REMARK  status: ('A' for Active; 'I' for Inactive)
REMARK    1  A    between atoms: C_2  and  C_4
REMARK    2  A    between atoms: C_7  and  C_8
REMARK    3  A    between atoms: C_8  and  O_9
REMARK    4  A    between atoms: O_9  and  C_10
REMARK    5  A    between atoms: C_10  and  C_11
REMARK    6  A    between atoms: C_14  and  C_15
REMARK    7  A    between atoms: C_15  and  N_16
REMARK    8  A    between atoms: C_17  and  C_19
REMARK    9  A    between atoms: C_26  and  O_27
REMARK                            x       y       z     vdW  Elec       q    Type
REMARK                         _______ _______ _______ _____ _____    ______ ____
ROOT
ATOM      1  C   UNL     1      44.510   5.956  12.367  0.00  0.00    +0.000 A 
ATOM      2  C   UNL     1      45.022   7.191  11.944  0.00  0.00    +0.000 A 
ATOM      3  C   UNL     1      46.293   7.613  12.344  0.00  0.00    +0.000 A 
ATOM      4  C   UNL     1      47.088   6.803  13.167  0.00  0.00    +0.000 A 
ATOM      5  C   UNL     1      46.561   5.587  13.622  0.00  0.00    +0.000 A 
ATOM      6  C   UNL     1      45.288   5.167  13.223  0.00  0.00    +0.000 A 
ENDROOT
BRANCH   1   7
ATOM      7  C   UNL     1      43.143   5.499  11.921  0.00  0.00    +0.000 C 
BRANCH   7   8
ATOM      8  O   UNL     1      43.242   4.930  10.617  0.00  0.00    +0.000 OA
BRANCH   8   9
ATOM      9  C   UNL     1      43.662   3.567  10.666  0.00  0.00    +0.000 C 
BRANCH   9  13
ATOM     10  C   UNL     1      46.517   2.705   7.529  0.00  0.00    +0.000 A 
ATOM     11  C   UNL     1      46.151   4.028   7.794  0.00  0.00    +0.000 A 
ATOM     12  C   UNL     1      45.231   4.309   8.809  0.00  0.00    +0.000 A 
ATOM     13  C   UNL     1      44.649   3.276   9.560  0.00  0.00    +0.000 A 
ATOM     14  C   UNL     1      45.037   1.954   9.297  0.00  0.00    +0.000 A 
ATOM     15  C   UNL     1      45.955   1.668   8.281  0.00  0.00    +0.000 A 
BRANCH  10  17
ATOM     16  N   UNL     1      47.516   3.189   5.357  0.00  0.00    +0.000 N 
ATOM     17  C   UNL     1      47.465   2.354   6.439  0.00  0.00    +0.000 C 
ATOM     18  O   UNL     1      48.201   1.378   6.515  0.00  0.00    +0.000 OA
ATOM     19  H   UNL     1      48.232   2.991   4.671  0.00  0.00    +0.000 HD
ATOM     20  H   UNL     1      47.117   4.116   5.368  0.00  0.00    +0.000 HD
ENDBRANCH  10  17
ENDBRANCH   9  13
ENDBRANCH   8   9
ENDBRANCH   7   8
ENDBRANCH   1   7
BRANCH   4  21
ATOM     21  C   UNL     1      48.472   7.240  13.578  0.00  0.00    +0.000 C 
BRANCH  21  22
ATOM     22  N   UNL     1      48.901   6.552  14.766  0.00  0.00    +0.000 N 
ATOM     23  C   UNL     1      48.870   7.147  16.000  0.00  0.00    +0.000 C 
ATOM     24  O   UNL     1      48.603   8.337  16.151  0.00  0.00    +0.000 OA
ATOM     25  H   UNL     1      48.944   5.541  14.712  0.00  0.00    +0.000 HD
BRANCH  23  26
ATOM     26  C   UNL     1      49.220   6.287  17.136  0.00  0.00    +0.000 A 
ATOM     27  C   UNL     1      50.209   5.320  17.004  0.00  0.00    +0.000 A 
ATOM     28  S   UNL     1      50.446   4.395  18.417  0.00  0.00    +0.000 S 
ATOM     29  C   UNL     1      49.271   5.287  19.260  0.00  0.00    +0.000 A 
ATOM     30  N   UNL     1      48.996   5.006  20.547  0.00  0.00    +0.000 NA
ATOM     31  C   UNL     1      48.060   5.807  21.065  0.00  0.00    +0.000 A 
ATOM     32  N   UNL     1      47.409   6.805  20.448  0.00  0.00    +0.000 NA
ATOM     33  C   UNL     1      47.729   7.027  19.172  0.00  0.00    +0.000 A 
ATOM     34  C   UNL     1      48.680   6.274  18.484  0.00  0.00    +0.000 A 
BRANCH  33  35
ATOM     35  O   UNL     1      47.025   8.048  18.604  0.00  0.00    +0.000 OA
ATOM     36  H   UNL     1      46.253   8.089  19.202  0.00  0.00    +0.000 HD
ENDBRANCH  33  35
ENDBRANCH  23  26
ENDBRANCH  21  22
ENDBRANCH   4  21
TORSDOF 9
ENDMDL
MODEL 4
REMARK VINA RESULT:    -7.719      1.302      1.866
REMARK INTER + INTRA:         -12.964
REMARK INTER:                 -11.737
REMARK INTRA:                  -1.227
REMARK UNBOUND:                -1.409
REMARK  Name = 
REMARK  9 active torsions:
REMARK  status: ('A' for Active; 'I' for Inactive)
REMARK    1  A    between atoms: C_2  and  C_4
REMARK    2  A    between atoms: C_7  and  C_8
REMARK    3  A    between atoms: C_8  and  O_9
REMARK    4  A    between atoms: O_9  and  C_10
REMARK    5  A    between atoms: C_10  and  C_11
REMARK    6  A    between atoms: C_14  and  C_15
REMARK    7  A    between atoms: C_15  and  N_16
REMARK    8  A    between atoms: C_17  and  C_19
REMARK    9  A    between atoms: C_26  and  O_27
REMARK                            x       y       z     vdW  Elec       q    Type
REMARK                         _______ _______ _______ _____ _____    ______ ____
ROOT
ATOM      1  C   UNL     1      45.949   5.013  12.878  0.00  0.00    +0.000 A 
ATOM      2  C   UNL     1      46.461   6.176  12.286  0.00  0.00    +0.000 A 
ATOM      3  C   UNL     1      47.533   6.862  12.866  0.00  0.00    +0.000 A 
ATOM      4  C   UNL     1      48.127   6.392  14.046  0.00  0.00    +0.000 A 
ATOM      5  C   UNL     1      47.590   5.252  14.659  0.00  0.00    +0.000 A 
ATOM      6  C   UNL     1      46.516   4.568  14.079  0.00  0.00    +0.000 A 
ENDROOT
BRANCH   1   7
ATOM      7  C   UNL     1      44.801   4.269  12.241  0.00  0.00    +0.000 C 
BRANCH   7   8
ATOM      8  O   UNL     1      44.206   5.094  11.242  0.00  0.00    +0.000 OA
BRANCH   8   9
ATOM      9  C   UNL     1      43.588   4.318  10.215  0.00  0.00    +0.000 C 
BRANCH   9  13
ATOM     10  C   UNL     1      46.591   2.666   7.571  0.00  0.00    +0.000 A 
ATOM     11  C   UNL     1      46.405   4.050   7.636  0.00  0.00    +0.000 A 
ATOM     12  C   UNL     1      45.437   4.586   8.492  0.00  0.00    +0.000 A 
ATOM     13  C   UNL     1      44.630   3.752   9.279  0.00  0.00    +0.000 A 
ATOM     14  C   UNL     1      44.837   2.365   9.219  0.00  0.00    +0.000 A 
ATOM     15  C   UNL     1      45.802   1.825   8.363  0.00  0.00    +0.000 A 
BRANCH  10  17
ATOM     16  N   UNL     1      48.019   2.801   5.600  0.00  0.00    +0.000 N 
ATOM     17  C   UNL     1      47.583   2.047   6.653  0.00  0.00    +0.000 C 
ATOM     18  O   UNL     1      48.024   0.921   6.846  0.00  0.00    +0.000 OA
ATOM     19  H   UNL     1      48.764   2.405   5.042  0.00  0.00    +0.000 HD
ATOM     20  H   UNL     1      47.872   3.799   5.549  0.00  0.00    +0.000 HD
ENDBRANCH  10  17
ENDBRANCH   9  13
ENDBRANCH   8   9
ENDBRANCH   7   8
ENDBRANCH   1   7
BRANCH   4  21
ATOM     21  C   UNL     1      49.302   7.110  14.660  0.00  0.00    +0.000 C 
BRANCH  21  22
ATOM     22  N   UNL     1      49.112   7.300  16.073  0.00  0.00    +0.000 N 
ATOM     23  C   UNL     1      49.787   6.552  17.002  0.00  0.00    +0.000 C 
ATOM     24  O   UNL     1      50.490   5.594  16.692  0.00  0.00    +0.000 OA
ATOM     25  H   UNL     1      48.701   8.180  16.358  0.00  0.00    +0.000 HD
BRANCH  23  26
ATOM     26  C   UNL     1      49.586   6.938  18.403  0.00  0.00    +0.000 A 
ATOM     27  C   UNL     1      49.771   8.257  18.800  0.00  0.00    +0.000 A 
ATOM     28  S   UNL     1      49.530   8.503  20.471  0.00  0.00    +0.000 S 
ATOM     29  C   UNL     1      49.127   6.869  20.705  0.00  0.00    +0.000 A 
ATOM     30  N   UNL     1      48.795   6.419  21.930  0.00  0.00    +0.000 NA
ATOM     31  C   UNL     1      48.493   5.118  21.939  0.00  0.00    +0.000 A 
ATOM     32  N   UNL     1      48.495   4.273  20.897  0.00  0.00    +0.000 NA
ATOM     33  C   UNL     1      48.835   4.786  19.714  0.00  0.00    +0.000 A 
ATOM     34  C   UNL     1      49.186   6.123  19.536  0.00  0.00    +0.000 A 
BRANCH  33  35
ATOM     35  O   UNL     1      48.824   3.871  18.700  0.00  0.00    +0.000 OA
ATOM     36  H   UNL     1      47.876   3.873  18.467  0.00  0.00    +0.000 HD
ENDBRANCH  33  35
ENDBRANCH  23  26
ENDBRANCH  21  22
ENDBRANCH   4  21
TORSDOF 9
ENDMDL
MODEL 5
REMARK VINA RESULT:    -7.657      3.452      9.229
REMARK INTER + INTRA:         -12.870
REMARK INTER:                 -11.123
REMARK INTRA:                  -1.747
REMARK UNBOUND:                -1.409
REMARK  Name = 
REMARK  9 active torsions:
REMARK  status: ('A' for Active; 'I' for Inactive)
REMARK    1  A    between atoms: C_2  and  C_4
REMARK    2  A    between atoms: C_7  and  C_8
REMARK    3  A    between atoms: C_8  and  O_9
REMARK    4  A    between atoms: O_9  and  C_10
REMARK    5  A    between atoms: C_10  and  C_11
REMARK    6  A    between atoms: C_14  and  C_15
REMARK    7  A    between atoms: C_15  and  N_16
REMARK    8  A    between atoms: C_17  and  C_19
REMARK    9  A    between atoms: C_26  and  O_27
REMARK                            x       y       z     vdW  Elec       q    Type
REMARK                         _______ _______ _______ _____ _____    ______ ____
ROOT
ATOM      1  C   UNL     1      49.053   8.296  16.120  0.00  0.00    +0.000 A 
ATOM      2  C   UNL     1      49.538   7.215  15.370  0.00  0.00    +0.000 A 
ATOM      3  C   UNL     1      49.115   7.012  14.053  0.00  0.00    +0.000 A 
ATOM      4  C   UNL     1      48.206   7.893  13.450  0.00  0.00    +0.000 A 
ATOM      5  C   UNL     1      47.691   8.950  14.213  0.00  0.00    +0.000 A 
ATOM      6  C   UNL     1      48.114   9.152  15.531  0.00  0.00    +0.000 A 
ENDROOT
BRANCH   1   7
ATOM      7  C   UNL     1      49.523   8.520  17.536  0.00  0.00    +0.000 C 
BRANCH   7   8
ATOM      8  O   UNL     1      48.539   8.022  18.440  0.00  0.00    +0.000 OA
BRANCH   8   9
ATOM      9  C   UNL     1      49.105   7.129  19.399  0.00  0.00    +0.000 C 
BRANCH   9  13
ATOM     10  C   UNL     1      49.942   3.298  17.564  0.00  0.00    +0.000 A 
ATOM     11  C   UNL     1      48.618   3.688  17.791  0.00  0.00    +0.000 A 
ATOM     12  C   UNL     1      48.346   4.927  18.381  0.00  0.00    +0.000 A 
ATOM     13  C   UNL     1      49.386   5.784  18.770  0.00  0.00    +0.000 A 
ATOM     14  C   UNL     1      50.710   5.390  18.521  0.00  0.00    +0.000 A 
ATOM     15  C   UNL     1      50.987   4.151  17.934  0.00  0.00    +0.000 A 
BRANCH  10  17
ATOM     16  N   UNL     1      51.151   1.183  17.666  0.00  0.00    +0.000 N 
ATOM     17  C   UNL     1      50.283   1.978  16.971  0.00  0.00    +0.000 C 
ATOM     18  O   UNL     1      49.784   1.596  15.921  0.00  0.00    +0.000 OA
ATOM     19  H   UNL     1      51.297   0.251  17.300  0.00  0.00    +0.000 HD
ATOM     20  H   UNL     1      51.385   1.351  18.634  0.00  0.00    +0.000 HD
ENDBRANCH  10  17
ENDBRANCH   9  13
ENDBRANCH   8   9
ENDBRANCH   7   8
ENDBRANCH   1   7
BRANCH   4  21
ATOM     21  C   UNL     1      47.769   7.696  12.020  0.00  0.00    +0.000 C 
BRANCH  21  22
ATOM     22  N   UNL     1      47.022   6.475  11.871  0.00  0.00    +0.000 N 
ATOM     23  C   UNL     1      45.666   6.427  12.063  0.00  0.00    +0.000 C 
ATOM     24  O   UNL     1      45.028   7.381  12.499  0.00  0.00    +0.000 OA
ATOM     25  H   UNL     1      47.468   5.735  11.343  0.00  0.00    +0.000 HD
BRANCH  23  26
ATOM     26  C   UNL     1      45.021   5.145  11.757  0.00  0.00    +0.000 A 
ATOM     27  C   UNL     1      44.319   4.461  12.742  0.00  0.00    +0.000 A 
ATOM     28  S   UNL     1      43.674   2.975  12.207  0.00  0.00    +0.000 S 
ATOM     29  C   UNL     1      44.271   3.223  10.635  0.00  0.00    +0.000 A 
ATOM     30  N   UNL     1      44.045   2.312   9.671  0.00  0.00    +0.000 NA
ATOM     31  C   UNL     1      44.568   2.664   8.493  0.00  0.00    +0.000 A 
ATOM     32  N   UNL     1      45.259   3.779   8.208  0.00  0.00    +0.000 NA
ATOM     33  C   UNL     1      45.447   4.636   9.212  0.00  0.00    +0.000 A 
ATOM     34  C   UNL     1      44.972   4.413  10.503  0.00  0.00    +0.000 A 
BRANCH  33  35
ATOM     35  O   UNL     1      46.163   5.743   8.856  0.00  0.00    +0.000 OA
ATOM     36  H   UNL     1      45.937   6.347   9.590  0.00  0.00    +0.000 HD
ENDBRANCH  33  35
ENDBRANCH  23  26
ENDBRANCH  21  22
ENDBRANCH   4  21
TORSDOF 9
ENDMDL
MODEL 6
REMARK VINA RESULT:    -7.182      2.768      3.391
REMARK INTER + INTRA:         -12.160
REMARK INTER:                 -11.692
REMARK INTRA:                  -0.468
REMARK UNBOUND:                -1.409
REMARK  Name = 
REMARK  9 active torsions:
REMARK  status: ('A' for Active; 'I' for Inactive)
REMARK    1  A    between atoms: C_2  and  C_4
REMARK    2  A    between atoms: C_7  and  C_8
REMARK    3  A    between atoms: C_8  and  O_9
REMARK    4  A    between atoms: O_9  and  C_10
REMARK    5  A    between atoms: C_10  and  C_11
REMARK    6  A    between atoms: C_14  and  C_15
REMARK    7  A    between atoms: C_15  and  N_16
REMARK    8  A    between atoms: C_17  and  C_19
REMARK    9  A    between atoms: C_26  and  O_27
REMARK                            x       y       z     vdW  Elec       q    Type
REMARK                         _______ _______ _______ _____ _____    ______ ____
ROOT
ATOM      1  C   UNL     1      46.229   5.004  12.389  0.00  0.00    +0.000 A 
ATOM      2  C   UNL     1      46.559   6.176  11.694  0.00  0.00    +0.000 A 
ATOM      3  C   UNL     1      47.436   7.114  12.248  0.00  0.00    +0.000 A 
ATOM      4  C   UNL     1      48.013   6.895  13.506  0.00  0.00    +0.000 A 
ATOM      5  C   UNL     1      47.653   5.744  14.219  0.00  0.00    +0.000 A 
ATOM      6  C   UNL     1      46.775   4.807  13.664  0.00  0.00    +0.000 A 
ENDROOT
BRANCH   1   7
ATOM      7  C   UNL     1      45.294   3.989  11.781  0.00  0.00    +0.000 C 
BRANCH   7   8
ATOM      8  O   UNL     1      43.999   4.569  11.643  0.00  0.00    +0.000 OA
BRANCH   8   9
ATOM      9  C   UNL     1      43.575   4.598  10.281  0.00  0.00    +0.000 C 
BRANCH   9  13
ATOM     10  C   UNL     1      46.437   2.504   7.799  0.00  0.00    +0.000 A 
ATOM     11  C   UNL     1      46.363   3.900   7.752  0.00  0.00    +0.000 A 
ATOM     12  C   UNL     1      45.440   4.578   8.554  0.00  0.00    +0.000 A 
ATOM     13  C   UNL     1      44.569   3.877   9.400  0.00  0.00    +0.000 A 
ATOM     14  C   UNL     1      44.664   2.478   9.453  0.00  0.00    +0.000 A 
ATOM     15  C   UNL     1      45.583   1.795   8.649  0.00  0.00    +0.000 A 
BRANCH  10  17
ATOM     16  N   UNL     1      48.480   2.394   6.473  0.00  0.00    +0.000 N 
ATOM     17  C   UNL     1      47.377   1.736   6.940  0.00  0.00    +0.000 C 
ATOM     18  O   UNL     1      47.197   0.552   6.687  0.00  0.00    +0.000 OA
ATOM     19  H   UNL     1      49.158   1.835   5.972  0.00  0.00    +0.000 HD
ATOM     20  H   UNL     1      48.787   3.277   6.853  0.00  0.00    +0.000 HD
ENDBRANCH  10  17
ENDBRANCH   9  13
ENDBRANCH   8   9
ENDBRANCH   7   8
ENDBRANCH   1   7
BRANCH   4  21
ATOM     21  C   UNL     1      48.983   7.889  14.096  0.00  0.00    +0.000 C 
BRANCH  21  22
ATOM     22  N   UNL     1      50.119   7.223  14.675  0.00  0.00    +0.000 N 
ATOM     23  C   UNL     1      50.807   7.752  15.736  0.00  0.00    +0.000 C 
ATOM     24  O   UNL     1      50.583   8.878  16.171  0.00  0.00    +0.000 OA
ATOM     25  H   UNL     1      50.212   6.235  14.475  0.00  0.00    +0.000 HD
BRANCH  23  26
ATOM     26  C   UNL     1      51.865   6.905  16.299  0.00  0.00    +0.000 A 
ATOM     27  C   UNL     1      53.187   7.334  16.284  0.00  0.00    +0.000 A 
ATOM     28  S   UNL     1      54.274   6.200  16.948  0.00  0.00    +0.000 S 
ATOM     29  C   UNL     1      53.010   5.125  17.316  0.00  0.00    +0.000 A 
ATOM     30  N   UNL     1      53.270   3.952  17.921  0.00  0.00    +0.000 NA
ATOM     31  C   UNL     1      52.167   3.233  18.152  0.00  0.00    +0.000 A 
ATOM     32  N   UNL     1      50.902   3.561  17.848  0.00  0.00    +0.000 NA
ATOM     33  C   UNL     1      50.718   4.737  17.247  0.00  0.00    +0.000 A 
ATOM     34  C   UNL     1      51.765   5.602  16.930  0.00  0.00    +0.000 A 
BRANCH  33  35
ATOM     35  O   UNL     1      49.411   5.004  16.960  0.00  0.00    +0.000 OA
ATOM     36  H   UNL     1      49.332   5.913  17.308  0.00  0.00    +0.000 HD
ENDBRANCH  33  35
ENDBRANCH  23  26
ENDBRANCH  21  22
ENDBRANCH   4  21
TORSDOF 9
ENDMDL
MODEL 7
REMARK VINA RESULT:    -7.156      3.944      8.633
REMARK INTER + INTRA:         -12.121
REMARK INTER:                  -9.620
REMARK INTRA:                  -2.501
REMARK UNBOUND:                -1.409
REMARK  Name = 
REMARK  9 active torsions:
REMARK  status: ('A' for Active; 'I' for Inactive)
REMARK    1  A    between atoms: C_2  and  C_4
REMARK    2  A    between atoms: C_7  and  C_8
REMARK    3  A    between atoms: C_8  and  O_9
REMARK    4  A    between atoms: O_9  and  C_10
REMARK    5  A    between atoms: C_10  and  C_11
REMARK    6  A    between atoms: C_14  and  C_15
REMARK    7  A    between atoms: C_15  and  N_16
REMARK    8  A    between atoms: C_17  and  C_19
REMARK    9  A    between atoms: C_26  and  O_27
REMARK                            x       y       z     vdW  Elec       q    Type
REMARK                         _______ _______ _______ _____ _____    ______ ____
ROOT
ATOM      1  C   UNL     1      49.570   9.538  17.009  0.00  0.00    +0.000 A 
ATOM      2  C   UNL     1      48.386   9.277  16.304  0.00  0.00    +0.000 A 
ATOM      3  C   UNL     1      48.420   8.647  15.057  0.00  0.00    +0.000 A 
ATOM      4  C   UNL     1      49.640   8.252  14.490  0.00  0.00    +0.000 A 
ATOM      5  C   UNL     1      50.826   8.548  15.175  0.00  0.00    +0.000 A 
ATOM      6  C   UNL     1      50.790   9.180  16.423  0.00  0.00    +0.000 A 
ENDROOT
BRANCH   1   7
ATOM      7  C   UNL     1      49.526  10.205  18.361  0.00  0.00    +0.000 C 
BRANCH   7   8
ATOM      8  O   UNL     1      48.638   9.483  19.212  0.00  0.00    +0.000 OA
BRANCH   8   9
ATOM      9  C   UNL     1      49.252   8.309  19.743  0.00  0.00    +0.000 C 
BRANCH   9  13
ATOM     10  C   UNL     1      47.756   4.762  17.763  0.00  0.00    +0.000 A 
ATOM     11  C   UNL     1      49.102   5.117  17.634  0.00  0.00    +0.000 A 
ATOM     12  C   UNL     1      49.588   6.262  18.275  0.00  0.00    +0.000 A 
ATOM     13  C   UNL     1      48.738   7.076  19.037  0.00  0.00    +0.000 A 
ATOM     14  C   UNL     1      47.393   6.701  19.174  0.00  0.00    +0.000 A 
ATOM     15  C   UNL     1      46.902   5.559  18.533  0.00  0.00    +0.000 A 
BRANCH  10  17
ATOM     16  N   UNL     1      47.440   3.441  15.738  0.00  0.00    +0.000 N 
ATOM     17  C   UNL     1      47.185   3.575  17.074  0.00  0.00    +0.000 C 
ATOM     18  O   UNL     1      46.542   2.727  17.679  0.00  0.00    +0.000 OA
ATOM     19  H   UNL     1      47.129   2.582  15.305  0.00  0.00    +0.000 HD
ATOM     20  H   UNL     1      48.157   3.974  15.266  0.00  0.00    +0.000 HD
ENDBRANCH  10  17
ENDBRANCH   9  13
ENDBRANCH   8   9
ENDBRANCH   7   8
ENDBRANCH   1   7
BRANCH   4  21
ATOM     21  C   UNL     1      49.681   7.545  13.158  0.00  0.00    +0.000 C 
BRANCH  21  22
ATOM     22  N   UNL     1      48.357   7.368  12.625  0.00  0.00    +0.000 N 
ATOM     23  C   UNL     1      47.622   6.237  12.868  0.00  0.00    +0.000 C 
ATOM     24  O   UNL     1      48.091   5.257  13.441  0.00  0.00    +0.000 OA
ATOM     25  H   UNL     1      47.878   8.206  12.319  0.00  0.00    +0.000 HD
BRANCH  23  26
ATOM     26  C   UNL     1      46.244   6.247  12.364  0.00  0.00    +0.000 A 
ATOM     27  C   UNL     1      45.694   7.416  11.853  0.00  0.00    +0.000 A 
ATOM     28  S   UNL     1      44.073   7.240  11.352  0.00  0.00    +0.000 S 
ATOM     29  C   UNL     1      44.072   5.590  11.759  0.00  0.00    +0.000 A 
ATOM     30  N   UNL     1      42.973   4.840  11.558  0.00  0.00    +0.000 NA
ATOM     31  C   UNL     1      43.143   3.565  11.917  0.00  0.00    +0.000 A 
ATOM     32  N   UNL     1      44.248   3.003  12.431  0.00  0.00    +0.000 NA
ATOM     33  C   UNL     1      45.299   3.805  12.604  0.00  0.00    +0.000 A 
ATOM     34  C   UNL     1      45.282   5.162  12.288  0.00  0.00    +0.000 A 
BRANCH  33  35
ATOM     35  O   UNL     1      46.385   3.172  13.137  0.00  0.00    +0.000 OA
ATOM     36  H   UNL     1      46.868   3.932  13.518  0.00  0.00    +0.000 HD
ENDBRANCH  33  35
ENDBRANCH  23  26
ENDBRANCH  21  22
ENDBRANCH   4  21
TORSDOF 9
ENDMDL
MODEL 8
REMARK VINA RESULT:    -7.044      4.083      9.060
REMARK INTER + INTRA:         -11.952
REMARK INTER:                  -9.674
REMARK INTRA:                  -2.278
REMARK UNBOUND:                -1.409
REMARK  Name = 
REMARK  9 active torsions:
REMARK  status: ('A' for Active; 'I' for Inactive)
REMARK    1  A    between atoms: C_2  and  C_4
REMARK    2  A    between atoms: C_7  and  C_8
REMARK    3  A    between atoms: C_8  and  O_9
REMARK    4  A    between atoms: O_9  and  C_10
REMARK    5  A    between atoms: C_10  and  C_11
REMARK    6  A    between atoms: C_14  and  C_15
REMARK    7  A    between atoms: C_15  and  N_16
REMARK    8  A    between atoms: C_17  and  C_19
REMARK    9  A    between atoms: C_26  and  O_27
REMARK                            x       y       z     vdW  Elec       q    Type
REMARK                         _______ _______ _______ _____ _____    ______ ____
ROOT
ATOM      1  C   UNL     1      50.967   4.284  18.850  0.00  0.00    +0.000 A 
ATOM      2  C   UNL     1      49.786   4.906  19.280  0.00  0.00    +0.000 A 
ATOM      3  C   UNL     1      48.569   4.650  18.641  0.00  0.00    +0.000 A 
ATOM      4  C   UNL     1      48.502   3.754  17.565  0.00  0.00    +0.000 A 
ATOM      5  C   UNL     1      49.688   3.162  17.110  0.00  0.00    +0.000 A 
ATOM      6  C   UNL     1      50.906   3.421  17.749  0.00  0.00    +0.000 A 
ENDROOT
BRANCH   1   7
ATOM      7  C   UNL     1      52.276   4.553  19.551  0.00  0.00    +0.000 C 
BRANCH   7   8
ATOM      8  O   UNL     1      52.494   5.961  19.609  0.00  0.00    +0.000 OA
BRANCH   8   9
ATOM      9  C   UNL     1      53.041   6.462  18.390  0.00  0.00    +0.000 C 
BRANCH   9  13
ATOM     10  C   UNL     1      49.924   8.334  16.040  0.00  0.00    +0.000 A 
ATOM     11  C   UNL     1      50.718   7.332  15.473  0.00  0.00    +0.000 A 
ATOM     12  C   UNL     1      51.724   6.724  16.232  0.00  0.00    +0.000 A 
ATOM     13  C   UNL     1      51.964   7.118  17.556  0.00  0.00    +0.000 A 
ATOM     14  C   UNL     1      51.150   8.112  18.120  0.00  0.00    +0.000 A 
ATOM     15  C   UNL     1      50.145   8.724  17.364  0.00  0.00    +0.000 A 
BRANCH  10  17
ATOM     16  N   UNL     1      47.658   9.220  15.878  0.00  0.00    +0.000 N 
ATOM     17  C   UNL     1      48.866   9.033  15.264  0.00  0.00    +0.000 C 
ATOM     18  O   UNL     1      49.071   9.459  14.135  0.00  0.00    +0.000 OA
ATOM     19  H   UNL     1      46.982   9.780  15.376  0.00  0.00    +0.000 HD
ATOM     20  H   UNL     1      47.532   9.108  16.873  0.00  0.00    +0.000 HD
ENDBRANCH  10  17
ENDBRANCH   9  13
ENDBRANCH   8   9
ENDBRANCH   7   8
ENDBRANCH   1   7
BRANCH   4  21
ATOM     21  C   UNL     1      47.187   3.450  16.892  0.00  0.00    +0.000 C 
BRANCH  21  22
ATOM     22  N   UNL     1      46.875   4.441  15.896  0.00  0.00    +0.000 N 
ATOM     23  C   UNL     1      46.864   4.146  14.558  0.00  0.00    +0.000 C 
ATOM     24  O   UNL     1      47.244   3.063  14.119  0.00  0.00    +0.000 OA
ATOM     25  H   UNL     1      46.385   5.266  16.219  0.00  0.00    +0.000 HD
BRANCH  23  26
ATOM     26  C   UNL     1      46.408   5.220  13.668  0.00  0.00    +0.000 A 
ATOM     27  C   UNL     1      47.216   6.326  13.436  0.00  0.00    +0.000 A 
ATOM     28  S   UNL     1      46.501   7.484  12.408  0.00  0.00    +0.000 S 
ATOM     29  C   UNL     1      45.114   6.522  12.204  0.00  0.00    +0.000 A 
ATOM     30  N   UNL     1      44.107   6.939  11.415  0.00  0.00    +0.000 NA
ATOM     31  C   UNL     1      43.101   6.062  11.353  0.00  0.00    +0.000 A 
ATOM     32  N   UNL     1      43.014   4.876  11.974  0.00  0.00    +0.000 NA
ATOM     33  C   UNL     1      44.047   4.528  12.742  0.00  0.00    +0.000 A 
ATOM     34  C   UNL     1      45.170   5.334  12.919  0.00  0.00    +0.000 A 
BRANCH  33  35
ATOM     35  O   UNL     1      43.889   3.316  13.350  0.00  0.00    +0.000 OA
ATOM     36  H   UNL     1      44.349   3.478  14.197  0.00  0.00    +0.000 HD
ENDBRANCH  33  35
ENDBRANCH  23  26
ENDBRANCH  21  22
ENDBRANCH   4  21
TORSDOF 9
ENDMDL
MODEL 9
REMARK VINA RESULT:    -7.006      4.491      6.608
REMARK INTER + INTRA:         -11.896
REMARK INTER:                 -10.703
REMARK INTRA:                  -1.193
REMARK UNBOUND:                -1.409
REMARK  Name = 
REMARK  9 active torsions:
REMARK  status: ('A' for Active; 'I' for Inactive)
REMARK    1  A    between atoms: C_2  and  C_4
REMARK    2  A    between atoms: C_7  and  C_8
REMARK    3  A    between atoms: C_8  and  O_9
REMARK    4  A    between atoms: O_9  and  C_10
REMARK    5  A    between atoms: C_10  and  C_11
REMARK    6  A    between atoms: C_14  and  C_15
REMARK    7  A    between atoms: C_15  and  N_16
REMARK    8  A    between atoms: C_17  and  C_19
REMARK    9  A    between atoms: C_26  and  O_27
REMARK                            x       y       z     vdW  Elec       q    Type
REMARK                         _______ _______ _______ _____ _____    ______ ____
ROOT
ATOM      1  C   UNL     1      45.237   6.148  12.641  0.00  0.00    +0.000 A 
ATOM      2  C   UNL     1      45.498   7.523  12.726  0.00  0.00    +0.000 A 
ATOM      3  C   UNL     1      46.786   7.991  13.002  0.00  0.00    +0.000 A 
ATOM      4  C   UNL     1      47.848   7.094  13.187  0.00  0.00    +0.000 A 
ATOM      5  C   UNL     1      47.580   5.719  13.142  0.00  0.00    +0.000 A 
ATOM      6  C   UNL     1      46.290   5.252  12.867  0.00  0.00    +0.000 A 
ENDROOT
BRANCH   1   7
ATOM      7  C   UNL     1      43.849   5.648  12.329  0.00  0.00    +0.000 C 
BRANCH   7   8
ATOM      8  O   UNL     1      43.760   5.351  10.937  0.00  0.00    +0.000 OA
BRANCH   8   9
ATOM      9  C   UNL     1      43.650   3.948  10.701  0.00  0.00    +0.000 C 
BRANCH   9  13
ATOM     10  C   UNL     1      46.429   2.729   7.615  0.00  0.00    +0.000 A 
ATOM     11  C   UNL     1      45.781   1.763   8.391  0.00  0.00    +0.000 A 
ATOM     12  C   UNL     1      44.881   2.155   9.387  0.00  0.00    +0.000 A 
ATOM     13  C   UNL     1      44.628   3.511   9.635  0.00  0.00    +0.000 A 
ATOM     14  C   UNL     1      45.269   4.472   8.839  0.00  0.00    +0.000 A 
ATOM     15  C   UNL     1      46.173   4.084   7.843  0.00  0.00    +0.000 A 
BRANCH  10  17
ATOM     16  N   UNL     1      47.415   3.100   5.415  0.00  0.00    +0.000 N 
ATOM     17  C   UNL     1      47.419   2.363   6.567  0.00  0.00    +0.000 C 
ATOM     18  O   UNL     1      48.232   1.464   6.736  0.00  0.00    +0.000 OA
ATOM     19  H   UNL     1      48.155   2.903   4.755  0.00  0.00    +0.000 HD
ATOM     20  H   UNL     1      46.940   3.987   5.340  0.00  0.00    +0.000 HD
ENDBRANCH  10  17
ENDBRANCH   9  13
ENDBRANCH   8   9
ENDBRANCH   7   8
ENDBRANCH   1   7
BRANCH   4  21
ATOM     21  C   UNL     1      49.245   7.594  13.456  0.00  0.00    +0.000 C 
BRANCH  21  22
ATOM     22  N   UNL     1      49.509   8.808  12.731  0.00  0.00    +0.000 N 
ATOM     23  C   UNL     1      50.546   8.911  11.842  0.00  0.00    +0.000 C 
ATOM     24  O   UNL     1      51.387   8.027  11.705  0.00  0.00    +0.000 OA
ATOM     25  H   UNL     1      48.748   9.474  12.676  0.00  0.00    +0.000 HD
BRANCH  23  26
ATOM     26  C   UNL     1      50.620  10.167  11.086  0.00  0.00    +0.000 A 
ATOM     27  C   UNL     1      49.783  11.229  11.409  0.00  0.00    +0.000 A 
ATOM     28  S   UNL     1      49.989  12.586  10.396  0.00  0.00    +0.000 S 
ATOM     29  C   UNL     1      51.231  11.815   9.529  0.00  0.00    +0.000 A 
ATOM     30  N   UNL     1      51.852  12.452   8.519  0.00  0.00    +0.000 NA
ATOM     31  C   UNL     1      52.810  11.713   7.952  0.00  0.00    +0.000 A 
ATOM     32  N   UNL     1      53.181  10.467   8.282  0.00  0.00    +0.000 NA
ATOM     33  C   UNL     1      52.521   9.895   9.290  0.00  0.00    +0.000 A 
ATOM     34  C   UNL     1      51.489  10.528   9.981  0.00  0.00    +0.000 A 
BRANCH  33  35
ATOM     35  O   UNL     1      52.942   8.627   9.567  0.00  0.00    +0.000 OA
ATOM     36  H   UNL     1      52.219   8.105   9.166  0.00  0.00    +0.000 HD
ENDBRANCH  33  35
ENDBRANCH  23  26
ENDBRANCH  21  22
ENDBRANCH   4  21
TORSDOF 9
ENDMDL
