MODEL 1
REMARK VINA RESULT:    -8.963      0.000      0.000
REMARK INTER + INTRA:         -12.459
REMARK INTER:                 -11.583
REMARK INTRA:                  -0.875
REMARK UNBOUND:                -0.875
REMARK  Name = 
REMARK  5 active torsions:
REMARK  status: ('A' for Active; 'I' for Inactive)
REMARK    1  A    between atoms: C_2  and  C_4
REMARK    2  A    between atoms: N_8  and  C_9
REMARK    3  A    between atoms: C_9  and  C_10
REMARK    4  A    between atoms: C_10  and  C_11
REMARK    5  A    between atoms: C_15  and  C_16
REMARK                            x       y       z     vdW  Elec       q    Type
REMARK                         _______ _______ _______ _____ _____    ______ ____
ROOT
ATOM      1  C   UNL     1      43.221   4.181  11.076  0.00  0.00    +0.000 C 
ENDROOT
BRANCH   1   6
ATOM      2  C   UNL     1      46.603   2.715   7.577  0.00  0.00    +0.000 A 
ATOM      3  C   UNL     1      45.770   1.944   8.380  0.00  0.00    +0.000 A 
ATOM      4  C   UNL     1      44.787   2.575   9.145  0.00  0.00    +0.000 A 
ATOM      5  C   UNL     1      44.670   3.962   9.113  0.00  0.00    +0.000 A 
ATOM      6  N   UNL     1      43.667   4.653   9.773  0.00  0.00    +0.000 N 
ATOM      7  N   UNL     1      45.499   4.720   8.366  0.00  0.00    +0.000 NA
ATOM      8  C   UNL     1      46.447   4.090   7.623  0.00  0.00    +0.000 A 
ATOM      9  H   UNL     1      43.897   5.643   9.706  0.00  0.00    +0.000 HD
BRANCH   2  11
ATOM     10  N   UNL     1      48.064   2.894   5.645  0.00  0.00    +0.000 N 
ATOM     11  C   UNL     1      47.630   2.125   6.692  0.00  0.00    +0.000 C 
ATOM     12  O   UNL     1      48.104   1.019   6.909  0.00  0.00    +0.000 OA
ATOM     13  H   UNL     1      48.846   2.531   5.116  0.00  0.00    +0.000 HD
ATOM     14  H   UNL     1      47.885   3.887   5.591  0.00  0.00    +0.000 HD
ENDBRANCH   2  11
ENDBRANCH   1   6
BRANCH   1  15
ATOM     15  C   UNL     1      43.302   5.307  12.113  0.00  0.00    +0.000 C 
BRANCH  15  16
ATOM     16  C   UNL     1      44.722   5.529  12.576  0.00  0.00    +0.000 A 
ATOM     17  C   UNL     1      45.386   4.540  13.311  0.00  0.00    +0.000 A 
ATOM     18  C   UNL     1      46.702   4.736  13.713  0.00  0.00    +0.000 A 
ATOM     19  C   UNL     1      47.372   5.916  13.377  0.00  0.00    +0.000 A 
ATOM     20  C   UNL     1      46.755   6.921  12.610  0.00  0.00    +0.000 A 
ATOM     21  C   UNL     1      45.415   6.702  12.230  0.00  0.00    +0.000 A 
BRANCH  20  22
ATOM     22  C   UNL     1      47.489   8.147  12.204  0.00  0.00    +0.000 A 
ATOM     23  C   UNL     1      48.828   8.092  11.769  0.00  0.00    +0.000 A 
ATOM     24  C   UNL     1      49.532   9.249  11.408  0.00  0.00    +0.000 A 
ATOM     25  C   UNL     1      48.911  10.494  11.459  0.00  0.00    +0.000 A 
ATOM     26  C   UNL     1      47.588  10.579  11.875  0.00  0.00    +0.000 A 
ATOM     27  C   UNL     1      46.897   9.425  12.246  0.00  0.00    +0.000 A 
ATOM     28  F   UNL     1      45.632   9.581  12.671  0.00  0.00    +0.000 F 
ENDBRANCH  20  22
ENDBRANCH  15  16
ENDBRANCH   1  15
TORSDOF 5
ENDMDL
MODEL 2
REMARK VINA RESULT:    -8.495      2.054      3.830
REMARK INTER + INTRA:         -11.854
REMARK INTER:                 -10.950
REMARK INTRA:                  -0.904
REMARK UNBOUND:                -0.875
REMARK  Name = 
REMARK  5 active torsions:
REMARK  status: ('A' for Active; 'I' for Inactive)
REMARK    1  A    between atoms: C_2  and  C_4
REMARK    2  A    between atoms: N_8  and  C_9
REMARK    3  A    between atoms: C_9  and  C_10
REMARK    4  A    between atoms: C_10  and  C_11
REMARK    5  A    between atoms: C_15  and  C_16
REMARK                            x       y       z     vdW  Elec       q    Type
REMARK                         _______ _______ _______ _____ _____    ______ ____
ROOT
ATOM      1  C   UNL     1      43.248   4.567  10.889  0.00  0.00    +0.000 C 
ENDROOT
BRANCH   1   6
ATOM      2  C   UNL     1      46.486   2.657   7.467  0.00  0.00    +0.000 A 
ATOM      3  C   UNL     1      46.208   3.984   7.779  0.00  0.00    +0.000 A 
ATOM      4  C   UNL     1      45.409   4.270   8.887  0.00  0.00    +0.000 A 
ATOM      5  C   UNL     1      44.884   3.230   9.649  0.00  0.00    +0.000 A 
ATOM      6  N   UNL     1      44.158   3.432  10.811  0.00  0.00    +0.000 N 
ATOM      7  N   UNL     1      45.117   1.939   9.332  0.00  0.00    +0.000 NA
ATOM      8  C   UNL     1      45.901   1.678   8.252  0.00  0.00    +0.000 A 
ATOM      9  H   UNL     1      43.775   2.528  11.082  0.00  0.00    +0.000 HD
BRANCH   2  11
ATOM     10  N   UNL     1      47.375   3.083   5.248  0.00  0.00    +0.000 N 
ATOM     11  C   UNL     1      47.369   2.267   6.348  0.00  0.00    +0.000 C 
ATOM     12  O   UNL     1      48.097   1.287   6.418  0.00  0.00    +0.000 OA
ATOM     13  H   UNL     1      48.065   2.874   4.539  0.00  0.00    +0.000 HD
ATOM     14  H   UNL     1      46.990   4.018   5.263  0.00  0.00    +0.000 HD
ENDBRANCH   2  11
ENDBRANCH   1   6
BRANCH   1  15
ATOM     15  C   UNL     1      43.433   5.315  12.214  0.00  0.00    +0.000 C 
BRANCH  15  16
ATOM     16  C   UNL     1      44.887   5.629  12.472  0.00  0.00    +0.000 A 
ATOM     17  C   UNL     1      45.582   6.495  11.622  0.00  0.00    +0.000 A 
ATOM     18  C   UNL     1      46.914   6.802  11.877  0.00  0.00    +0.000 A 
ATOM     19  C   UNL     1      47.561   6.257  12.990  0.00  0.00    +0.000 A 
ATOM     20  C   UNL     1      46.891   5.410  13.890  0.00  0.00    +0.000 A 
ATOM     21  C   UNL     1      45.546   5.103  13.598  0.00  0.00    +0.000 A 
BRANCH  20  22
ATOM     22  C   UNL     1      47.563   4.880  15.104  0.00  0.00    +0.000 A 
ATOM     23  C   UNL     1      47.451   3.525  15.474  0.00  0.00    +0.000 A 
ATOM     24  C   UNL     1      48.063   3.026  16.631  0.00  0.00    +0.000 A 
ATOM     25  C   UNL     1      48.819   3.865  17.445  0.00  0.00    +0.000 A 
ATOM     26  C   UNL     1      48.956   5.204  17.101  0.00  0.00    +0.000 A 
ATOM     27  C   UNL     1      48.332   5.698  15.954  0.00  0.00    +0.000 A 
ATOM     28  F   UNL     1      48.477   7.009  15.698  0.00  0.00    +0.000 F 
ENDBRANCH  20  22
ENDBRANCH  15  16
ENDBRANCH   1  15
TORSDOF 5
ENDMDL
MODEL 3
REMARK VINA RESULT:    -7.835      4.460      7.832
REMARK INTER + INTRA:         -11.001
REMARK INTER:                 -10.259
REMARK INTRA:                  -0.742
REMARK UNBOUND:                -0.875
REMARK  Name = 
REMARK  5 active torsions:
REMARK  status: ('A' for Active; 'I' for Inactive)
REMARK    1  A    between atoms: C_2  and  C_4
REMARK    2  A    between atoms: N_8  and  C_9
REMARK    3  A    between atoms: C_9  and  C_10
REMARK    4  A    between atoms: C_10  and  C_11
REMARK    5  A    between atoms: C_15  and  C_16
REMARK                            x       y       z     vdW  Elec       q    Type
REMARK                         _______ _______ _______ _____ _____    ______ ____
ROOT
ATOM      1  C   UNL     1      47.145   6.662  12.876  0.00  0.00    +0.000 C 
ENDROOT
BRANCH   1   6
ATOM      2  C   UNL     1      48.602   4.310  17.140  0.00  0.00    +0.000 A 
ATOM      3  C   UNL     1      48.912   5.586  16.683  0.00  0.00    +0.000 A 
ATOM      4  C   UNL     1      48.247   6.089  15.563  0.00  0.00    +0.000 A 
ATOM      5  C   UNL     1      47.304   5.302  14.908  0.00  0.00    +0.000 A 
ATOM      6  N   UNL     1      46.540   5.760  13.847  0.00  0.00    +0.000 N 
ATOM      7  N   UNL     1      47.024   4.049  15.322  0.00  0.00    +0.000 NA
ATOM      8  C   UNL     1      47.677   3.576  16.416  0.00  0.00    +0.000 A 
ATOM      9  H   UNL     1      46.047   4.954  13.467  0.00  0.00    +0.000 HD
BRANCH   2  11
ATOM     10  N   UNL     1      48.380   3.055  19.208  0.00  0.00    +0.000 N 
ATOM     11  C   UNL     1      49.214   3.724  18.351  0.00  0.00    +0.000 C 
ATOM     12  O   UNL     1      50.418   3.792  18.557  0.00  0.00    +0.000 OA
ATOM     13  H   UNL     1      48.824   2.560  19.969  0.00  0.00    +0.000 HD
ATOM     14  H   UNL     1      47.449   2.766  18.943  0.00  0.00    +0.000 HD
ENDBRANCH   2  11
ENDBRANCH   1   6
BRANCH   1  15
ATOM     15  C   UNL     1      46.069   7.299  11.990  0.00  0.00    +0.000 C 
BRANCH  15  16
ATOM     16  C   UNL     1      45.265   6.250  11.259  0.00  0.00    +0.000 A 
ATOM     17  C   UNL     1      43.894   6.118  11.503  0.00  0.00    +0.000 A 
ATOM     18  C   UNL     1      43.151   5.169  10.810  0.00  0.00    +0.000 A 
ATOM     19  C   UNL     1      43.767   4.351   9.859  0.00  0.00    +0.000 A 
ATOM     20  C   UNL     1      45.135   4.473   9.557  0.00  0.00    +0.000 A 
ATOM     21  C   UNL     1      45.867   5.433  10.286  0.00  0.00    +0.000 A 
BRANCH  20  22
ATOM     22  C   UNL     1      45.775   3.643   8.504  0.00  0.00    +0.000 A 
ATOM     23  C   UNL     1      46.412   4.229   7.392  0.00  0.00    +0.000 A 
ATOM     24  C   UNL     1      46.995   3.451   6.384  0.00  0.00    +0.000 A 
ATOM     25  C   UNL     1      46.970   2.061   6.466  0.00  0.00    +0.000 A 
ATOM     26  C   UNL     1      46.357   1.454   7.555  0.00  0.00    +0.000 A 
ATOM     27  C   UNL     1      45.766   2.236   8.549  0.00  0.00    +0.000 A 
ATOM     28  F   UNL     1      45.161   1.585   9.557  0.00  0.00    +0.000 F 
ENDBRANCH  20  22
ENDBRANCH  15  16
ENDBRANCH   1  15
TORSDOF 5
ENDMDL
MODEL 4
REMARK VINA RESULT:    -7.588      3.865      7.184
REMARK INTER + INTRA:         -10.681
REMARK INTER:                  -9.769
REMARK INTRA:                  -0.912
REMARK UNBOUND:                -0.875
REMARK  Name = 
REMARK  5 active torsions:
REMARK  status: ('A' for Active; 'I' for Inactive)
REMARK    1  A    between atoms: C_2  and  C_4
REMARK    2  A    between atoms: N_8  and  C_9
REMARK    3  A    between atoms: C_9  and  C_10
REMARK    4  A    between atoms: C_10  and  C_11
REMARK    5  A    between atoms: C_15  and  C_16
REMARK                            x       y       z     vdW  Elec       q    Type
REMARK                         _______ _______ _______ _____ _____    ______ ____
ROOT
ATOM      1  C   UNL     1      45.484   7.336  12.846  0.00  0.00    +0.000 C 
ENDROOT
BRANCH   1   6
ATOM      2  C   UNL     1      47.764   3.861  15.772  0.00  0.00    +0.000 A 
ATOM      3  C   UNL     1      46.717   3.709  14.870  0.00  0.00    +0.000 A 
ATOM      4  C   UNL     1      46.374   4.777  14.039  0.00  0.00    +0.000 A 
ATOM      5  C   UNL     1      47.064   5.982  14.139  0.00  0.00    +0.000 A 
ATOM      6  N   UNL     1      46.841   7.056  13.293  0.00  0.00    +0.000 N 
ATOM      7  N   UNL     1      48.056   6.151  15.038  0.00  0.00    +0.000 NA
ATOM      8  C   UNL     1      48.381   5.100  15.836  0.00  0.00    +0.000 A 
ATOM      9  H   UNL     1      47.363   7.844  13.671  0.00  0.00    +0.000 HD
BRANCH   2  11
ATOM     10  N   UNL     1      47.749   2.744  17.928  0.00  0.00    +0.000 N 
ATOM     11  C   UNL     1      48.232   2.765  16.646  0.00  0.00    +0.000 C 
ATOM     12  O   UNL     1      48.980   1.891  16.232  0.00  0.00    +0.000 OA
ATOM     13  H   UNL     1      47.982   1.930  18.481  0.00  0.00    +0.000 HD
ATOM     14  H   UNL     1      46.949   3.290  18.216  0.00  0.00    +0.000 HD
ENDBRANCH   2  11
ENDBRANCH   1   6
BRANCH   1  15
ATOM     15  C   UNL     1      45.373   7.171  11.326  0.00  0.00    +0.000 C 
BRANCH  15  16
ATOM     16  C   UNL     1      44.893   5.788  10.955  0.00  0.00    +0.000 A 
ATOM     17  C   UNL     1      43.714   5.279  11.510  0.00  0.00    +0.000 A 
ATOM     18  C   UNL     1      43.261   4.016  11.147  0.00  0.00    +0.000 A 
ATOM     19  C   UNL     1      43.974   3.253  10.218  0.00  0.00    +0.000 A 
ATOM     20  C   UNL     1      45.146   3.739   9.610  0.00  0.00    +0.000 A 
ATOM     21  C   UNL     1      45.590   5.016  10.009  0.00  0.00    +0.000 A 
BRANCH  20  22
ATOM     22  C   UNL     1      45.869   2.950   8.580  0.00  0.00    +0.000 A 
ATOM     23  C   UNL     1      45.876   1.541   8.604  0.00  0.00    +0.000 A 
ATOM     24  C   UNL     1      46.577   0.792   7.649  0.00  0.00    +0.000 A 
ATOM     25  C   UNL     1      47.280   1.433   6.632  0.00  0.00    +0.000 A 
ATOM     26  C   UNL     1      47.284   2.821   6.576  0.00  0.00    +0.000 A 
ATOM     27  C   UNL     1      46.595   3.560   7.539  0.00  0.00    +0.000 A 
ATOM     28  F   UNL     1      46.666   4.899   7.446  0.00  0.00    +0.000 F 
ENDBRANCH  20  22
ENDBRANCH  15  16
ENDBRANCH   1  15
TORSDOF 5
ENDMDL
MODEL 5
REMARK VINA RESULT:    -7.485      4.449      7.607
REMARK INTER + INTRA:         -10.548
REMARK INTER:                  -9.406
REMARK INTRA:                  -1.142
REMARK UNBOUND:                -0.875
REMARK  Name = 
REMARK  5 active torsions:
REMARK  status: ('A' for Active; 'I' for Inactive)
REMARK    1  A    between atoms: C_2  and  C_4
REMARK    2  A    between atoms: N_8  and  C_9
REMARK    3  A    between atoms: C_9  and  C_10
REMARK    4  A    between atoms: C_10  and  C_11
REMARK    5  A    between atoms: C_15  and  C_16
REMARK                            x       y       z     vdW  Elec       q    Type
REMARK                         _______ _______ _______ _____ _____    ______ ____
ROOT
ATOM      1  C   UNL     1      49.215   8.400  13.807  0.00  0.00    +0.000 C 
ENDROOT
BRANCH   1   6
ATOM      2  C   UNL     1      48.164   4.479  16.866  0.00  0.00    +0.000 A 
ATOM      3  C   UNL     1      47.433   4.990  15.800  0.00  0.00    +0.000 A 
ATOM      4  C   UNL     1      48.009   5.966  14.985  0.00  0.00    +0.000 A 
ATOM      5  C   UNL     1      49.292   6.430  15.262  0.00  0.00    +0.000 A 
ATOM      6  N   UNL     1      49.965   7.330  14.451  0.00  0.00    +0.000 N 
ATOM      7  N   UNL     1      49.994   5.967  16.317  0.00  0.00    +0.000 NA
ATOM      8  C   UNL     1      49.421   5.014  17.098  0.00  0.00    +0.000 A 
ATOM      9  H   UNL     1      50.807   7.608  14.952  0.00  0.00    +0.000 HD
BRANCH   2  11
ATOM     10  N   UNL     1      48.383   3.121  18.868  0.00  0.00    +0.000 N 
ATOM     11  C   UNL     1      47.655   3.404  17.742  0.00  0.00    +0.000 C 
ATOM     12  O   UNL     1      46.606   2.823  17.500  0.00  0.00    +0.000 OA
ATOM     13  H   UNL     1      47.968   2.468  19.518  0.00  0.00    +0.000 HD
ATOM     14  H   UNL     1      49.096   3.743  19.223  0.00  0.00    +0.000 HD
ENDBRANCH   2  11
ENDBRANCH   1   6
BRANCH   1  15
ATOM     15  C   UNL     1      48.933   8.052  12.341  0.00  0.00    +0.000 C 
BRANCH  15  16
ATOM     16  C   UNL     1      47.475   7.720  12.125  0.00  0.00    +0.000 A 
ATOM     17  C   UNL     1      46.480   8.587  12.587  0.00  0.00    +0.000 A 
ATOM     18  C   UNL     1      45.140   8.292  12.364  0.00  0.00    +0.000 A 
ATOM     19  C   UNL     1      44.781   7.135  11.667  0.00  0.00    +0.000 A 
ATOM     20  C   UNL     1      45.750   6.253  11.154  0.00  0.00    +0.000 A 
ATOM     21  C   UNL     1      47.100   6.569  11.409  0.00  0.00    +0.000 A 
BRANCH  20  22
ATOM     22  C   UNL     1      45.367   5.056  10.363  0.00  0.00    +0.000 A 
ATOM     23  C   UNL     1      45.646   4.966   8.984  0.00  0.00    +0.000 A 
ATOM     24  C   UNL     1      45.265   3.849   8.228  0.00  0.00    +0.000 A 
ATOM     25  C   UNL     1      44.607   2.782   8.833  0.00  0.00    +0.000 A 
ATOM     26  C   UNL     1      44.327   2.837  10.193  0.00  0.00    +0.000 A 
ATOM     27  C   UNL     1      44.697   3.958  10.937  0.00  0.00    +0.000 A 
ATOM     28  F   UNL     1      44.366   3.962  12.240  0.00  0.00    +0.000 F 
ENDBRANCH  20  22
ENDBRANCH  15  16
ENDBRANCH   1  15
TORSDOF 5
ENDMDL
MODEL 6
REMARK VINA RESULT:    -7.194      5.139      8.434
REMARK INTER + INTRA:         -10.172
REMARK INTER:                  -9.638
REMARK INTRA:                  -0.534
REMARK UNBOUND:                -0.875
REMARK  Name = 
REMARK  5 active torsions:
REMARK  status: ('A' for Active; 'I' for Inactive)
REMARK    1  A    between atoms: C_2  and  C_4
REMARK    2  A    between atoms: N_8  and  C_9
REMARK    3  A    between atoms: C_9  and  C_10
REMARK    4  A    between atoms: C_10  and  C_11
REMARK    5  A    between atoms: C_15  and  C_16
REMARK                            x       y       z     vdW  Elec       q    Type
REMARK                         _______ _______ _______ _____ _____    ______ ____
ROOT
ATOM      1  C   UNL     1      47.110   4.126  13.897  0.00  0.00    +0.000 C 
ENDROOT
BRANCH   1   6
ATOM      2  C   UNL     1      48.712   4.294  18.717  0.00  0.00    +0.000 A 
ATOM      3  C   UNL     1      47.857   5.155  18.038  0.00  0.00    +0.000 A 
ATOM      4  C   UNL     1      47.412   4.807  16.761  0.00  0.00    +0.000 A 
ATOM      5  C   UNL     1      47.848   3.620  16.177  0.00  0.00    +0.000 A 
ATOM      6  N   UNL     1      47.385   3.163  14.954  0.00  0.00    +0.000 N 
ATOM      7  N   UNL     1      48.707   2.798  16.813  0.00  0.00    +0.000 NA
ATOM      8  C   UNL     1      49.126   3.149  18.058  0.00  0.00    +0.000 A 
ATOM      9  H   UNL     1      47.964   2.365  14.698  0.00  0.00    +0.000 HD
BRANCH   2  11
ATOM     10  N   UNL     1      48.256   4.450  21.098  0.00  0.00    +0.000 N 
ATOM     11  C   UNL     1      49.182   4.557  20.094  0.00  0.00    +0.000 C 
ATOM     12  O   UNL     1      50.354   4.812  20.332  0.00  0.00    +0.000 OA
ATOM     13  H   UNL     1      48.610   4.517  22.042  0.00  0.00    +0.000 HD
ATOM     14  H   UNL     1      47.361   4.000  20.965  0.00  0.00    +0.000 HD
ENDBRANCH   2  11
ENDBRANCH   1   6
BRANCH   1  15
ATOM     15  C   UNL     1      45.695   4.696  14.043  0.00  0.00    +0.000 C 
BRANCH  15  16
ATOM     16  C   UNL     1      44.905   4.546  12.764  0.00  0.00    +0.000 A 
ATOM     17  C   UNL     1      43.587   5.009  12.692  0.00  0.00    +0.000 A 
ATOM     18  C   UNL     1      42.872   4.893  11.506  0.00  0.00    +0.000 A 
ATOM     19  C   UNL     1      43.468   4.323  10.377  0.00  0.00    +0.000 A 
ATOM     20  C   UNL     1      44.802   3.876  10.395  0.00  0.00    +0.000 A 
ATOM     21  C   UNL     1      45.498   3.992  11.616  0.00  0.00    +0.000 A 
BRANCH  20  22
ATOM     22  C   UNL     1      45.451   3.326   9.178  0.00  0.00    +0.000 A 
ATOM     23  C   UNL     1      45.513   1.938   8.942  0.00  0.00    +0.000 A 
ATOM     24  C   UNL     1      46.147   1.412   7.808  0.00  0.00    +0.000 A 
ATOM     25  C   UNL     1      46.724   2.262   6.869  0.00  0.00    +0.000 A 
ATOM     26  C   UNL     1      46.671   3.636   7.069  0.00  0.00    +0.000 A 
ATOM     27  C   UNL     1      46.051   4.152   8.208  0.00  0.00    +0.000 A 
ATOM     28  F   UNL     1      46.063   5.487   8.357  0.00  0.00    +0.000 F 
ENDBRANCH  20  22
ENDBRANCH  15  16
ENDBRANCH   1  15
TORSDOF 5
ENDMDL
MODEL 7
REMARK VINA RESULT:    -7.034      4.154      6.615
REMARK INTER + INTRA:          -9.966
REMARK INTER:                  -8.504
REMARK INTRA:                  -1.462
REMARK UNBOUND:                -0.875
REMARK  Name = 
REMARK  5 active torsions:
REMARK  status: ('A' for Active; 'I' for Inactive)
REMARK    1  A    between atoms: C_2  and  C_4
REMARK    2  A    between atoms: N_8  and  C_9
REMARK    3  A    between atoms: C_9  and  C_10
REMARK    4  A    between atoms: C_10  and  C_11
REMARK    5  A    between atoms: C_15  and  C_16
REMARK                            x       y       z     vdW  Elec       q    Type
REMARK                         _______ _______ _______ _____ _____    ______ ____
ROOT
ATOM      1  C   UNL     1      48.243   8.343  13.381  0.00  0.00    +0.000 C 
ENDROOT
BRANCH   1   6
ATOM      2  C   UNL     1      44.742   4.831  12.266  0.00  0.00    +0.000 A 
ATOM      3  C   UNL     1      45.855   4.739  13.094  0.00  0.00    +0.000 A 
ATOM      4  C   UNL     1      46.578   5.895  13.393  0.00  0.00    +0.000 A 
ATOM      5  C   UNL     1      46.193   7.114  12.843  0.00  0.00    +0.000 A 
ATOM      6  N   UNL     1      46.804   8.317  13.160  0.00  0.00    +0.000 N 
ATOM      7  N   UNL     1      45.137   7.207  12.008  0.00  0.00    +0.000 NA
ATOM      8  C   UNL     1      44.440   6.072  11.731  0.00  0.00    +0.000 A 
ATOM      9  H   UNL     1      46.433   9.016  12.519  0.00  0.00    +0.000 HD
BRANCH   2  11
ATOM     10  N   UNL     1      44.251   2.462  12.481  0.00  0.00    +0.000 N 
ATOM     11  C   UNL     1      43.886   3.669  11.946  0.00  0.00    +0.000 C 
ATOM     12  O   UNL     1      42.873   3.787  11.272  0.00  0.00    +0.000 OA
ATOM     13  H   UNL     1      43.599   1.700  12.353  0.00  0.00    +0.000 HD
ATOM     14  H   UNL     1      44.920   2.383  13.234  0.00  0.00    +0.000 HD
ENDBRANCH   2  11
ENDBRANCH   1   6
BRANCH   1  15
ATOM     15  C   UNL     1      48.590   9.252  14.565  0.00  0.00    +0.000 C 
BRANCH  15  16
ATOM     16  C   UNL     1      48.567   8.491  15.869  0.00  0.00    +0.000 A 
ATOM     17  C   UNL     1      48.160   9.126  17.048  0.00  0.00    +0.000 A 
ATOM     18  C   UNL     1      48.115   8.416  18.242  0.00  0.00    +0.000 A 
ATOM     19  C   UNL     1      48.465   7.062  18.269  0.00  0.00    +0.000 A 
ATOM     20  C   UNL     1      48.846   6.376  17.102  0.00  0.00    +0.000 A 
ATOM     21  C   UNL     1      48.898   7.125  15.909  0.00  0.00    +0.000 A 
BRANCH  20  22
ATOM     22  C   UNL     1      49.160   4.924  17.124  0.00  0.00    +0.000 A 
ATOM     23  C   UNL     1      50.429   4.452  17.513  0.00  0.00    +0.000 A 
ATOM     24  C   UNL     1      50.738   3.085  17.511  0.00  0.00    +0.000 A 
ATOM     25  C   UNL     1      49.779   2.149  17.134  0.00  0.00    +0.000 A 
ATOM     26  C   UNL     1      48.515   2.583  16.754  0.00  0.00    +0.000 A 
ATOM     27  C   UNL     1      48.219   3.947  16.744  0.00  0.00    +0.000 A 
ATOM     28  F   UNL     1      46.989   4.301  16.335  0.00  0.00    +0.000 F 
ENDBRANCH  20  22
ENDBRANCH  15  16
ENDBRANCH   1  15
TORSDOF 5
ENDMDL
MODEL 8
REMARK VINA RESULT:    -7.023      5.340      8.163
REMARK INTER + INTRA:          -9.951
REMARK INTER:                  -9.060
REMARK INTRA:                  -0.891
REMARK UNBOUND:                -0.875
REMARK  Name = 
REMARK  5 active torsions:
REMARK  status: ('A' for Active; 'I' for Inactive)
REMARK    1  A    between atoms: C_2  and  C_4
REMARK    2  A    between atoms: N_8  and  C_9
REMARK    3  A    between atoms: C_9  and  C_10
REMARK    4  A    between atoms: C_10  and  C_11
REMARK    5  A    between atoms: C_15  and  C_16
REMARK                            x       y       z     vdW  Elec       q    Type
REMARK                         _______ _______ _______ _____ _____    ______ ____
ROOT
ATOM      1  C   UNL     1      48.863   7.341  16.031  0.00  0.00    +0.000 C 
ENDROOT
BRANCH   1   6
ATOM      2  C   UNL     1      51.184   3.083  17.555  0.00  0.00    +0.000 A 
ATOM      3  C   UNL     1      51.666   4.386  17.509  0.00  0.00    +0.000 A 
ATOM      4  C   UNL     1      50.784   5.430  17.223  0.00  0.00    +0.000 A 
ATOM      5  C   UNL     1      49.445   5.152  16.965  0.00  0.00    +0.000 A 
ATOM      6  N   UNL     1      48.492   6.137  16.761  0.00  0.00    +0.000 N 
ATOM      7  N   UNL     1      48.975   3.887  16.970  0.00  0.00    +0.000 NA
ATOM      8  C   UNL     1      49.846   2.883  17.256  0.00  0.00    +0.000 A 
ATOM      9  H   UNL     1      47.642   5.667  16.453  0.00  0.00    +0.000 HD
BRANCH   2  11
ATOM     10  N   UNL     1      51.725   0.727  17.325  0.00  0.00    +0.000 N 
ATOM     11  C   UNL     1      52.035   1.928  17.908  0.00  0.00    +0.000 C 
ATOM     12  O   UNL     1      53.000   2.046  18.650  0.00  0.00    +0.000 OA
ATOM     13  H   UNL     1      52.379  -0.028  17.481  0.00  0.00    +0.000 HD
ATOM     14  H   UNL     1      51.108   0.654  16.528  0.00  0.00    +0.000 HD
ENDBRANCH   2  11
ENDBRANCH   1   6
BRANCH   1  15
ATOM     15  C   UNL     1      49.020   7.038  14.536  0.00  0.00    +0.000 C 
BRANCH  15  16
ATOM     16  C   UNL     1      47.719   7.233  13.795  0.00  0.00    +0.000 A 
ATOM     17  C   UNL     1      47.251   8.522  13.521  0.00  0.00    +0.000 A 
ATOM     18  C   UNL     1      46.066   8.698  12.815  0.00  0.00    +0.000 A 
ATOM     19  C   UNL     1      45.343   7.589  12.367  0.00  0.00    +0.000 A 
ATOM     20  C   UNL     1      45.794   6.276  12.590  0.00  0.00    +0.000 A 
ATOM     21  C   UNL     1      46.990   6.127  13.322  0.00  0.00    +0.000 A 
BRANCH  20  22
ATOM     22  C   UNL     1      45.055   5.101  12.062  0.00  0.00    +0.000 A 
ATOM     23  C   UNL     1      44.291   4.272  12.907  0.00  0.00    +0.000 A 
ATOM     24  C   UNL     1      43.611   3.149  12.418  0.00  0.00    +0.000 A 
ATOM     25  C   UNL     1      43.664   2.830  11.064  0.00  0.00    +0.000 A 
ATOM     26  C   UNL     1      44.401   3.634  10.203  0.00  0.00    +0.000 A 
ATOM     27  C   UNL     1      45.087   4.744  10.700  0.00  0.00    +0.000 A 
ATOM     28  F   UNL     1      45.808   5.459   9.820  0.00  0.00    +0.000 F 
ENDBRANCH  20  22
ENDBRANCH  15  16
ENDBRANCH   1  15
TORSDOF 5
ENDMDL
MODEL 9
REMARK VINA RESULT:    -6.987      5.296      7.309
REMARK INTER + INTRA:          -9.905
REMARK INTER:                  -8.942
REMARK INTRA:                  -0.963
REMARK UNBOUND:                -0.875
REMARK  Name = 
REMARK  5 active torsions:
REMARK  status: ('A' for Active; 'I' for Inactive)
REMARK    1  A    between atoms: C_2  and  C_4
REMARK    2  A    between atoms: N_8  and  C_9
REMARK    3  A    between atoms: C_9  and  C_10
REMARK    4  A    between atoms: C_10  and  C_11
REMARK    5  A    between atoms: C_15  and  C_16
REMARK                            x       y       z     vdW  Elec       q    Type
REMARK                         _______ _______ _______ _____ _____    ______ ____
ROOT
ATOM      1  C   UNL     1      48.503   6.633  14.500  0.00  0.00    +0.000 C 
ENDROOT
BRANCH   1   6
ATOM      2  C   UNL     1      45.027   4.029  11.860  0.00  0.00    +0.000 A 
ATOM      3  C   UNL     1      45.927   3.581  12.821  0.00  0.00    +0.000 A 
ATOM      4  C   UNL     1      46.668   4.515  13.548  0.00  0.00    +0.000 A 
ATOM      5  C   UNL     1      46.515   5.874  13.287  0.00  0.00    +0.000 A 
ATOM      6  N   UNL     1      47.147   6.863  14.023  0.00  0.00    +0.000 N 
ATOM      7  N   UNL     1      45.672   6.315  12.331  0.00  0.00    +0.000 NA
ATOM      8  C   UNL     1      44.955   5.393  11.636  0.00  0.00    +0.000 A 
ATOM      9  H   UNL     1      46.982   7.743  13.538  0.00  0.00    +0.000 HD
BRANCH   2  11
ATOM     10  N   UNL     1      44.768   2.346  10.128  0.00  0.00    +0.000 N 
ATOM     11  C   UNL     1      44.162   3.113  11.088  0.00  0.00    +0.000 C 
ATOM     12  O   UNL     1      42.966   3.010  11.324  0.00  0.00    +0.000 OA
ATOM     13  H   UNL     1      44.192   1.642   9.687  0.00  0.00    +0.000 HD
ATOM     14  H   UNL     1      45.770   2.222  10.086  0.00  0.00    +0.000 HD
ENDBRANCH   2  11
ENDBRANCH   1   6
BRANCH   1  15
ATOM     15  C   UNL     1      48.565   6.753  16.027  0.00  0.00    +0.000 C 
BRANCH  15  16
ATOM     16  C   UNL     1      48.599   5.395  16.685  0.00  0.00    +0.000 A 
ATOM     17  C   UNL     1      47.407   4.733  16.998  0.00  0.00    +0.000 A 
ATOM     18  C   UNL     1      47.442   3.471  17.580  0.00  0.00    +0.000 A 
ATOM     19  C   UNL     1      48.667   2.852  17.845  0.00  0.00    +0.000 A 
ATOM     20  C   UNL     1      49.889   3.466  17.516  0.00  0.00    +0.000 A 
ATOM     21  C   UNL     1      49.824   4.752  16.941  0.00  0.00    +0.000 A 
BRANCH  20  22
ATOM     22  C   UNL     1      51.187   2.782  17.745  0.00  0.00    +0.000 A 
ATOM     23  C   UNL     1      51.405   1.456  17.319  0.00  0.00    +0.000 A 
ATOM     24  C   UNL     1      52.619   0.798  17.554  0.00  0.00    +0.000 A 
ATOM     25  C   UNL     1      53.658   1.452  18.210  0.00  0.00    +0.000 A 
ATOM     26  C   UNL     1      53.477   2.763  18.634  0.00  0.00    +0.000 A 
ATOM     27  C   UNL     1      52.260   3.408  18.409  0.00  0.00    +0.000 A 
ATOM     28  F   UNL     1      52.140   4.663  18.873  0.00  0.00    +0.000 F 
ENDBRANCH  20  22
ENDBRANCH  15  16
ENDBRANCH   1  15
TORSDOF 5
ENDMDL
