MODEL 1
REMARK VINA RESULT:    -7.518      0.000      0.000
REMARK INTER + INTRA:         -10.013
REMARK INTER:                  -9.276
REMARK INTRA:                  -0.737
REMARK UNBOUND:                -0.737
REMARK  Name = 
REMARK  4 active torsions:
REMARK  status: ('A' for Active; 'I' for Inactive)
REMARK    1  A    between atoms: C_2  and  C_4
REMARK    2  A    between atoms: C_8  and  C_9
REMARK    3  A    between atoms: C_10  and  C_11
REMARK    4  A    between atoms: C_15  and  C_16
REMARK                            x       y       z     vdW  Elec       q    Type
REMARK                         _______ _______ _______ _____ _____    ______ ____
ROOT
ATOM      1  C   UNL     1      46.672   5.230  13.548  0.00  0.00    +0.000 C 
ATOM      2  C   UNL     1      45.781   4.298  13.170  0.00  0.00    +0.000 C 
ENDROOT
BRANCH   1   7
ATOM      3  C   UNL     1      47.963   4.251  16.974  0.00  0.00    +0.000 A 
ATOM      4  C   UNL     1      48.947   5.221  17.101  0.00  0.00    +0.000 A 
ATOM      5  N   UNL     1      49.222   6.143  16.147  0.00  0.00    +0.000 NA
ATOM      6  C   UNL     1      48.454   6.105  15.031  0.00  0.00    +0.000 A 
ATOM      7  C   UNL     1      47.415   5.199  14.815  0.00  0.00    +0.000 A 
ATOM      8  C   UNL     1      47.184   4.244  15.812  0.00  0.00    +0.000 A 
BRANCH   3  10
ATOM      9  N   UNL     1      48.569   3.411  19.175  0.00  0.00    +0.000 N 
ATOM     10  C   UNL     1      47.771   3.287  18.072  0.00  0.00    +0.000 C 
ATOM     11  O   UNL     1      46.908   2.422  18.017  0.00  0.00    +0.000 OA
ATOM     12  H   UNL     1      48.346   2.809  19.958  0.00  0.00    +0.000 HD
ATOM     13  H   UNL     1      49.098   4.249  19.370  0.00  0.00    +0.000 HD
ENDBRANCH   3  10
ENDBRANCH   1   7
BRANCH   2  14
ATOM     14  C   UNL     1      45.079   4.276  11.873  0.00  0.00    +0.000 A 
ATOM     15  C   UNL     1      43.950   5.063  11.618  0.00  0.00    +0.000 A 
ATOM     16  C   UNL     1      43.366   5.073  10.353  0.00  0.00    +0.000 A 
ATOM     17  C   UNL     1      43.926   4.324   9.319  0.00  0.00    +0.000 A 
ATOM     18  C   UNL     1      45.092   3.564   9.514  0.00  0.00    +0.000 A 
ATOM     19  C   UNL     1      45.633   3.533  10.815  0.00  0.00    +0.000 A 
BRANCH  18  20
ATOM     20  C   UNL     1      45.778   2.908   8.377  0.00  0.00    +0.000 A 
ATOM     21  C   UNL     1      46.187   3.663   7.260  0.00  0.00    +0.000 A 
ATOM     22  C   UNL     1      46.895   3.087   6.202  0.00  0.00    +0.000 A 
ATOM     23  C   UNL     1      47.218   1.736   6.240  0.00  0.00    +0.000 A 
ATOM     24  C   UNL     1      46.821   0.962   7.326  0.00  0.00    +0.000 A 
ATOM     25  C   UNL     1      46.102   1.541   8.380  0.00  0.00    +0.000 A 
ENDBRANCH  18  20
ENDBRANCH   2  14
TORSDOF 4
ENDMDL
MODEL 2
REMARK VINA RESULT:    -7.053      3.768      9.532
REMARK INTER + INTRA:          -9.439
REMARK INTER:                  -8.692
REMARK INTRA:                  -0.747
REMARK UNBOUND:                -0.737
REMARK  Name = 
REMARK  4 active torsions:
REMARK  status: ('A' for Active; 'I' for Inactive)
REMARK    1  A    between atoms: C_2  and  C_4
REMARK    2  A    between atoms: C_8  and  C_9
REMARK    3  A    between atoms: C_10  and  C_11
REMARK    4  A    between atoms: C_15  and  C_16
REMARK                            x       y       z     vdW  Elec       q    Type
REMARK                         _______ _______ _______ _____ _____    ______ ____
ROOT
ATOM      1  C   UNL     1      47.008   4.907  14.337  0.00  0.00    +0.000 C 
ATOM      2  C   UNL     1      47.005   3.896  15.221  0.00  0.00    +0.000 C 
ENDROOT
BRANCH   1   7
ATOM      3  C   UNL     1      44.808   3.881  11.425  0.00  0.00    +0.000 A 
ATOM      4  C   UNL     1      44.921   5.040  10.672  0.00  0.00    +0.000 A 
ATOM      5  N   UNL     1      45.639   6.122  11.059  0.00  0.00    +0.000 NA
ATOM      6  C   UNL     1      46.297   6.020  12.239  0.00  0.00    +0.000 A 
ATOM      7  C   UNL     1      46.284   4.890  13.057  0.00  0.00    +0.000 A 
ATOM      8  C   UNL     1      45.505   3.806  12.635  0.00  0.00    +0.000 A 
BRANCH   3  10
ATOM      9  N   UNL     1      44.438   2.092   9.820  0.00  0.00    +0.000 N 
ATOM     10  C   UNL     1      43.979   2.777  10.910  0.00  0.00    +0.000 C 
ATOM     11  O   UNL     1      42.930   2.461  11.454  0.00  0.00    +0.000 OA
ATOM     12  H   UNL     1      43.907   1.272   9.552  0.00  0.00    +0.000 HD
ATOM     13  H   UNL     1      45.397   2.144   9.510  0.00  0.00    +0.000 HD
ENDBRANCH   3  10
ENDBRANCH   1   7
BRANCH   2  14
ATOM     14  C   UNL     1      47.667   3.924  16.539  0.00  0.00    +0.000 A 
ATOM     15  C   UNL     1      48.719   3.062  16.867  0.00  0.00    +0.000 A 
ATOM     16  C   UNL     1      49.371   3.176  18.093  0.00  0.00    +0.000 A 
ATOM     17  C   UNL     1      49.000   4.177  18.991  0.00  0.00    +0.000 A 
ATOM     18  C   UNL     1      47.987   5.100  18.679  0.00  0.00    +0.000 A 
ATOM     19  C   UNL     1      47.312   4.931  17.454  0.00  0.00    +0.000 A 
BRANCH  18  20
ATOM     20  C   UNL     1      47.713   6.261  19.558  0.00  0.00    +0.000 A 
ATOM     21  C   UNL     1      47.592   6.088  20.951  0.00  0.00    +0.000 A 
ATOM     22  C   UNL     1      47.400   7.170  21.813  0.00  0.00    +0.000 A 
ATOM     23  C   UNL     1      47.332   8.460  21.300  0.00  0.00    +0.000 A 
ATOM     24  C   UNL     1      47.440   8.663  19.927  0.00  0.00    +0.000 A 
ATOM     25  C   UNL     1      47.621   7.574  19.065  0.00  0.00    +0.000 A 
ENDBRANCH  18  20
ENDBRANCH   2  14
TORSDOF 4
ENDMDL
MODEL 3
REMARK VINA RESULT:    -6.843      3.707      4.102
REMARK INTER + INTRA:          -9.180
REMARK INTER:                  -8.458
REMARK INTRA:                  -0.722
REMARK UNBOUND:                -0.737
REMARK  Name = 
REMARK  4 active torsions:
REMARK  status: ('A' for Active; 'I' for Inactive)
REMARK    1  A    between atoms: C_2  and  C_4
REMARK    2  A    between atoms: C_8  and  C_9
REMARK    3  A    between atoms: C_10  and  C_11
REMARK    4  A    between atoms: C_15  and  C_16
REMARK                            x       y       z     vdW  Elec       q    Type
REMARK                         _______ _______ _______ _____ _____    ______ ____
ROOT
ATOM      1  C   UNL     1      47.318   7.318  12.058  0.00  0.00    +0.000 C 
ATOM      2  C   UNL     1      45.994   7.377  11.840  0.00  0.00    +0.000 C 
ENDROOT
BRANCH   1   7
ATOM      3  C   UNL     1      48.878   9.799  14.462  0.00  0.00    +0.000 A 
ATOM      4  C   UNL     1      49.725  10.437  13.568  0.00  0.00    +0.000 A 
ATOM      5  N   UNL     1      49.831  10.100  12.260  0.00  0.00    +0.000 NA
ATOM      6  C   UNL     1      49.028   9.098  11.827  0.00  0.00    +0.000 A 
ATOM      7  C   UNL     1      48.113   8.414  12.629  0.00  0.00    +0.000 A 
ATOM      8  C   UNL     1      48.057   8.773  13.981  0.00  0.00    +0.000 A 
BRANCH   3  10
ATOM      9  N   UNL     1      47.862   9.779  16.671  0.00  0.00    +0.000 N 
ATOM     10  C   UNL     1      48.866  10.241  15.868  0.00  0.00    +0.000 C 
ATOM     11  O   UNL     1      49.741  10.970  16.314  0.00  0.00    +0.000 OA
ATOM     12  H   UNL     1      47.936  10.007  17.655  0.00  0.00    +0.000 HD
ATOM     13  H   UNL     1      47.287   8.988  16.421  0.00  0.00    +0.000 HD
ENDBRANCH   3  10
ENDBRANCH   1   7
BRANCH   2  14
ATOM     14  C   UNL     1      45.170   6.263  11.334  0.00  0.00    +0.000 A 
ATOM     15  C   UNL     1      43.800   6.163  11.600  0.00  0.00    +0.000 A 
ATOM     16  C   UNL     1      43.042   5.139  11.036  0.00  0.00    +0.000 A 
ATOM     17  C   UNL     1      43.641   4.224  10.170  0.00  0.00    +0.000 A 
ATOM     18  C   UNL     1      45.000   4.320   9.830  0.00  0.00    +0.000 A 
ATOM     19  C   UNL     1      45.753   5.335  10.453  0.00  0.00    +0.000 A 
BRANCH  18  20
ATOM     20  C   UNL     1      45.591   3.454   8.782  0.00  0.00    +0.000 A 
ATOM     21  C   UNL     1      46.174   4.022   7.633  0.00  0.00    +0.000 A 
ATOM     22  C   UNL     1      46.798   3.237   6.659  0.00  0.00    +0.000 A 
ATOM     23  C   UNL     1      46.860   1.858   6.818  0.00  0.00    +0.000 A 
ATOM     24  C   UNL     1      46.286   1.266   7.940  0.00  0.00    +0.000 A 
ATOM     25  C   UNL     1      45.652   2.055   8.908  0.00  0.00    +0.000 A 
ENDBRANCH  18  20
ENDBRANCH   2  14
TORSDOF 4
ENDMDL
MODEL 4
REMARK VINA RESULT:    -6.726      4.161      4.512
REMARK INTER + INTRA:          -9.036
REMARK INTER:                  -8.319
REMARK INTRA:                  -0.718
REMARK UNBOUND:                -0.737
REMARK  Name = 
REMARK  4 active torsions:
REMARK  status: ('A' for Active; 'I' for Inactive)
REMARK    1  A    between atoms: C_2  and  C_4
REMARK    2  A    between atoms: C_8  and  C_9
REMARK    3  A    between atoms: C_10  and  C_11
REMARK    4  A    between atoms: C_15  and  C_16
REMARK                            x       y       z     vdW  Elec       q    Type
REMARK                         _______ _______ _______ _____ _____    ______ ____
ROOT
ATOM      1  C   UNL     1      47.443   7.426  11.796  0.00  0.00    +0.000 C 
ATOM      2  C   UNL     1      46.103   7.397  11.890  0.00  0.00    +0.000 C 
ENDROOT
BRANCH   1   7
ATOM      3  C   UNL     1      50.395   9.313  13.241  0.00  0.00    +0.000 A 
ATOM      4  C   UNL     1      49.778  10.542  13.422  0.00  0.00    +0.000 A 
ATOM      5  N   UNL     1      48.489  10.792  13.088  0.00  0.00    +0.000 NA
ATOM      6  C   UNL     1      47.784   9.753  12.580  0.00  0.00    +0.000 A 
ATOM      7  C   UNL     1      48.293   8.468  12.391  0.00  0.00    +0.000 A 
ATOM      8  C   UNL     1      49.637   8.260  12.720  0.00  0.00    +0.000 A 
BRANCH   3  10
ATOM      9  N   UNL     1      52.456   8.020  13.251  0.00  0.00    +0.000 N 
ATOM     10  C   UNL     1      51.812   9.167  13.622  0.00  0.00    +0.000 C 
ATOM     11  O   UNL     1      52.404  10.053  14.223  0.00  0.00    +0.000 OA
ATOM     12  H   UNL     1      53.453   7.990  13.427  0.00  0.00    +0.000 HD
ATOM     13  H   UNL     1      52.091   7.398  12.544  0.00  0.00    +0.000 HD
ENDBRANCH   3  10
ENDBRANCH   1   7
BRANCH   2  14
ATOM     14  C   UNL     1      45.242   6.324  11.360  0.00  0.00    +0.000 A 
ATOM     15  C   UNL     1      43.863   6.283  11.596  0.00  0.00    +0.000 A 
ATOM     16  C   UNL     1      43.073   5.297  11.010  0.00  0.00    +0.000 A 
ATOM     17  C   UNL     1      43.649   4.361  10.151  0.00  0.00    +0.000 A 
ATOM     18  C   UNL     1      45.019   4.398   9.840  0.00  0.00    +0.000 A 
ATOM     19  C   UNL     1      45.802   5.376  10.485  0.00  0.00    +0.000 A 
BRANCH  18  20
ATOM     20  C   UNL     1      45.592   3.512   8.800  0.00  0.00    +0.000 A 
ATOM     21  C   UNL     1      46.184   4.059   7.644  0.00  0.00    +0.000 A 
ATOM     22  C   UNL     1      46.793   3.255   6.678  0.00  0.00    +0.000 A 
ATOM     23  C   UNL     1      46.830   1.876   6.849  0.00  0.00    +0.000 A 
ATOM     24  C   UNL     1      46.247   1.305   7.977  0.00  0.00    +0.000 A 
ATOM     25  C   UNL     1      45.628   2.114   8.938  0.00  0.00    +0.000 A 
ENDBRANCH  18  20
ENDBRANCH   2  14
TORSDOF 4
ENDMDL
MODEL 5
REMARK VINA RESULT:    -6.713      4.197      5.031
REMARK INTER + INTRA:          -9.020
REMARK INTER:                  -8.281
REMARK INTRA:                  -0.739
REMARK UNBOUND:                -0.737
REMARK  Name = 
REMARK  4 active torsions:
REMARK  status: ('A' for Active; 'I' for Inactive)
REMARK    1  A    between atoms: C_2  and  C_4
REMARK    2  A    between atoms: C_8  and  C_9
REMARK    3  A    between atoms: C_10  and  C_11
REMARK    4  A    between atoms: C_15  and  C_16
REMARK                            x       y       z     vdW  Elec       q    Type
REMARK                         _______ _______ _______ _____ _____    ______ ____
ROOT
ATOM      1  C   UNL     1      47.364   7.380  12.033  0.00  0.00    +0.000 C 
ATOM      2  C   UNL     1      46.054   7.475  11.753  0.00  0.00    +0.000 C 
ENDROOT
BRANCH   1   7
ATOM      3  C   UNL     1      48.587  10.812  13.081  0.00  0.00    +0.000 A 
ATOM      4  C   UNL     1      49.782  10.426  13.671  0.00  0.00    +0.000 A 
ATOM      5  N   UNL     1      50.193   9.139  13.765  0.00  0.00    +0.000 NA
ATOM      6  C   UNL     1      49.383   8.204  13.214  0.00  0.00    +0.000 A 
ATOM      7  C   UNL     1      48.181   8.482  12.563  0.00  0.00    +0.000 A 
ATOM      8  C   UNL     1      47.777   9.822  12.515  0.00  0.00    +0.000 A 
BRANCH   3  10
ATOM      9  N   UNL     1      48.186  12.904  14.254  0.00  0.00    +0.000 N 
ATOM     10  C   UNL     1      48.236  12.243  13.059  0.00  0.00    +0.000 C 
ATOM     11  O   UNL     1      48.026  12.831  12.007  0.00  0.00    +0.000 OA
ATOM     12  H   UNL     1      48.051  13.907  14.204  0.00  0.00    +0.000 HD
ATOM     13  H   UNL     1      48.600  12.533  15.097  0.00  0.00    +0.000 HD
ENDBRANCH   3  10
ENDBRANCH   1   7
BRANCH   2  14
ATOM     14  C   UNL     1      45.206   6.362  11.289  0.00  0.00    +0.000 A 
ATOM     15  C   UNL     1      43.837   6.295  11.570  0.00  0.00    +0.000 A 
ATOM     16  C   UNL     1      43.056   5.268  11.044  0.00  0.00    +0.000 A 
ATOM     17  C   UNL     1      43.630   4.317  10.200  0.00  0.00    +0.000 A 
ATOM     18  C   UNL     1      44.988   4.378   9.845  0.00  0.00    +0.000 A 
ATOM     19  C   UNL     1      45.764   5.398  10.430  0.00  0.00    +0.000 A 
BRANCH  18  20
ATOM     20  C   UNL     1      45.553   3.470   8.819  0.00  0.00    +0.000 A 
ATOM     21  C   UNL     1      46.176   3.995   7.669  0.00  0.00    +0.000 A 
ATOM     22  C   UNL     1      46.777   3.168   6.716  0.00  0.00    +0.000 A 
ATOM     23  C   UNL     1      46.775   1.790   6.896  0.00  0.00    +0.000 A 
ATOM     24  C   UNL     1      46.160   1.241   8.018  0.00  0.00    +0.000 A 
ATOM     25  C   UNL     1      45.550   2.073   8.966  0.00  0.00    +0.000 A 
ENDBRANCH  18  20
ENDBRANCH   2  14
TORSDOF 4
ENDMDL
MODEL 6
REMARK VINA RESULT:    -6.542      4.683      5.323
REMARK INTER + INTRA:          -8.809
REMARK INTER:                  -8.090
REMARK INTRA:                  -0.719
REMARK UNBOUND:                -0.737
REMARK  Name = 
REMARK  4 active torsions:
REMARK  status: ('A' for Active; 'I' for Inactive)
REMARK    1  A    between atoms: C_2  and  C_4
REMARK    2  A    between atoms: C_8  and  C_9
REMARK    3  A    between atoms: C_10  and  C_11
REMARK    4  A    between atoms: C_15  and  C_16
REMARK                            x       y       z     vdW  Elec       q    Type
REMARK                         _______ _______ _______ _____ _____    ______ ____
ROOT
ATOM      1  C   UNL     1      46.018   7.623  11.448  0.00  0.00    +0.000 C 
ATOM      2  C   UNL     1      44.816   7.037  11.584  0.00  0.00    +0.000 C 
ENDROOT
BRANCH   1   7
ATOM      3  C   UNL     1      47.782  10.836  12.410  0.00  0.00    +0.000 A 
ATOM      4  C   UNL     1      46.690  11.690  12.352  0.00  0.00    +0.000 A 
ATOM      5  N   UNL     1      45.442  11.291  12.004  0.00  0.00    +0.000 NA
ATOM      6  C   UNL     1      45.282   9.973  11.734  0.00  0.00    +0.000 A 
ATOM      7  C   UNL     1      46.301   9.022  11.799  0.00  0.00    +0.000 A 
ATOM      8  C   UNL     1      47.581   9.481  12.132  0.00  0.00    +0.000 A 
BRANCH   3  10
ATOM      9  N   UNL     1      50.179  10.561  12.711  0.00  0.00    +0.000 N 
ATOM     10  C   UNL     1      49.096  11.391  12.780  0.00  0.00    +0.000 C 
ATOM     11  O   UNL     1      49.224  12.563  13.107  0.00  0.00    +0.000 OA
ATOM     12  H   UNL     1      51.084  10.991  12.863  0.00  0.00    +0.000 HD
ATOM     13  H   UNL     1      50.162   9.686  12.206  0.00  0.00    +0.000 HD
ENDBRANCH   3  10
ENDBRANCH   1   7
BRANCH   2  14
ATOM     14  C   UNL     1      44.532   5.617  11.304  0.00  0.00    +0.000 A 
ATOM     15  C   UNL     1      43.483   4.927  11.921  0.00  0.00    +0.000 A 
ATOM     16  C   UNL     1      43.198   3.609  11.568  0.00  0.00    +0.000 A 
ATOM     17  C   UNL     1      43.938   2.979  10.567  0.00  0.00    +0.000 A 
ATOM     18  C   UNL     1      44.963   3.652   9.881  0.00  0.00    +0.000 A 
ATOM     19  C   UNL     1      45.262   4.967  10.292  0.00  0.00    +0.000 A 
BRANCH  18  20
ATOM     20  C   UNL     1      45.630   3.040   8.709  0.00  0.00    +0.000 A 
ATOM     21  C   UNL     1      46.039   3.840   7.623  0.00  0.00    +0.000 A 
ATOM     22  C   UNL     1      46.730   3.304   6.533  0.00  0.00    +0.000 A 
ATOM     23  C   UNL     1      47.036   1.949   6.507  0.00  0.00    +0.000 A 
ATOM     24  C   UNL     1      46.638   1.131   7.561  0.00  0.00    +0.000 A 
ATOM     25  C   UNL     1      45.937   1.670   8.646  0.00  0.00    +0.000 A 
ENDBRANCH  18  20
ENDBRANCH   2  14
TORSDOF 4
ENDMDL
MODEL 7
REMARK VINA RESULT:    -6.481      1.985      2.276
REMARK INTER + INTRA:          -8.733
REMARK INTER:                  -7.996
REMARK INTRA:                  -0.737
REMARK UNBOUND:                -0.737
REMARK  Name = 
REMARK  4 active torsions:
REMARK  status: ('A' for Active; 'I' for Inactive)
REMARK    1  A    between atoms: C_2  and  C_4
REMARK    2  A    between atoms: C_8  and  C_9
REMARK    3  A    between atoms: C_10  and  C_11
REMARK    4  A    between atoms: C_15  and  C_16
REMARK                            x       y       z     vdW  Elec       q    Type
REMARK                         _______ _______ _______ _____ _____    ______ ____
ROOT
ATOM      1  C   UNL     1      47.551   6.420  12.961  0.00  0.00    +0.000 C 
ATOM      2  C   UNL     1      46.282   6.089  13.254  0.00  0.00    +0.000 C 
ENDROOT
BRANCH   1   7
ATOM      3  C   UNL     1      49.543   6.902  16.150  0.00  0.00    +0.000 A 
ATOM      4  C   UNL     1      50.491   7.788  15.661  0.00  0.00    +0.000 A 
ATOM      5  N   UNL     1      50.531   8.213  14.375  0.00  0.00    +0.000 NA
ATOM      6  C   UNL     1      49.557   7.750  13.555  0.00  0.00    +0.000 A 
ATOM      7  C   UNL     1      48.535   6.886  13.949  0.00  0.00    +0.000 A 
ATOM      8  C   UNL     1      48.548   6.448  15.278  0.00  0.00    +0.000 A 
BRANCH   3  10
ATOM      9  N   UNL     1      48.618   6.914  18.399  0.00  0.00    +0.000 N 
ATOM     10  C   UNL     1      49.615   6.494  17.564  0.00  0.00    +0.000 C 
ATOM     11  O   UNL     1      50.517   5.778  17.976  0.00  0.00    +0.000 OA
ATOM     12  H   UNL     1      48.630   6.533  19.337  0.00  0.00    +0.000 HD
ATOM     13  H   UNL     1      47.739   7.274  18.056  0.00  0.00    +0.000 HD
ENDBRANCH   3  10
ENDBRANCH   1   7
BRANCH   2  14
ATOM     14  C   UNL     1      45.304   5.554  12.289  0.00  0.00    +0.000 A 
ATOM     15  C   UNL     1      43.963   5.952  12.281  0.00  0.00    +0.000 A 
ATOM     16  C   UNL     1      43.091   5.483  11.302  0.00  0.00    +0.000 A 
ATOM     17  C   UNL     1      43.560   4.638  10.296  0.00  0.00    +0.000 A 
ATOM     18  C   UNL     1      44.911   4.257  10.231  0.00  0.00    +0.000 A 
ATOM     19  C   UNL     1      45.760   4.707  11.263  0.00  0.00    +0.000 A 
BRANCH  18  20
ATOM     20  C   UNL     1      45.439   3.501   9.072  0.00  0.00    +0.000 A 
ATOM     21  C   UNL     1      45.882   4.181   7.920  0.00  0.00    +0.000 A 
ATOM     22  C   UNL     1      46.447   3.502   6.836  0.00  0.00    +0.000 A 
ATOM     23  C   UNL     1      46.588   2.121   6.883  0.00  0.00    +0.000 A 
ATOM     24  C   UNL     1      46.152   1.420   8.005  0.00  0.00    +0.000 A 
ATOM     25  C   UNL     1      45.577   2.103   9.084  0.00  0.00    +0.000 A 
ENDBRANCH  18  20
ENDBRANCH   2  14
TORSDOF 4
ENDMDL
MODEL 8
REMARK VINA RESULT:    -6.272      3.819      8.634
REMARK INTER + INTRA:          -8.476
REMARK INTER:                  -7.770
REMARK INTRA:                  -0.706
REMARK UNBOUND:                -0.737
REMARK  Name = 
REMARK  4 active torsions:
REMARK  status: ('A' for Active; 'I' for Inactive)
REMARK    1  A    between atoms: C_2  and  C_4
REMARK    2  A    between atoms: C_8  and  C_9
REMARK    3  A    between atoms: C_10  and  C_11
REMARK    4  A    between atoms: C_15  and  C_16
REMARK                            x       y       z     vdW  Elec       q    Type
REMARK                         _______ _______ _______ _____ _____    ______ ____
ROOT
ATOM      1  C   UNL     1      47.354   4.515  14.413  0.00  0.00    +0.000 C 
ATOM      2  C   UNL     1      46.935   4.730  15.671  0.00  0.00    +0.000 C 
ENDROOT
BRANCH   1   7
ATOM      3  C   UNL     1      44.966   3.846  11.547  0.00  0.00    +0.000 A 
ATOM      4  C   UNL     1      44.905   5.133  11.033  0.00  0.00    +0.000 A 
ATOM      5  N   UNL     1      45.566   6.188  11.567  0.00  0.00    +0.000 NA
ATOM      6  C   UNL     1      46.345   5.930  12.645  0.00  0.00    +0.000 A 
ATOM      7  C   UNL     1      46.509   4.670  13.220  0.00  0.00    +0.000 A 
ATOM      8  C   UNL     1      45.785   3.613  12.657  0.00  0.00    +0.000 A 
BRANCH   3  10
ATOM      9  N   UNL     1      43.306   2.072  11.663  0.00  0.00    +0.000 N 
ATOM     10  C   UNL     1      44.183   2.783  10.892  0.00  0.00    +0.000 C 
ATOM     11  O   UNL     1      44.287   2.561   9.694  0.00  0.00    +0.000 OA
ATOM     12  H   UNL     1      42.703   1.424  11.171  0.00  0.00    +0.000 HD
ATOM     13  H   UNL     1      43.003   2.389  12.572  0.00  0.00    +0.000 HD
ENDBRANCH   3  10
ENDBRANCH   1   7
BRANCH   2  14
ATOM     14  C   UNL     1      47.787   4.648  16.872  0.00  0.00    +0.000 A 
ATOM     15  C   UNL     1      47.347   5.065  18.133  0.00  0.00    +0.000 A 
ATOM     16  C   UNL     1      48.154   4.896  19.256  0.00  0.00    +0.000 A 
ATOM     17  C   UNL     1      49.396   4.274  19.135  0.00  0.00    +0.000 A 
ATOM     18  C   UNL     1      49.854   3.788  17.899  0.00  0.00    +0.000 A 
ATOM     19  C   UNL     1      49.039   4.017  16.772  0.00  0.00    +0.000 A 
BRANCH  18  20
ATOM     20  C   UNL     1      51.093   2.981  17.804  0.00  0.00    +0.000 A 
ATOM     21  C   UNL     1      52.333   3.532  18.183  0.00  0.00    +0.000 A 
ATOM     22  C   UNL     1      53.509   2.776  18.170  0.00  0.00    +0.000 A 
ATOM     23  C   UNL     1      53.469   1.442  17.781  0.00  0.00    +0.000 A 
ATOM     24  C   UNL     1      52.260   0.872  17.393  0.00  0.00    +0.000 A 
ATOM     25  C   UNL     1      51.086   1.635  17.398  0.00  0.00    +0.000 A 
ENDBRANCH  18  20
ENDBRANCH   2  14
TORSDOF 4
ENDMDL
MODEL 9
REMARK VINA RESULT:    -6.188      5.247      7.875
REMARK INTER + INTRA:          -8.372
REMARK INTER:                  -7.627
REMARK INTRA:                  -0.744
REMARK UNBOUND:                -0.737
REMARK  Name = 
REMARK  4 active torsions:
REMARK  status: ('A' for Active; 'I' for Inactive)
REMARK    1  A    between atoms: C_2  and  C_4
REMARK    2  A    between atoms: C_8  and  C_9
REMARK    3  A    between atoms: C_10  and  C_11
REMARK    4  A    between atoms: C_15  and  C_16
REMARK                            x       y       z     vdW  Elec       q    Type
REMARK                         _______ _______ _______ _____ _____    ______ ____
ROOT
ATOM      1  C   UNL     1      46.016   6.245  12.498  0.00  0.00    +0.000 C 
ATOM      2  C   UNL     1      46.986   6.766  11.728  0.00  0.00    +0.000 C 
ENDROOT
BRANCH   1   7
ATOM      3  C   UNL     1      44.435   3.390  10.570  0.00  0.00    +0.000 A 
ATOM      4  C   UNL     1      43.639   2.881  11.584  0.00  0.00    +0.000 A 
ATOM      5  N   UNL     1      43.603   3.390  12.840  0.00  0.00    +0.000 NA
ATOM      6  C   UNL     1      44.379   4.475  13.074  0.00  0.00    +0.000 A 
ATOM      7  C   UNL     1      45.188   5.091  12.119  0.00  0.00    +0.000 A 
ATOM      8  C   UNL     1      45.219   4.516  10.843  0.00  0.00    +0.000 A 
BRANCH   3  10
ATOM      9  N   UNL     1      44.356   3.540   8.143  0.00  0.00    +0.000 N 
ATOM     10  C   UNL     1      44.406   2.737   9.249  0.00  0.00    +0.000 C 
ATOM     11  O   UNL     1      44.457   1.520   9.138  0.00  0.00    +0.000 OA
ATOM     12  H   UNL     1      44.447   3.074   7.249  0.00  0.00    +0.000 HD
ATOM     13  H   UNL     1      44.575   4.525   8.177  0.00  0.00    +0.000 HD
ENDBRANCH   3  10
ENDBRANCH   1   7
BRANCH   2  14
ATOM     14  C   UNL     1      47.872   7.877  12.122  0.00  0.00    +0.000 A 
ATOM     15  C   UNL     1      47.596   8.705  13.216  0.00  0.00    +0.000 A 
ATOM     16  C   UNL     1      48.499   9.692  13.603  0.00  0.00    +0.000 A 
ATOM     17  C   UNL     1      49.707   9.839  12.921  0.00  0.00    +0.000 A 
ATOM     18  C   UNL     1      50.052   8.993  11.853  0.00  0.00    +0.000 A 
ATOM     19  C   UNL     1      49.098   8.036  11.452  0.00  0.00    +0.000 A 
BRANCH  18  20
ATOM     20  C   UNL     1      51.402   9.040  11.244  0.00  0.00    +0.000 A 
ATOM     21  C   UNL     1      51.903   7.930  10.536  0.00  0.00    +0.000 A 
ATOM     22  C   UNL     1      53.143   7.966   9.893  0.00  0.00    +0.000 A 
ATOM     23  C   UNL     1      53.913   9.123   9.939  0.00  0.00    +0.000 A 
ATOM     24  C   UNL     1      53.448  10.233  10.638  0.00  0.00    +0.000 A 
ATOM     25  C   UNL     1      52.209  10.189  11.289  0.00  0.00    +0.000 A 
ENDBRANCH  18  20
ENDBRANCH   2  14
TORSDOF 4
ENDMDL
