MODEL 1
REMARK VINA RESULT:    -7.545      0.000      0.000
REMARK INTER + INTRA:         -11.839
REMARK INTER:                 -10.633
REMARK INTRA:                  -1.207
REMARK UNBOUND:                -1.207
REMARK  Name = 
REMARK  8 active torsions:
REMARK  status: ('A' for Active; 'I' for Inactive)
REMARK    1  A    between atoms: C_1  and  O_2
REMARK    2  A    between atoms: O_2  and  C_3
REMARK    3  A    between atoms: C_7  and  C_8
REMARK    4  A    between atoms: N_10  and  C_11
REMARK    5  A    between atoms: C_11  and  C_12
REMARK    6  A    between atoms: C_15  and  C_16
REMARK    7  A    between atoms: C_16  and  N_17
REMARK    8  A    between atoms: C_18  and  C_20
REMARK                            x       y       z     vdW  Elec       q    Type
REMARK                         _______ _______ _______ _____ _____    ______ ____
ROOT
ATOM      1  C   UNL     1      45.401   6.664  11.247  0.00  0.00    +0.000 A 
ATOM      2  C   UNL     1      46.700   6.215  11.525  0.00  0.00    +0.000 A 
ATOM      3  C   UNL     1      47.484   6.852  12.497  0.00  0.00    +0.000 A 
ATOM      4  C   UNL     1      46.977   7.937  13.224  0.00  0.00    +0.000 A 
ATOM      5  C   UNL     1      45.692   8.405  12.920  0.00  0.00    +0.000 A 
ATOM      6  C   UNL     1      44.908   7.769  11.951  0.00  0.00    +0.000 A 
ENDROOT
BRANCH   1   7
ATOM      7  C   UNL     1      44.533   5.949  10.242  0.00  0.00    +0.000 C 
BRANCH   7  10
ATOM      8  C   UNL     1      45.026   3.814   9.140  0.00  0.00    +0.000 C 
ATOM      9  O   UNL     1      44.137   3.230   9.746  0.00  0.00    +0.000 OA
ATOM     10  N   UNL     1      45.326   5.147   9.336  0.00  0.00    +0.000 N 
ATOM     11  H   UNL     1      45.913   5.630   8.669  0.00  0.00    +0.000 HD
BRANCH   8  16
ATOM     12  C   UNL     1      46.959   1.081   7.381  0.00  0.00    +0.000 A 
ATOM     13  C   UNL     1      47.253   1.687   6.159  0.00  0.00    +0.000 A 
ATOM     14  C   UNL     1      46.850   3.003   5.910  0.00  0.00    +0.000 A 
ATOM     15  C   UNL     1      46.132   3.714   6.873  0.00  0.00    +0.000 A 
ATOM     16  C   UNL     1      45.815   3.106   8.093  0.00  0.00    +0.000 A 
ATOM     17  C   UNL     1      46.254   1.800   8.351  0.00  0.00    +0.000 A 
BRANCH  12  19
ATOM     18  C   UNL     1      46.409  -1.233   7.337  0.00  0.00    +0.000 C 
ATOM     19  O   UNL     1      47.297  -0.196   7.740  0.00  0.00    +0.000 OA
ENDBRANCH  12  19
ENDBRANCH   8  16
ENDBRANCH   7  10
ENDBRANCH   1   7
BRANCH   4  20
ATOM     20  C   UNL     1      47.792   8.614  14.301  0.00  0.00    +0.000 C 
BRANCH  20  21
ATOM     21  N   UNL     1      48.058   7.725  15.401  0.00  0.00    +0.000 N 
ATOM     22  C   UNL     1      49.293   7.158  15.585  0.00  0.00    +0.000 C 
ATOM     23  O   UNL     1      50.248   7.407  14.853  0.00  0.00    +0.000 OA
ATOM     24  H   UNL     1      47.251   7.293  15.838  0.00  0.00    +0.000 HD
BRANCH  22  25
ATOM     25  C   UNL     1      49.434   6.279  16.756  0.00  0.00    +0.000 A 
ATOM     26  C   UNL     1      50.326   6.602  17.768  0.00  0.00    +0.000 A 
ATOM     27  S   UNL     1      50.296   5.509  19.079  0.00  0.00    +0.000 S 
ATOM     28  C   UNL     1      49.136   4.532  18.310  0.00  0.00    +0.000 A 
ATOM     29  N   UNL     1      48.679   3.393  18.896  0.00  0.00    +0.000 NA
ATOM     30  C   UNL     1      47.821   2.735  18.187  0.00  0.00    +0.000 A 
ATOM     31  N   UNL     1      47.377   3.117  16.948  0.00  0.00    +0.000 N 
ATOM     32  C   UNL     1      47.792   4.272  16.329  0.00  0.00    +0.000 A 
ATOM     33  O   UNL     1      47.345   4.601  15.237  0.00  0.00    +0.000 OA
ATOM     34  C   UNL     1      48.763   5.041  17.080  0.00  0.00    +0.000 A 
ATOM     35  H   UNL     1      46.699   2.563  16.447  0.00  0.00    +0.000 HD
ENDBRANCH  22  25
ENDBRANCH  20  21
ENDBRANCH   4  20
TORSDOF 7
ENDMDL
MODEL 2
REMARK VINA RESULT:    -7.190      1.783      2.120
REMARK INTER + INTRA:         -11.339
REMARK INTER:                 -10.368
REMARK INTRA:                  -0.971
REMARK UNBOUND:                -1.207
REMARK  Name = 
REMARK  8 active torsions:
REMARK  status: ('A' for Active; 'I' for Inactive)
REMARK    1  A    between atoms: C_1  and  O_2
REMARK    2  A    between atoms: O_2  and  C_3
REMARK    3  A    between atoms: C_7  and  C_8
REMARK    4  A    between atoms: N_10  and  C_11
REMARK    5  A    between atoms: C_11  and  C_12
REMARK    6  A    between atoms: C_15  and  C_16
REMARK    7  A    between atoms: C_16  and  N_17
REMARK    8  A    between atoms: C_18  and  C_20
REMARK                            x       y       z     vdW  Elec       q    Type
REMARK                         _______ _______ _______ _____ _____    ______ ____
ROOT
ATOM      1  C   UNL     1      44.883   5.309  12.012  0.00  0.00    +0.000 A 
ATOM      2  C   UNL     1      46.122   5.204  12.663  0.00  0.00    +0.000 A 
ATOM      3  C   UNL     1      46.801   6.351  13.098  0.00  0.00    +0.000 A 
ATOM      4  C   UNL     1      46.245   7.623  12.911  0.00  0.00    +0.000 A 
ATOM      5  C   UNL     1      45.024   7.727  12.230  0.00  0.00    +0.000 A 
ATOM      6  C   UNL     1      44.346   6.583  11.796  0.00  0.00    +0.000 A 
ENDROOT
BRANCH   1   7
ATOM      7  C   UNL     1      44.124   4.077  11.590  0.00  0.00    +0.000 C 
BRANCH   7  10
ATOM      8  C   UNL     1      44.677   3.669   9.236  0.00  0.00    +0.000 C 
ATOM      9  O   UNL     1      43.902   4.533   8.844  0.00  0.00    +0.000 OA
ATOM     10  N   UNL     1      44.836   3.342  10.567  0.00  0.00    +0.000 N 
ATOM     11  H   UNL     1      45.629   2.784  10.853  0.00  0.00    +0.000 HD
BRANCH   8  16
ATOM     12  C   UNL     1      46.669   0.879   7.639  0.00  0.00    +0.000 A 
ATOM     13  C   UNL     1      47.134   1.496   6.477  0.00  0.00    +0.000 A 
ATOM     14  C   UNL     1      46.827   2.836   6.219  0.00  0.00    +0.000 A 
ATOM     15  C   UNL     1      46.036   3.561   7.111  0.00  0.00    +0.000 A 
ATOM     16  C   UNL     1      45.548   2.944   8.269  0.00  0.00    +0.000 A 
ATOM     17  C   UNL     1      45.890   1.612   8.540  0.00  0.00    +0.000 A 
BRANCH  12  19
ATOM     18  C   UNL     1      46.517  -1.424   7.066  0.00  0.00    +0.000 C 
ATOM     19  O   UNL     1      46.901  -0.421   8.000  0.00  0.00    +0.000 OA
ENDBRANCH  12  19
ENDBRANCH   8  16
ENDBRANCH   7  10
ENDBRANCH   1   7
BRANCH   4  20
ATOM     20  C   UNL     1      46.942   8.868  13.406  0.00  0.00    +0.000 C 
BRANCH  20  21
ATOM     21  N   UNL     1      47.183   8.812  14.824  0.00  0.00    +0.000 N 
ATOM     22  C   UNL     1      48.427   8.542  15.331  0.00  0.00    +0.000 C 
ATOM     23  O   UNL     1      49.410   8.375  14.612  0.00  0.00    +0.000 OA
ATOM     24  H   UNL     1      46.371   8.668  15.415  0.00  0.00    +0.000 HD
BRANCH  22  25
ATOM     25  C   UNL     1      48.540   8.527  16.797  0.00  0.00    +0.000 A 
ATOM     26  C   UNL     1      48.298   9.682  17.528  0.00  0.00    +0.000 A 
ATOM     27  S   UNL     1      48.399   9.455  19.216  0.00  0.00    +0.000 S 
ATOM     28  C   UNL     1      48.832   7.821  19.028  0.00  0.00    +0.000 A 
ATOM     29  N   UNL     1      49.091   7.035  20.107  0.00  0.00    +0.000 NA
ATOM     30  C   UNL     1      49.435   5.824  19.814  0.00  0.00    +0.000 A 
ATOM     31  N   UNL     1      49.538   5.328  18.541  0.00  0.00    +0.000 N 
ATOM     32  C   UNL     1      49.262   6.078  17.422  0.00  0.00    +0.000 A 
ATOM     33  O   UNL     1      49.329   5.592  16.301  0.00  0.00    +0.000 OA
ATOM     34  C   UNL     1      48.881   7.449  17.697  0.00  0.00    +0.000 A 
ATOM     35  H   UNL     1      49.805   4.369  18.378  0.00  0.00    +0.000 HD
ENDBRANCH  22  25
ENDBRANCH  20  21
ENDBRANCH   4  20
TORSDOF 7
ENDMDL
MODEL 3
REMARK VINA RESULT:    -7.128      4.365      7.443
REMARK INTER + INTRA:         -11.252
REMARK INTER:                 -10.165
REMARK INTRA:                  -1.087
REMARK UNBOUND:                -1.207
REMARK  Name = 
REMARK  8 active torsions:
REMARK  status: ('A' for Active; 'I' for Inactive)
REMARK    1  A    between atoms: C_1  and  O_2
REMARK    2  A    between atoms: O_2  and  C_3
REMARK    3  A    between atoms: C_7  and  C_8
REMARK    4  A    between atoms: N_10  and  C_11
REMARK    5  A    between atoms: C_11  and  C_12
REMARK    6  A    between atoms: C_15  and  C_16
REMARK    7  A    between atoms: C_16  and  N_17
REMARK    8  A    between atoms: C_18  and  C_20
REMARK                            x       y       z     vdW  Elec       q    Type
REMARK                         _______ _______ _______ _____ _____    ______ ____
ROOT
ATOM      1  C   UNL     1      44.874   9.184  11.808  0.00  0.00    +0.000 A 
ATOM      2  C   UNL     1      44.191   8.048  11.350  0.00  0.00    +0.000 A 
ATOM      3  C   UNL     1      44.585   6.765  11.753  0.00  0.00    +0.000 A 
ATOM      4  C   UNL     1      45.658   6.593  12.638  0.00  0.00    +0.000 A 
ATOM      5  C   UNL     1      46.360   7.728  13.067  0.00  0.00    +0.000 A 
ATOM      6  C   UNL     1      45.967   9.009  12.666  0.00  0.00    +0.000 A 
ENDROOT
BRANCH   1   7
ATOM      7  C   UNL     1      44.421  10.570  11.421  0.00  0.00    +0.000 C 
BRANCH   7  10
ATOM      8  C   UNL     1      42.021  10.839  10.994  0.00  0.00    +0.000 C 
ATOM      9  O   UNL     1      42.160  10.685   9.787  0.00  0.00    +0.000 OA
ATOM     10  N   UNL     1      43.076  10.833  11.884  0.00  0.00    +0.000 N 
ATOM     11  H   UNL     1      42.893  10.749  12.875  0.00  0.00    +0.000 HD
BRANCH   8  16
ATOM     12  C   UNL     1      38.318  10.338  11.571  0.00  0.00    +0.000 A 
ATOM     13  C   UNL     1      38.088  11.175  12.664  0.00  0.00    +0.000 A 
ATOM     14  C   UNL     1      39.133  11.932  13.203  0.00  0.00    +0.000 A 
ATOM     15  C   UNL     1      40.418  11.842  12.666  0.00  0.00    +0.000 A 
ATOM     16  C   UNL     1      40.661  10.990  11.583  0.00  0.00    +0.000 A 
ATOM     17  C   UNL     1      39.602  10.262  11.023  0.00  0.00    +0.000 A 
BRANCH  12  19
ATOM     18  C   UNL     1      36.181   9.299  11.683  0.00  0.00    +0.000 C 
ATOM     19  O   UNL     1      37.380   9.550  10.958  0.00  0.00    +0.000 OA
ENDBRANCH  12  19
ENDBRANCH   8  16
ENDBRANCH   7  10
ENDBRANCH   1   7
BRANCH   4  20
ATOM     20  C   UNL     1      46.075   5.222  13.114  0.00  0.00    +0.000 C 
BRANCH  20  21
ATOM     21  N   UNL     1      46.675   5.274  14.421  0.00  0.00    +0.000 N 
ATOM     22  C   UNL     1      47.277   4.177  14.980  0.00  0.00    +0.000 C 
ATOM     23  O   UNL     1      47.377   3.106  14.386  0.00  0.00    +0.000 OA
ATOM     24  H   UNL     1      46.370   6.029  15.028  0.00  0.00    +0.000 HD
BRANCH  22  25
ATOM     25  C   UNL     1      47.862   4.370  16.315  0.00  0.00    +0.000 A 
ATOM     26  C   UNL     1      47.477   3.557  17.371  0.00  0.00    +0.000 A 
ATOM     27  S   UNL     1      48.318   3.876  18.822  0.00  0.00    +0.000 S 
ATOM     28  C   UNL     1      49.180   5.155  18.106  0.00  0.00    +0.000 A 
ATOM     29  N   UNL     1      50.076   5.886  18.823  0.00  0.00    +0.000 NA
ATOM     30  C   UNL     1      50.637   6.843  18.159  0.00  0.00    +0.000 A 
ATOM     31  N   UNL     1      50.387   7.130  16.843  0.00  0.00    +0.000 N 
ATOM     32  C   UNL     1      49.510   6.404  16.073  0.00  0.00    +0.000 A 
ATOM     33  O   UNL     1      49.338   6.666  14.889  0.00  0.00    +0.000 OA
ATOM     34  C   UNL     1      48.846   5.324  16.774  0.00  0.00    +0.000 A 
ATOM     35  H   UNL     1      50.864   7.888  16.378  0.00  0.00    +0.000 HD
ENDBRANCH  22  25
ENDBRANCH  20  21
ENDBRANCH   4  20
TORSDOF 7
ENDMDL
MODEL 4
REMARK VINA RESULT:    -6.987      1.576      2.150
REMARK INTER + INTRA:         -11.054
REMARK INTER:                  -9.795
REMARK INTRA:                  -1.259
REMARK UNBOUND:                -1.207
REMARK  Name = 
REMARK  8 active torsions:
REMARK  status: ('A' for Active; 'I' for Inactive)
REMARK    1  A    between atoms: C_1  and  O_2
REMARK    2  A    between atoms: O_2  and  C_3
REMARK    3  A    between atoms: C_7  and  C_8
REMARK    4  A    between atoms: N_10  and  C_11
REMARK    5  A    between atoms: C_11  and  C_12
REMARK    6  A    between atoms: C_15  and  C_16
REMARK    7  A    between atoms: C_16  and  N_17
REMARK    8  A    between atoms: C_18  and  C_20
REMARK                            x       y       z     vdW  Elec       q    Type
REMARK                         _______ _______ _______ _____ _____    ______ ____
ROOT
ATOM      1  C   UNL     1      46.009   7.698  12.008  0.00  0.00    +0.000 A 
ATOM      2  C   UNL     1      47.241   7.038  11.892  0.00  0.00    +0.000 A 
ATOM      3  C   UNL     1      48.326   7.402  12.702  0.00  0.00    +0.000 A 
ATOM      4  C   UNL     1      48.194   8.418  13.657  0.00  0.00    +0.000 A 
ATOM      5  C   UNL     1      46.972   9.098  13.747  0.00  0.00    +0.000 A 
ATOM      6  C   UNL     1      45.889   8.735  12.940  0.00  0.00    +0.000 A 
ENDROOT
BRANCH   1   7
ATOM      7  C   UNL     1      44.823   7.275  11.178  0.00  0.00    +0.000 C 
BRANCH   7  10
ATOM      8  C   UNL     1      44.740   4.895  10.591  0.00  0.00    +0.000 C 
ATOM      9  O   UNL     1      44.128   4.606  11.612  0.00  0.00    +0.000 OA
ATOM     10  N   UNL     1      45.159   6.177  10.298  0.00  0.00    +0.000 N 
ATOM     11  H   UNL     1      45.463   6.401   9.360  0.00  0.00    +0.000 HD
BRANCH   8  16
ATOM     12  C   UNL     1      45.936   3.304   7.376  0.00  0.00    +0.000 A 
ATOM     13  C   UNL     1      45.635   1.960   7.600  0.00  0.00    +0.000 A 
ATOM     14  C   UNL     1      45.013   1.565   8.788  0.00  0.00    +0.000 A 
ATOM     15  C   UNL     1      44.706   2.509   9.769  0.00  0.00    +0.000 A 
ATOM     16  C   UNL     1      45.022   3.856   9.562  0.00  0.00    +0.000 A 
ATOM     17  C   UNL     1      45.612   4.251   8.353  0.00  0.00    +0.000 A 
BRANCH  12  19
ATOM     18  C   UNL     1      47.189   2.878   5.400  0.00  0.00    +0.000 C 
ATOM     19  O   UNL     1      46.542   3.811   6.258  0.00  0.00    +0.000 OA
ENDBRANCH  12  19
ENDBRANCH   8  16
ENDBRANCH   7  10
ENDBRANCH   1   7
BRANCH   4  20
ATOM     20  C   UNL     1      49.340   8.799  14.565  0.00  0.00    +0.000 C 
BRANCH  20  21
ATOM     21  N   UNL     1      49.434   7.917  15.699  0.00  0.00    +0.000 N 
ATOM     22  C   UNL     1      48.775   8.181  16.872  0.00  0.00    +0.000 C 
ATOM     23  O   UNL     1      48.039   9.156  17.009  0.00  0.00    +0.000 OA
ATOM     24  H   UNL     1      50.226   7.283  15.713  0.00  0.00    +0.000 HD
BRANCH  22  25
ATOM     25  C   UNL     1      48.946   7.192  17.947  0.00  0.00    +0.000 A 
ATOM     26  C   UNL     1      49.367   7.594  19.206  0.00  0.00    +0.000 A 
ATOM     27  S   UNL     1      49.431   6.323  20.342  0.00  0.00    +0.000 S 
ATOM     28  C   UNL     1      48.960   5.180  19.175  0.00  0.00    +0.000 A 
ATOM     29  N   UNL     1      48.840   3.862  19.491  0.00  0.00    +0.000 NA
ATOM     30  C   UNL     1      48.502   3.105  18.499  0.00  0.00    +0.000 A 
ATOM     31  N   UNL     1      48.267   3.547  17.224  0.00  0.00    +0.000 N 
ATOM     32  C   UNL     1      48.351   4.871  16.865  0.00  0.00    +0.000 A 
ATOM     33  O   UNL     1      48.098   5.236  15.724  0.00  0.00    +0.000 OA
ATOM     34  C   UNL     1      48.738   5.762  17.940  0.00  0.00    +0.000 A 
ATOM     35  H   UNL     1      47.998   2.905  16.494  0.00  0.00    +0.000 HD
ENDBRANCH  22  25
ENDBRANCH  20  21
ENDBRANCH   4  20
TORSDOF 7
ENDMDL
MODEL 5
REMARK VINA RESULT:    -6.741      5.437      7.348
REMARK INTER + INTRA:         -10.707
REMARK INTER:                  -9.632
REMARK INTRA:                  -1.075
REMARK UNBOUND:                -1.207
REMARK  Name = 
REMARK  8 active torsions:
REMARK  status: ('A' for Active; 'I' for Inactive)
REMARK    1  A    between atoms: C_1  and  O_2
REMARK    2  A    between atoms: O_2  and  C_3
REMARK    3  A    between atoms: C_7  and  C_8
REMARK    4  A    between atoms: N_10  and  C_11
REMARK    5  A    between atoms: C_11  and  C_12
REMARK    6  A    between atoms: C_15  and  C_16
REMARK    7  A    between atoms: C_16  and  N_17
REMARK    8  A    between atoms: C_18  and  C_20
REMARK                            x       y       z     vdW  Elec       q    Type
REMARK                         _______ _______ _______ _____ _____    ______ ____
ROOT
ATOM      1  C   UNL     1      47.626   7.579  12.773  0.00  0.00    +0.000 A 
ATOM      2  C   UNL     1      47.546   8.886  12.270  0.00  0.00    +0.000 A 
ATOM      3  C   UNL     1      48.698   9.556  11.833  0.00  0.00    +0.000 A 
ATOM      4  C   UNL     1      49.948   8.925  11.872  0.00  0.00    +0.000 A 
ATOM      5  C   UNL     1      50.030   7.633  12.407  0.00  0.00    +0.000 A 
ATOM      6  C   UNL     1      48.882   6.963  12.842  0.00  0.00    +0.000 A 
ENDROOT
BRANCH   1   7
ATOM      7  C   UNL     1      46.385   6.833  13.193  0.00  0.00    +0.000 C 
BRANCH   7  10
ATOM      8  C   UNL     1      45.187   5.894  11.270  0.00  0.00    +0.000 C 
ATOM      9  O   UNL     1      44.539   6.920  11.099  0.00  0.00    +0.000 OA
ATOM     10  N   UNL     1      46.098   5.736  12.294  0.00  0.00    +0.000 N 
ATOM     11  H   UNL     1      46.753   4.967  12.266  0.00  0.00    +0.000 HD
BRANCH   8  16
ATOM     12  C   UNL     1      45.578   3.805   8.142  0.00  0.00    +0.000 A 
ATOM     13  C   UNL     1      44.903   2.637   8.499  0.00  0.00    +0.000 A 
ATOM     14  C   UNL     1      44.289   2.532   9.751  0.00  0.00    +0.000 A 
ATOM     15  C   UNL     1      44.363   3.587  10.662  0.00  0.00    +0.000 A 
ATOM     16  C   UNL     1      45.055   4.754  10.320  0.00  0.00    +0.000 A 
ATOM     17  C   UNL     1      45.637   4.868   9.050  0.00  0.00    +0.000 A 
BRANCH  12  19
ATOM     18  C   UNL     1      47.180   3.058   6.552  0.00  0.00    +0.000 C 
ATOM     19  O   UNL     1      46.217   4.026   6.952  0.00  0.00    +0.000 OA
ENDBRANCH  12  19
ENDBRANCH   8  16
ENDBRANCH   7  10
ENDBRANCH   1   7
BRANCH   4  20
ATOM     20  C   UNL     1      51.194   9.616  11.372  0.00  0.00    +0.000 C 
BRANCH  20  21
ATOM     21  N   UNL     1      51.573   9.145  10.066  0.00  0.00    +0.000 N 
ATOM     22  C   UNL     1      52.842   8.698   9.803  0.00  0.00    +0.000 C 
ATOM     23  O   UNL     1      53.711   8.633  10.670  0.00  0.00    +0.000 OA
ATOM     24  H   UNL     1      50.988   9.442   9.292  0.00  0.00    +0.000 HD
BRANCH  22  25
ATOM     25  C   UNL     1      53.093   8.233   8.431  0.00  0.00    +0.000 A 
ATOM     26  C   UNL     1      53.047   9.126   7.370  0.00  0.00    +0.000 A 
ATOM     27  S   UNL     1      53.440   8.421   5.866  0.00  0.00    +0.000 S 
ATOM     28  C   UNL     1      53.624   6.884   6.571  0.00  0.00    +0.000 A 
ATOM     29  N   UNL     1      53.944   5.800   5.815  0.00  0.00    +0.000 NA
ATOM     30  C   UNL     1      54.023   4.693   6.477  0.00  0.00    +0.000 A 
ATOM     31  N   UNL     1      53.817   4.574   7.827  0.00  0.00    +0.000 N 
ATOM     32  C   UNL     1      53.517   5.646   8.634  0.00  0.00    +0.000 A 
ATOM     33  O   UNL     1      53.376   5.510   9.842  0.00  0.00    +0.000 OA
ATOM     34  C   UNL     1      53.407   6.911   7.936  0.00  0.00    +0.000 A 
ATOM     35  H   UNL     1      53.902   3.681   8.288  0.00  0.00    +0.000 HD
ENDBRANCH  22  25
ENDBRANCH  20  21
ENDBRANCH   4  20
TORSDOF 7
ENDMDL
MODEL 6
REMARK VINA RESULT:    -6.461      2.946      4.405
REMARK INTER + INTRA:         -10.312
REMARK INTER:                  -9.205
REMARK INTRA:                  -1.107
REMARK UNBOUND:                -1.207
REMARK  Name = 
REMARK  8 active torsions:
REMARK  status: ('A' for Active; 'I' for Inactive)
REMARK    1  A    between atoms: C_1  and  O_2
REMARK    2  A    between atoms: O_2  and  C_3
REMARK    3  A    between atoms: C_7  and  C_8
REMARK    4  A    between atoms: N_10  and  C_11
REMARK    5  A    between atoms: C_11  and  C_12
REMARK    6  A    between atoms: C_15  and  C_16
REMARK    7  A    between atoms: C_16  and  N_17
REMARK    8  A    between atoms: C_18  and  C_20
REMARK                            x       y       z     vdW  Elec       q    Type
REMARK                         _______ _______ _______ _____ _____    ______ ____
ROOT
ATOM      1  C   UNL     1      48.699   7.657  13.025  0.00  0.00    +0.000 A 
ATOM      2  C   UNL     1      49.985   8.216  12.984  0.00  0.00    +0.000 A 
ATOM      3  C   UNL     1      50.771   8.285  14.143  0.00  0.00    +0.000 A 
ATOM      4  C   UNL     1      50.296   7.779  15.360  0.00  0.00    +0.000 A 
ATOM      5  C   UNL     1      48.997   7.254  15.404  0.00  0.00    +0.000 A 
ATOM      6  C   UNL     1      48.212   7.183  14.249  0.00  0.00    +0.000 A 
ENDROOT
BRANCH   1   7
ATOM      7  C   UNL     1      47.869   7.530  11.772  0.00  0.00    +0.000 C 
BRANCH   7  10
ATOM      8  C   UNL     1      45.669   6.461  11.603  0.00  0.00    +0.000 C 
ATOM      9  O   UNL     1      45.097   7.531  11.437  0.00  0.00    +0.000 OA
ATOM     10  N   UNL     1      47.029   6.353  11.812  0.00  0.00    +0.000 N 
ATOM     11  H   UNL     1      47.477   5.451  11.729  0.00  0.00    +0.000 HD
BRANCH   8  16
ATOM     12  C   UNL     1      44.223   3.251  10.223  0.00  0.00    +0.000 A 
ATOM     13  C   UNL     1      43.551   2.744  11.336  0.00  0.00    +0.000 A 
ATOM     14  C   UNL     1      43.538   3.460  12.537  0.00  0.00    +0.000 A 
ATOM     15  C   UNL     1      44.215   4.676  12.639  0.00  0.00    +0.000 A 
ATOM     16  C   UNL     1      44.908   5.181  11.534  0.00  0.00    +0.000 A 
ATOM     17  C   UNL     1      44.886   4.478  10.322  0.00  0.00    +0.000 A 
BRANCH  12  19
ATOM     18  C   UNL     1      45.083   3.309   8.006  0.00  0.00    +0.000 C 
ATOM     19  O   UNL     1      44.308   2.645   8.998  0.00  0.00    +0.000 OA
ENDBRANCH  12  19
ENDBRANCH   8  16
ENDBRANCH   7  10
ENDBRANCH   1   7
BRANCH   4  20
ATOM     20  C   UNL     1      51.141   7.811  16.610  0.00  0.00    +0.000 C 
BRANCH  20  21
ATOM     21  N   UNL     1      51.736   6.528  16.880  0.00  0.00    +0.000 N 
ATOM     22  C   UNL     1      52.049   6.135  18.155  0.00  0.00    +0.000 C 
ATOM     23  O   UNL     1      51.803   6.830  19.138  0.00  0.00    +0.000 OA
ATOM     24  H   UNL     1      52.195   6.070  16.099  0.00  0.00    +0.000 HD
BRANCH  22  25
ATOM     25  C   UNL     1      52.640   4.795  18.293  0.00  0.00    +0.000 A 
ATOM     26  C   UNL     1      53.923   4.646  18.799  0.00  0.00    +0.000 A 
ATOM     27  S   UNL     1      54.409   3.017  18.959  0.00  0.00    +0.000 S 
ATOM     28  C   UNL     1      52.946   2.457  18.296  0.00  0.00    +0.000 A 
ATOM     29  N   UNL     1      52.716   1.127  18.127  0.00  0.00    +0.000 NA
ATOM     30  C   UNL     1      51.575   0.848  17.588  0.00  0.00    +0.000 A 
ATOM     31  N   UNL     1      50.643   1.777  17.208  0.00  0.00    +0.000 N 
ATOM     32  C   UNL     1      50.822   3.129  17.383  0.00  0.00    +0.000 A 
ATOM     33  O   UNL     1      49.951   3.930  17.066  0.00  0.00    +0.000 OA
ATOM     34  C   UNL     1      52.091   3.496  17.976  0.00  0.00    +0.000 A 
ATOM     35  H   UNL     1      49.766   1.494  16.798  0.00  0.00    +0.000 HD
ENDBRANCH  22  25
ENDBRANCH  20  21
ENDBRANCH   4  20
TORSDOF 7
ENDMDL
MODEL 7
REMARK VINA RESULT:    -6.445      3.981      8.805
REMARK INTER + INTRA:         -10.289
REMARK INTER:                  -9.319
REMARK INTRA:                  -0.971
REMARK UNBOUND:                -1.207
REMARK  Name = 
REMARK  8 active torsions:
REMARK  status: ('A' for Active; 'I' for Inactive)
REMARK    1  A    between atoms: C_1  and  O_2
REMARK    2  A    between atoms: O_2  and  C_3
REMARK    3  A    between atoms: C_7  and  C_8
REMARK    4  A    between atoms: N_10  and  C_11
REMARK    5  A    between atoms: C_11  and  C_12
REMARK    6  A    between atoms: C_15  and  C_16
REMARK    7  A    between atoms: C_16  and  N_17
REMARK    8  A    between atoms: C_18  and  C_20
REMARK                            x       y       z     vdW  Elec       q    Type
REMARK                         _______ _______ _______ _____ _____    ______ ____
ROOT
ATOM      1  C   UNL     1      49.853   7.515  15.846  0.00  0.00    +0.000 A 
ATOM      2  C   UNL     1      48.894   6.639  15.317  0.00  0.00    +0.000 A 
ATOM      3  C   UNL     1      48.335   6.870  14.052  0.00  0.00    +0.000 A 
ATOM      4  C   UNL     1      48.740   7.968  13.283  0.00  0.00    +0.000 A 
ATOM      5  C   UNL     1      49.673   8.860  13.828  0.00  0.00    +0.000 A 
ATOM      6  C   UNL     1      50.232   8.631  15.090  0.00  0.00    +0.000 A 
ENDROOT
BRANCH   1   7
ATOM      7  C   UNL     1      50.497   7.243  17.182  0.00  0.00    +0.000 C 
BRANCH   7  10
ATOM      8  C   UNL     1      50.556   4.898  17.899  0.00  0.00    +0.000 C 
ATOM      9  O   UNL     1      49.534   5.016  18.564  0.00  0.00    +0.000 OA
ATOM     10  N   UNL     1      51.133   5.944  17.207  0.00  0.00    +0.000 N 
ATOM     11  H   UNL     1      51.840   5.752  16.511  0.00  0.00    +0.000 HD
BRANCH   8  16
ATOM     12  C   UNL     1      53.246   2.241  17.919  0.00  0.00    +0.000 A 
ATOM     13  C   UNL     1      52.518   1.102  17.572  0.00  0.00    +0.000 A 
ATOM     14  C   UNL     1      51.149   1.196  17.300  0.00  0.00    +0.000 A 
ATOM     15  C   UNL     1      50.496   2.426  17.392  0.00  0.00    +0.000 A 
ATOM     16  C   UNL     1      51.215   3.570  17.759  0.00  0.00    +0.000 A 
ATOM     17  C   UNL     1      52.593   3.475  17.995  0.00  0.00    +0.000 A 
BRANCH  12  19
ATOM     18  C   UNL     1      54.981   1.741  19.467  0.00  0.00    +0.000 C 
ATOM     19  O   UNL     1      54.584   2.275  18.209  0.00  0.00    +0.000 OA
ENDBRANCH  12  19
ENDBRANCH   8  16
ENDBRANCH   7  10
ENDBRANCH   1   7
BRANCH   4  20
ATOM     20  C   UNL     1      48.178   8.213  11.902  0.00  0.00    +0.000 C 
BRANCH  20  21
ATOM     21  N   UNL     1      47.487   7.056  11.398  0.00  0.00    +0.000 N 
ATOM     22  C   UNL     1      46.121   7.025  11.287  0.00  0.00    +0.000 C 
ATOM     23  O   UNL     1      45.416   7.991  11.569  0.00  0.00    +0.000 OA
ATOM     24  H   UNL     1      47.997   6.178  11.425  0.00  0.00    +0.000 HD
BRANCH  22  25
ATOM     25  C   UNL     1      45.543   5.787  10.745  0.00  0.00    +0.000 A 
ATOM     26  C   UNL     1      45.718   5.461   9.407  0.00  0.00    +0.000 A 
ATOM     27  S   UNL     1      45.046   3.953   8.978  0.00  0.00    +0.000 S 
ATOM     28  C   UNL     1      44.441   3.712  10.549  0.00  0.00    +0.000 A 
ATOM     29  N   UNL     1      43.728   2.597  10.863  0.00  0.00    +0.000 NA
ATOM     30  C   UNL     1      43.308   2.559  12.086  0.00  0.00    +0.000 A 
ATOM     31  N   UNL     1      43.542   3.532  13.021  0.00  0.00    +0.000 N 
ATOM     32  C   UNL     1      44.278   4.662  12.756  0.00  0.00    +0.000 A 
ATOM     33  O   UNL     1      44.499   5.494  13.627  0.00  0.00    +0.000 OA
ATOM     34  C   UNL     1      44.764   4.757  11.395  0.00  0.00    +0.000 A 
ATOM     35  H   UNL     1      43.192   3.440  13.963  0.00  0.00    +0.000 HD
ENDBRANCH  22  25
ENDBRANCH  20  21
ENDBRANCH   4  20
TORSDOF 7
ENDMDL
MODEL 8
REMARK VINA RESULT:    -6.199      3.354      9.054
REMARK INTER + INTRA:          -9.943
REMARK INTER:                  -8.846
REMARK INTRA:                  -1.098
REMARK UNBOUND:                -1.207
REMARK  Name = 
REMARK  8 active torsions:
REMARK  status: ('A' for Active; 'I' for Inactive)
REMARK    1  A    between atoms: C_1  and  O_2
REMARK    2  A    between atoms: O_2  and  C_3
REMARK    3  A    between atoms: C_7  and  C_8
REMARK    4  A    between atoms: N_10  and  C_11
REMARK    5  A    between atoms: C_11  and  C_12
REMARK    6  A    between atoms: C_15  and  C_16
REMARK    7  A    between atoms: C_16  and  N_17
REMARK    8  A    between atoms: C_18  and  C_20
REMARK                            x       y       z     vdW  Elec       q    Type
REMARK                         _______ _______ _______ _____ _____    ______ ____
ROOT
ATOM      1  C   UNL     1      49.597   7.958  15.085  0.00  0.00    +0.000 A 
ATOM      2  C   UNL     1      48.763   6.851  14.866  0.00  0.00    +0.000 A 
ATOM      3  C   UNL     1      47.830   6.855  13.819  0.00  0.00    +0.000 A 
ATOM      4  C   UNL     1      47.728   7.955  12.958  0.00  0.00    +0.000 A 
ATOM      5  C   UNL     1      48.539   9.072  13.201  0.00  0.00    +0.000 A 
ATOM      6  C   UNL     1      49.470   9.070  14.245  0.00  0.00    +0.000 A 
ENDROOT
BRANCH   1   7
ATOM      7  C   UNL     1      50.638   7.938  16.176  0.00  0.00    +0.000 C 
BRANCH   7  10
ATOM      8  C   UNL     1      51.935   6.324  17.490  0.00  0.00    +0.000 C 
ATOM      9  O   UNL     1      52.265   7.171  18.311  0.00  0.00    +0.000 OA
ATOM     10  N   UNL     1      51.163   6.606  16.381  0.00  0.00    +0.000 N 
ATOM     11  H   UNL     1      50.744   5.848  15.859  0.00  0.00    +0.000 HD
BRANCH   8  16
ATOM     12  C   UNL     1      51.664   2.556  17.644  0.00  0.00    +0.000 A 
ATOM     13  C   UNL     1      52.971   2.193  17.971  0.00  0.00    +0.000 A 
ATOM     14  C   UNL     1      53.945   3.176  18.173  0.00  0.00    +0.000 A 
ATOM     15  C   UNL     1      53.623   4.527  18.031  0.00  0.00    +0.000 A 
ATOM     16  C   UNL     1      52.319   4.898  17.683  0.00  0.00    +0.000 A 
ATOM     17  C   UNL     1      51.339   3.910  17.517  0.00  0.00    +0.000 A 
BRANCH  12  19
ATOM     18  C   UNL     1      49.494   2.208  16.734  0.00  0.00    +0.000 C 
ATOM     19  O   UNL     1      50.628   1.689  17.420  0.00  0.00    +0.000 OA
ENDBRANCH  12  19
ENDBRANCH   8  16
ENDBRANCH   7  10
ENDBRANCH   1   7
BRANCH   4  20
ATOM     20  C   UNL     1      46.757   7.963  11.802  0.00  0.00    +0.000 C 
BRANCH  20  21
ATOM     21  N   UNL     1      46.244   6.646  11.531  0.00  0.00    +0.000 N 
ATOM     22  C   UNL     1      44.898   6.404  11.439  0.00  0.00    +0.000 C 
ATOM     23  O   UNL     1      44.059   7.297  11.539  0.00  0.00    +0.000 OA
ATOM     24  H   UNL     1      46.870   5.870  11.721  0.00  0.00    +0.000 HD
BRANCH  22  25
ATOM     25  C   UNL     1      44.508   5.016  11.146  0.00  0.00    +0.000 A 
ATOM     26  C   UNL     1      43.698   4.317  12.028  0.00  0.00    +0.000 A 
ATOM     27  S   UNL     1      43.287   2.752  11.483  0.00  0.00    +0.000 S 
ATOM     28  C   UNL     1      44.231   2.932  10.080  0.00  0.00    +0.000 A 
ATOM     29  N   UNL     1      44.336   1.925   9.171  0.00  0.00    +0.000 NA
ATOM     30  C   UNL     1      45.108   2.190   8.168  0.00  0.00    +0.000 A 
ATOM     31  N   UNL     1      45.778   3.372   7.990  0.00  0.00    +0.000 N 
ATOM     32  C   UNL     1      45.682   4.425   8.869  0.00  0.00    +0.000 A 
ATOM     33  O   UNL     1      46.266   5.480   8.660  0.00  0.00    +0.000 OA
ATOM     34  C   UNL     1      44.835   4.174  10.018  0.00  0.00    +0.000 A 
ATOM     35  H   UNL     1      46.361   3.521   7.181  0.00  0.00    +0.000 HD
ENDBRANCH  22  25
ENDBRANCH  20  21
ENDBRANCH   4  20
TORSDOF 7
ENDMDL
MODEL 9
REMARK VINA RESULT:    -5.999      2.632      4.248
REMARK INTER + INTRA:          -9.661
REMARK INTER:                  -8.787
REMARK INTRA:                  -0.874
REMARK UNBOUND:                -1.207
REMARK  Name = 
REMARK  8 active torsions:
REMARK  status: ('A' for Active; 'I' for Inactive)
REMARK    1  A    between atoms: C_1  and  O_2
REMARK    2  A    between atoms: O_2  and  C_3
REMARK    3  A    between atoms: C_7  and  C_8
REMARK    4  A    between atoms: N_10  and  C_11
REMARK    5  A    between atoms: C_11  and  C_12
REMARK    6  A    between atoms: C_15  and  C_16
REMARK    7  A    between atoms: C_16  and  N_17
REMARK    8  A    between atoms: C_18  and  C_20
REMARK                            x       y       z     vdW  Elec       q    Type
REMARK                         _______ _______ _______ _____ _____    ______ ____
ROOT
ATOM      1  C   UNL     1      47.805   8.009  13.734  0.00  0.00    +0.000 A 
ATOM      2  C   UNL     1      47.827   6.880  14.567  0.00  0.00    +0.000 A 
ATOM      3  C   UNL     1      48.993   6.522  15.257  0.00  0.00    +0.000 A 
ATOM      4  C   UNL     1      50.155   7.297  15.145  0.00  0.00    +0.000 A 
ATOM      5  C   UNL     1      50.140   8.405  14.286  0.00  0.00    +0.000 A 
ATOM      6  C   UNL     1      48.977   8.763  13.598  0.00  0.00    +0.000 A 
ENDROOT
BRANCH   1   7
ATOM      7  C   UNL     1      46.539   8.429  13.032  0.00  0.00    +0.000 C 
BRANCH   7  10
ATOM      8  C   UNL     1      45.939   6.420  11.759  0.00  0.00    +0.000 C 
ATOM      9  O   UNL     1      46.867   6.571  10.974  0.00  0.00    +0.000 OA
ATOM     10  N   UNL     1      45.670   7.299  12.789  0.00  0.00    +0.000 N 
ATOM     11  H   UNL     1      45.037   7.022  13.528  0.00  0.00    +0.000 HD
BRANCH   8  16
ATOM     12  C   UNL     1      44.215   3.373  10.331  0.00  0.00    +0.000 A 
ATOM     13  C   UNL     1      43.489   2.919  11.433  0.00  0.00    +0.000 A 
ATOM     14  C   UNL     1      43.532   3.620  12.642  0.00  0.00    +0.000 A 
ATOM     15  C   UNL     1      44.317   4.768  12.764  0.00  0.00    +0.000 A 
ATOM     16  C   UNL     1      45.064   5.218  11.669  0.00  0.00    +0.000 A 
ATOM     17  C   UNL     1      44.988   4.532  10.449  0.00  0.00    +0.000 A 
BRANCH  12  19
ATOM     18  C   UNL     1      44.913   3.489   8.061  0.00  0.00    +0.000 C 
ATOM     19  O   UNL     1      44.254   2.775   9.100  0.00  0.00    +0.000 OA
ENDBRANCH  12  19
ENDBRANCH   8  16
ENDBRANCH   7  10
ENDBRANCH   1   7
BRANCH   4  20
ATOM     20  C   UNL     1      51.410   6.951  15.910  0.00  0.00    +0.000 C 
BRANCH  20  21
ATOM     21  N   UNL     1      51.130   6.686  17.297  0.00  0.00    +0.000 N 
ATOM     22  C   UNL     1      50.978   5.408  17.768  0.00  0.00    +0.000 C 
ATOM     23  O   UNL     1      51.113   4.420  17.049  0.00  0.00    +0.000 OA
ATOM     24  H   UNL     1      50.745   7.456  17.835  0.00  0.00    +0.000 HD
BRANCH  22  25
ATOM     25  C   UNL     1      50.708   5.276  19.208  0.00  0.00    +0.000 A 
ATOM     26  C   UNL     1      51.742   5.002  20.091  0.00  0.00    +0.000 A 
ATOM     27  S   UNL     1      51.253   4.963  21.725  0.00  0.00    +0.000 S 
ATOM     28  C   UNL     1      49.630   5.249  21.304  0.00  0.00    +0.000 A 
ATOM     29  N   UNL     1      48.659   5.314  22.256  0.00  0.00    +0.000 NA
ATOM     30  C   UNL     1      47.469   5.508  21.790  0.00  0.00    +0.000 A 
ATOM     31  N   UNL     1      47.164   5.650  20.462  0.00  0.00    +0.000 N 
ATOM     32  C   UNL     1      48.114   5.617  19.469  0.00  0.00    +0.000 A 
ATOM     33  O   UNL     1      47.811   5.784  18.295  0.00  0.00    +0.000 OA
ATOM     34  C   UNL     1      49.466   5.391  19.939  0.00  0.00    +0.000 A 
ATOM     35  H   UNL     1      46.214   5.808  20.163  0.00  0.00    +0.000 HD
ENDBRANCH  22  25
ENDBRANCH  20  21
ENDBRANCH   4  20
TORSDOF 7
ENDMDL
