MODEL 1
REMARK VINA RESULT:    -8.026      0.000      0.000
REMARK INTER + INTRA:         -11.855
REMARK INTER:                 -11.075
REMARK INTRA:                  -0.779
REMARK UNBOUND:                -0.779
REMARK  Name = 
REMARK  8 active torsions:
REMARK  status: ('A' for Active; 'I' for Inactive)
REMARK    1  A    between atoms: C_1  and  C_2
REMARK    2  A    between atoms: C_4  and  C_5
REMARK    3  A    between atoms: C_5  and  N_6
REMARK    4  A    between atoms: C_8  and  C_9
REMARK    5  A    between atoms: C_9  and  C_10
REMARK    6  A    between atoms: C_10  and  N_11
REMARK    7  A    between atoms: N_11  and  C_12
REMARK    8  A    between atoms: C_15  and  C_16
REMARK                            x       y       z     vdW  Elec       q    Type
REMARK                         _______ _______ _______ _____ _____    ______ ____
ROOT
ATOM      1  C   UNL     1      43.449   4.384  11.226  0.00  0.00    +0.000 C 
ENDROOT
BRANCH   1   2
ATOM      2  N   UNL     1      43.590   4.619   9.779  0.00  0.00    +0.000 N 
ATOM      3  H   UNL     1      43.629   5.611   9.549  0.00  0.00    +0.000 HD
BRANCH   2   4
ATOM      4  C   UNL     1      44.619   3.910   9.126  0.00  0.00    +0.000 A 
ATOM      5  C   UNL     1      44.718   2.513   9.178  0.00  0.00    +0.000 A 
ATOM      6  C   UNL     1      45.724   1.826   8.493  0.00  0.00    +0.000 A 
ATOM      7  C   UNL     1      46.632   2.516   7.692  0.00  0.00    +0.000 A 
ATOM      8  C   UNL     1      46.522   3.907   7.581  0.00  0.00    +0.000 A 
ATOM      9  C   UNL     1      45.510   4.586   8.282  0.00  0.00    +0.000 A 
BRANCH   7  10
ATOM     10  C   UNL     1      47.680   1.721   7.000  0.00  0.00    +0.000 C 
ATOM     11  N   UNL     1      48.522   2.375   6.149  0.00  0.00    +0.000 N 
ATOM     12  O   UNL     1      47.766   0.506   7.155  0.00  0.00    +0.000 OA
ATOM     13  H   UNL     1      48.370   3.325   5.842  0.00  0.00    +0.000 HD
ATOM     14  H   UNL     1      49.145   1.791   5.606  0.00  0.00    +0.000 HD
ENDBRANCH   7  10
ENDBRANCH   2   4
ENDBRANCH   1   2
BRANCH   1  15
ATOM     15  C   UNL     1      43.695   5.664  12.032  0.00  0.00    +0.000 C 
BRANCH  15  21
ATOM     16  C   UNL     1      48.342   7.565  11.519  0.00  0.00    +0.000 C 
ATOM     17  C   UNL     1      47.375   6.693  12.269  0.00  0.00    +0.000 A 
ATOM     18  C   UNL     1      47.786   5.977  13.402  0.00  0.00    +0.000 A 
ATOM     19  C   UNL     1      46.885   5.156  14.097  0.00  0.00    +0.000 A 
ATOM     20  C   UNL     1      45.559   5.060  13.640  0.00  0.00    +0.000 A 
ATOM     21  C   UNL     1      45.129   5.766  12.506  0.00  0.00    +0.000 A 
ATOM     22  C   UNL     1      46.046   6.586  11.833  0.00  0.00    +0.000 A 
BRANCH  19  23
ATOM     23  C   UNL     1      47.343   4.354  15.290  0.00  0.00    +0.000 C 
BRANCH  23  24
ATOM     24  N   UNL     1      47.685   2.983  14.929  0.00  0.00    +0.000 NA
ATOM     25  H   UNL     1      47.030   2.660  14.217  0.00  0.00    +0.000 HD
ATOM     26  H   UNL     1      47.548   2.382  15.738  0.00  0.00    +0.000 HD
ENDBRANCH  23  24
ENDBRANCH  19  23
ENDBRANCH  15  21
ENDBRANCH   1  15
TORSDOF 7
ENDMDL
MODEL 2
REMARK VINA RESULT:    -7.441      1.908      3.090
REMARK INTER + INTRA:         -11.048
REMARK INTER:                 -10.348
REMARK INTRA:                  -0.700
REMARK UNBOUND:                -0.779
REMARK  Name = 
REMARK  8 active torsions:
REMARK  status: ('A' for Active; 'I' for Inactive)
REMARK    1  A    between atoms: C_1  and  C_2
REMARK    2  A    between atoms: C_4  and  C_5
REMARK    3  A    between atoms: C_5  and  N_6
REMARK    4  A    between atoms: C_8  and  C_9
REMARK    5  A    between atoms: C_9  and  C_10
REMARK    6  A    between atoms: C_10  and  N_11
REMARK    7  A    between atoms: N_11  and  C_12
REMARK    8  A    between atoms: C_15  and  C_16
REMARK                            x       y       z     vdW  Elec       q    Type
REMARK                         _______ _______ _______ _____ _____    ______ ____
ROOT
ATOM      1  C   UNL     1      43.549   5.082  10.923  0.00  0.00    +0.000 C 
ENDROOT
BRANCH   1   2
ATOM      2  N   UNL     1      43.620   3.671  10.505  0.00  0.00    +0.000 N 
ATOM      3  H   UNL     1      42.703   3.287  10.279  0.00  0.00    +0.000 HD
BRANCH   2   4
ATOM      4  C   UNL     1      44.558   3.361   9.499  0.00  0.00    +0.000 A 
ATOM      5  C   UNL     1      45.245   4.350   8.783  0.00  0.00    +0.000 A 
ATOM      6  C   UNL     1      46.199   4.021   7.816  0.00  0.00    +0.000 A 
ATOM      7  C   UNL     1      46.530   2.690   7.573  0.00  0.00    +0.000 A 
ATOM      8  C   UNL     1      45.896   1.685   8.312  0.00  0.00    +0.000 A 
ATOM      9  C   UNL     1      44.932   2.029   9.277  0.00  0.00    +0.000 A 
BRANCH   7  10
ATOM     10  C   UNL     1      47.546   2.415   6.524  0.00  0.00    +0.000 C 
ATOM     11  N   UNL     1      47.416   3.052   5.324  0.00  0.00    +0.000 N 
ATOM     12  O   UNL     1      48.456   1.612   6.710  0.00  0.00    +0.000 OA
ATOM     13  H   UNL     1      46.588   3.565   5.057  0.00  0.00    +0.000 HD
ATOM     14  H   UNL     1      48.051   2.758   4.595  0.00  0.00    +0.000 HD
ENDBRANCH   7  10
ENDBRANCH   2   4
ENDBRANCH   1   2
BRANCH   1  15
ATOM     15  C   UNL     1      44.216   5.302  12.284  0.00  0.00    +0.000 C 
BRANCH  15  21
ATOM     16  C   UNL     1      48.994   6.916  12.481  0.00  0.00    +0.000 C 
ATOM     17  C   UNL     1      47.530   7.219  12.326  0.00  0.00    +0.000 A 
ATOM     18  C   UNL     1      47.086   8.535  12.142  0.00  0.00    +0.000 A 
ATOM     19  C   UNL     1      45.719   8.818  12.005  0.00  0.00    +0.000 A 
ATOM     20  C   UNL     1      44.796   7.759  12.057  0.00  0.00    +0.000 A 
ATOM     21  C   UNL     1      45.219   6.435  12.244  0.00  0.00    +0.000 A 
ATOM     22  C   UNL     1      46.592   6.176  12.370  0.00  0.00    +0.000 A 
BRANCH  19  23
ATOM     23  C   UNL     1      45.242  10.241  11.851  0.00  0.00    +0.000 C 
BRANCH  23  24
ATOM     24  N   UNL     1      43.834  10.387  12.203  0.00  0.00    +0.000 NA
ATOM     25  H   UNL     1      43.393   9.468  12.173  0.00  0.00    +0.000 HD
ATOM     26  H   UNL     1      43.370  10.950  11.493  0.00  0.00    +0.000 HD
ENDBRANCH  23  24
ENDBRANCH  19  23
ENDBRANCH  15  21
ENDBRANCH   1  15
TORSDOF 7
ENDMDL
MODEL 3
REMARK VINA RESULT:    -7.386      1.611      2.148
REMARK INTER + INTRA:         -10.972
REMARK INTER:                 -10.306
REMARK INTRA:                  -0.666
REMARK UNBOUND:                -0.779
REMARK  Name = 
REMARK  8 active torsions:
REMARK  status: ('A' for Active; 'I' for Inactive)
REMARK    1  A    between atoms: C_1  and  C_2
REMARK    2  A    between atoms: C_4  and  C_5
REMARK    3  A    between atoms: C_5  and  N_6
REMARK    4  A    between atoms: C_8  and  C_9
REMARK    5  A    between atoms: C_9  and  C_10
REMARK    6  A    between atoms: C_10  and  N_11
REMARK    7  A    between atoms: N_11  and  C_12
REMARK    8  A    between atoms: C_15  and  C_16
REMARK                            x       y       z     vdW  Elec       q    Type
REMARK                         _______ _______ _______ _____ _____    ______ ____
ROOT
ATOM      1  C   UNL     1      43.756   5.133  10.884  0.00  0.00    +0.000 C 
ENDROOT
BRANCH   1   2
ATOM      2  N   UNL     1      43.643   3.783  10.305  0.00  0.00    +0.000 N 
ATOM      3  H   UNL     1      42.719   3.605   9.916  0.00  0.00    +0.000 HD
BRANCH   2   4
ATOM      4  C   UNL     1      44.654   3.402   9.400  0.00  0.00    +0.000 A 
ATOM      5  C   UNL     1      45.026   2.065   9.209  0.00  0.00    +0.000 A 
ATOM      6  C   UNL     1      46.005   1.705   8.279  0.00  0.00    +0.000 A 
ATOM      7  C   UNL     1      46.606   2.671   7.475  0.00  0.00    +0.000 A 
ATOM      8  C   UNL     1      46.214   4.008   7.609  0.00  0.00    +0.000 A 
ATOM      9  C   UNL     1      45.233   4.357   8.554  0.00  0.00    +0.000 A 
BRANCH   7  10
ATOM     10  C   UNL     1      47.645   2.215   6.514  0.00  0.00    +0.000 C 
ATOM     11  N   UNL     1      47.913   3.009   5.438  0.00  0.00    +0.000 N 
ATOM     12  O   UNL     1      48.220   1.141   6.658  0.00  0.00    +0.000 OA
ATOM     13  H   UNL     1      47.338   3.796   5.174  0.00  0.00    +0.000 HD
ATOM     14  H   UNL     1      48.536   2.619   4.744  0.00  0.00    +0.000 HD
ENDBRANCH   7  10
ENDBRANCH   2   4
ENDBRANCH   1   2
BRANCH   1  15
ATOM     15  C   UNL     1      44.664   5.144  12.119  0.00  0.00    +0.000 C 
BRANCH  15  21
ATOM     16  C   UNL     1      45.258  10.153  11.971  0.00  0.00    +0.000 C 
ATOM     17  C   UNL     1      45.859   8.781  12.085  0.00  0.00    +0.000 A 
ATOM     18  C   UNL     1      47.244   8.614  12.216  0.00  0.00    +0.000 A 
ATOM     19  C   UNL     1      47.806   7.332  12.313  0.00  0.00    +0.000 A 
ATOM     20  C   UNL     1      46.956   6.212  12.277  0.00  0.00    +0.000 A 
ATOM     21  C   UNL     1      45.568   6.358  12.143  0.00  0.00    +0.000 A 
ATOM     22  C   UNL     1      45.030   7.650  12.055  0.00  0.00    +0.000 A 
BRANCH  19  23
ATOM     23  C   UNL     1      49.301   7.155  12.411  0.00  0.00    +0.000 C 
BRANCH  23  24
ATOM     24  N   UNL     1      49.744   6.997  13.791  0.00  0.00    +0.000 NA
ATOM     25  H   UNL     1      50.710   7.316  13.863  0.00  0.00    +0.000 HD
ATOM     26  H   UNL     1      49.752   6.006  14.026  0.00  0.00    +0.000 HD
ENDBRANCH  23  24
ENDBRANCH  19  23
ENDBRANCH  15  21
ENDBRANCH   1  15
TORSDOF 7
ENDMDL
MODEL 4
REMARK VINA RESULT:    -7.227      1.650      2.746
REMARK INTER + INTRA:         -10.753
REMARK INTER:                  -9.936
REMARK INTRA:                  -0.817
REMARK UNBOUND:                -0.779
REMARK  Name = 
REMARK  8 active torsions:
REMARK  status: ('A' for Active; 'I' for Inactive)
REMARK    1  A    between atoms: C_1  and  C_2
REMARK    2  A    between atoms: C_4  and  C_5
REMARK    3  A    between atoms: C_5  and  N_6
REMARK    4  A    between atoms: C_8  and  C_9
REMARK    5  A    between atoms: C_9  and  C_10
REMARK    6  A    between atoms: C_10  and  N_11
REMARK    7  A    between atoms: N_11  and  C_12
REMARK    8  A    between atoms: C_15  and  C_16
REMARK                            x       y       z     vdW  Elec       q    Type
REMARK                         _______ _______ _______ _____ _____    ______ ____
ROOT
ATOM      1  C   UNL     1      43.284   4.940  10.823  0.00  0.00    +0.000 C 
ENDROOT
BRANCH   1   2
ATOM      2  N   UNL     1      43.751   3.555  10.643  0.00  0.00    +0.000 N 
ATOM      3  H   UNL     1      42.985   2.883  10.654  0.00  0.00    +0.000 HD
BRANCH   2   4
ATOM      4  C   UNL     1      44.612   3.319   9.552  0.00  0.00    +0.000 A 
ATOM      5  C   UNL     1      45.162   4.360   8.792  0.00  0.00    +0.000 A 
ATOM      6  C   UNL     1      46.043   4.106   7.736  0.00  0.00    +0.000 A 
ATOM      7  C   UNL     1      46.439   2.803   7.443  0.00  0.00    +0.000 A 
ATOM      8  C   UNL     1      45.944   1.750   8.221  0.00  0.00    +0.000 A 
ATOM      9  C   UNL     1      45.052   2.018   9.275  0.00  0.00    +0.000 A 
BRANCH   7  10
ATOM     10  C   UNL     1      47.371   2.609   6.302  0.00  0.00    +0.000 C 
ATOM     11  N   UNL     1      48.595   2.064   6.561  0.00  0.00    +0.000 N 
ATOM     12  O   UNL     1      47.071   2.961   5.165  0.00  0.00    +0.000 OA
ATOM     13  H   UNL     1      48.958   1.940   7.494  0.00  0.00    +0.000 HD
ATOM     14  H   UNL     1      49.247   2.053   5.788  0.00  0.00    +0.000 HD
ENDBRANCH   7  10
ENDBRANCH   2   4
ENDBRANCH   1   2
BRANCH   1  15
ATOM     15  C   UNL     1      43.426   5.400  12.278  0.00  0.00    +0.000 C 
BRANCH  15  21
ATOM     16  C   UNL     1      47.343   3.977  15.123  0.00  0.00    +0.000 C 
ATOM     17  C   UNL     1      46.778   4.860  14.047  0.00  0.00    +0.000 A 
ATOM     18  C   UNL     1      47.578   5.820  13.414  0.00  0.00    +0.000 A 
ATOM     19  C   UNL     1      47.047   6.651  12.415  0.00  0.00    +0.000 A 
ATOM     20  C   UNL     1      45.695   6.506  12.058  0.00  0.00    +0.000 A 
ATOM     21  C   UNL     1      44.876   5.554  12.682  0.00  0.00    +0.000 A 
ATOM     22  C   UNL     1      45.432   4.730  13.672  0.00  0.00    +0.000 A 
BRANCH  19  23
ATOM     23  C   UNL     1      47.901   7.712  11.767  0.00  0.00    +0.000 C 
BRANCH  23  24
ATOM     24  N   UNL     1      47.405   9.056  12.041  0.00  0.00    +0.000 NA
ATOM     25  H   UNL     1      47.356   9.572  11.163  0.00  0.00    +0.000 HD
ATOM     26  H   UNL     1      48.080   9.547  12.624  0.00  0.00    +0.000 HD
ENDBRANCH  23  24
ENDBRANCH  19  23
ENDBRANCH  15  21
ENDBRANCH   1  15
TORSDOF 7
ENDMDL
MODEL 5
REMARK VINA RESULT:    -6.148      3.173      5.480
REMARK INTER + INTRA:          -9.264
REMARK INTER:                  -8.582
REMARK INTRA:                  -0.682
REMARK UNBOUND:                -0.779
REMARK  Name = 
REMARK  8 active torsions:
REMARK  status: ('A' for Active; 'I' for Inactive)
REMARK    1  A    between atoms: C_1  and  C_2
REMARK    2  A    between atoms: C_4  and  C_5
REMARK    3  A    between atoms: C_5  and  N_6
REMARK    4  A    between atoms: C_8  and  C_9
REMARK    5  A    between atoms: C_9  and  C_10
REMARK    6  A    between atoms: C_10  and  N_11
REMARK    7  A    between atoms: N_11  and  C_12
REMARK    8  A    between atoms: C_15  and  C_16
REMARK                            x       y       z     vdW  Elec       q    Type
REMARK                         _______ _______ _______ _____ _____    ______ ____
ROOT
ATOM      1  C   UNL     1      48.472   6.956  14.090  0.00  0.00    +0.000 C 
ENDROOT
BRANCH   1   2
ATOM      2  N   UNL     1      47.048   7.212  13.816  0.00  0.00    +0.000 N 
ATOM      3  H   UNL     1      46.895   8.119  13.377  0.00  0.00    +0.000 HD
BRANCH   2   4
ATOM      4  C   UNL     1      46.348   6.198  13.132  0.00  0.00    +0.000 A 
ATOM      5  C   UNL     1      45.713   6.421  11.903  0.00  0.00    +0.000 A 
ATOM      6  C   UNL     1      45.055   5.392  11.223  0.00  0.00    +0.000 A 
ATOM      7  C   UNL     1      45.058   4.094  11.731  0.00  0.00    +0.000 A 
ATOM      8  C   UNL     1      45.729   3.834  12.931  0.00  0.00    +0.000 A 
ATOM      9  C   UNL     1      46.381   4.881  13.608  0.00  0.00    +0.000 A 
BRANCH   7  10
ATOM     10  C   UNL     1      44.331   3.053  10.958  0.00  0.00    +0.000 C 
ATOM     11  N   UNL     1      45.011   2.393   9.977  0.00  0.00    +0.000 N 
ATOM     12  O   UNL     1      43.144   2.817  11.164  0.00  0.00    +0.000 OA
ATOM     13  H   UNL     1      45.919   2.682   9.643  0.00  0.00    +0.000 HD
ATOM     14  H   UNL     1      44.461   1.777   9.394  0.00  0.00    +0.000 HD
ENDBRANCH   7  10
ENDBRANCH   2   4
ENDBRANCH   1   2
BRANCH   1  15
ATOM     15  C   UNL     1      48.848   7.334  15.526  0.00  0.00    +0.000 C 
BRANCH  15  21
ATOM     16  C   UNL     1      52.617   4.858  17.793  0.00  0.00    +0.000 C 
ATOM     17  C   UNL     1      51.163   4.945  17.421  0.00  0.00    +0.000 A 
ATOM     18  C   UNL     1      50.266   3.937  17.796  0.00  0.00    +0.000 A 
ATOM     19  C   UNL     1      48.911   4.014  17.442  0.00  0.00    +0.000 A 
ATOM     20  C   UNL     1      48.463   5.122  16.700  0.00  0.00    +0.000 A 
ATOM     21  C   UNL     1      49.346   6.140  16.312  0.00  0.00    +0.000 A 
ATOM     22  C   UNL     1      50.694   6.044  16.685  0.00  0.00    +0.000 A 
BRANCH  19  23
ATOM     23  C   UNL     1      47.957   2.904  17.810  0.00  0.00    +0.000 C 
BRANCH  23  24
ATOM     24  N   UNL     1      46.579   3.230  17.462  0.00  0.00    +0.000 NA
ATOM     25  H   UNL     1      46.040   2.366  17.418  0.00  0.00    +0.000 HD
ATOM     26  H   UNL     1      46.558   3.627  16.524  0.00  0.00    +0.000 HD
ENDBRANCH  23  24
ENDBRANCH  19  23
ENDBRANCH  15  21
ENDBRANCH   1  15
TORSDOF 7
ENDMDL
MODEL 6
REMARK VINA RESULT:    -6.020      3.063      7.269
REMARK INTER + INTRA:          -9.087
REMARK INTER:                  -8.351
REMARK INTRA:                  -0.735
REMARK UNBOUND:                -0.779
REMARK  Name = 
REMARK  8 active torsions:
REMARK  status: ('A' for Active; 'I' for Inactive)
REMARK    1  A    between atoms: C_1  and  C_2
REMARK    2  A    between atoms: C_4  and  C_5
REMARK    3  A    between atoms: C_5  and  N_6
REMARK    4  A    between atoms: C_8  and  C_9
REMARK    5  A    between atoms: C_9  and  C_10
REMARK    6  A    between atoms: C_10  and  N_11
REMARK    7  A    between atoms: N_11  and  C_12
REMARK    8  A    between atoms: C_15  and  C_16
REMARK                            x       y       z     vdW  Elec       q    Type
REMARK                         _______ _______ _______ _____ _____    ______ ____
ROOT
ATOM      1  C   UNL     1      48.166   6.823  12.274  0.00  0.00    +0.000 C 
ENDROOT
BRANCH   1   2
ATOM      2  N   UNL     1      48.429   7.263  13.655  0.00  0.00    +0.000 N 
ATOM      3  H   UNL     1      47.985   8.155  13.868  0.00  0.00    +0.000 HD
BRANCH   2   4
ATOM      4  C   UNL     1      48.180   6.320  14.673  0.00  0.00    +0.000 A 
ATOM      5  C   UNL     1      47.384   5.186  14.466  0.00  0.00    +0.000 A 
ATOM      6  C   UNL     1      47.179   4.243  15.478  0.00  0.00    +0.000 A 
ATOM      7  C   UNL     1      47.809   4.384  16.713  0.00  0.00    +0.000 A 
ATOM      8  C   UNL     1      48.651   5.481  16.927  0.00  0.00    +0.000 A 
ATOM      9  C   UNL     1      48.842   6.426  15.903  0.00  0.00    +0.000 A 
BRANCH   7  10
ATOM     10  C   UNL     1      47.538   3.348  17.743  0.00  0.00    +0.000 C 
ATOM     11  N   UNL     1      48.394   3.259  18.802  0.00  0.00    +0.000 N 
ATOM     12  O   UNL     1      46.598   2.566  17.632  0.00  0.00    +0.000 OA
ATOM     13  H   UNL     1      49.280   3.742  18.839  0.00  0.00    +0.000 HD
ATOM     14  H   UNL     1      48.252   2.473  19.422  0.00  0.00    +0.000 HD
ENDBRANCH   7  10
ENDBRANCH   2   4
ENDBRANCH   1   2
BRANCH   1  15
ATOM     15  C   UNL     1      46.885   7.451  11.715  0.00  0.00    +0.000 C 
BRANCH  15  21
ATOM     16  C   UNL     1      42.790   4.821  13.049  0.00  0.00    +0.000 C 
ATOM     17  C   UNL     1      43.848   5.141  12.032  0.00  0.00    +0.000 A 
ATOM     18  C   UNL     1      43.874   4.486  10.794  0.00  0.00    +0.000 A 
ATOM     19  C   UNL     1      44.867   4.778   9.848  0.00  0.00    +0.000 A 
ATOM     20  C   UNL     1      45.843   5.742  10.161  0.00  0.00    +0.000 A 
ATOM     21  C   UNL     1      45.837   6.406  11.396  0.00  0.00    +0.000 A 
ATOM     22  C   UNL     1      44.829   6.102  12.322  0.00  0.00    +0.000 A 
BRANCH  19  23
ATOM     23  C   UNL     1      44.916   4.040   8.533  0.00  0.00    +0.000 C 
BRANCH  23  24
ATOM     24  N   UNL     1      46.137   4.328   7.789  0.00  0.00    +0.000 NA
ATOM     25  H   UNL     1      46.935   4.213   8.414  0.00  0.00    +0.000 HD
ATOM     26  H   UNL     1      46.133   5.307   7.509  0.00  0.00    +0.000 HD
ENDBRANCH  23  24
ENDBRANCH  19  23
ENDBRANCH  15  21
ENDBRANCH   1  15
TORSDOF 7
ENDMDL
MODEL 7
REMARK VINA RESULT:    -6.011      4.180      7.991
REMARK INTER + INTRA:          -9.075
REMARK INTER:                  -8.614
REMARK INTRA:                  -0.461
REMARK UNBOUND:                -0.779
REMARK  Name = 
REMARK  8 active torsions:
REMARK  status: ('A' for Active; 'I' for Inactive)
REMARK    1  A    between atoms: C_1  and  C_2
REMARK    2  A    between atoms: C_4  and  C_5
REMARK    3  A    between atoms: C_5  and  N_6
REMARK    4  A    between atoms: C_8  and  C_9
REMARK    5  A    between atoms: C_9  and  C_10
REMARK    6  A    between atoms: C_10  and  N_11
REMARK    7  A    between atoms: N_11  and  C_12
REMARK    8  A    between atoms: C_15  and  C_16
REMARK                            x       y       z     vdW  Elec       q    Type
REMARK                         _______ _______ _______ _____ _____    ______ ____
ROOT
ATOM      1  C   UNL     1      47.053   4.325  15.674  0.00  0.00    +0.000 C 
ENDROOT
BRANCH   1   2
ATOM      2  N   UNL     1      47.352   3.312  16.701  0.00  0.00    +0.000 N 
ATOM      3  H   UNL     1      46.944   2.405  16.481  0.00  0.00    +0.000 HD
BRANCH   2   4
ATOM      4  C   UNL     1      48.705   3.179  17.075  0.00  0.00    +0.000 A 
ATOM      5  C   UNL     1      49.442   2.015  16.823  0.00  0.00    +0.000 A 
ATOM      6  C   UNL     1      50.793   1.917  17.169  0.00  0.00    +0.000 A 
ATOM      7  C   UNL     1      51.460   3.003  17.732  0.00  0.00    +0.000 A 
ATOM      8  C   UNL     1      50.759   4.196  17.945  0.00  0.00    +0.000 A 
ATOM      9  C   UNL     1      49.398   4.278  17.599  0.00  0.00    +0.000 A 
BRANCH   7  10
ATOM     10  C   UNL     1      52.893   2.824  18.081  0.00  0.00    +0.000 C 
ATOM     11  N   UNL     1      53.237   1.738  18.833  0.00  0.00    +0.000 N 
ATOM     12  O   UNL     1      53.741   3.643  17.740  0.00  0.00    +0.000 OA
ATOM     13  H   UNL     1      52.560   1.150  19.296  0.00  0.00    +0.000 HD
ATOM     14  H   UNL     1      54.196   1.706  19.152  0.00  0.00    +0.000 HD
ENDBRANCH   7  10
ENDBRANCH   2   4
ENDBRANCH   1   2
BRANCH   1  15
ATOM     15  C   UNL     1      47.284   3.782  14.260  0.00  0.00    +0.000 C 
BRANCH  15  21
ATOM     16  C   UNL     1      45.429   7.820  11.868  0.00  0.00    +0.000 C 
ATOM     17  C   UNL     1      45.429   6.334  12.090  0.00  0.00    +0.000 A 
ATOM     18  C   UNL     1      44.553   5.503  11.382  0.00  0.00    +0.000 A 
ATOM     19  C   UNL     1      44.547   4.116  11.596  0.00  0.00    +0.000 A 
ATOM     20  C   UNL     1      45.438   3.570  12.537  0.00  0.00    +0.000 A 
ATOM     21  C   UNL     1      46.321   4.385  13.260  0.00  0.00    +0.000 A 
ATOM     22  C   UNL     1      46.313   5.767  13.022  0.00  0.00    +0.000 A 
BRANCH  19  23
ATOM     23  C   UNL     1      43.571   3.230  10.862  0.00  0.00    +0.000 C 
BRANCH  23  24
ATOM     24  N   UNL     1      43.170   2.078  11.662  0.00  0.00    +0.000 NA
ATOM     25  H   UNL     1      43.978   1.752  12.192  0.00  0.00    +0.000 HD
ATOM     26  H   UNL     1      42.910   1.316  11.040  0.00  0.00    +0.000 HD
ENDBRANCH  23  24
ENDBRANCH  19  23
ENDBRANCH  15  21
ENDBRANCH   1  15
TORSDOF 7
ENDMDL
MODEL 8
REMARK VINA RESULT:    -5.960      3.115      5.631
REMARK INTER + INTRA:          -9.004
REMARK INTER:                  -8.346
REMARK INTRA:                  -0.658
REMARK UNBOUND:                -0.779
REMARK  Name = 
REMARK  8 active torsions:
REMARK  status: ('A' for Active; 'I' for Inactive)
REMARK    1  A    between atoms: C_1  and  C_2
REMARK    2  A    between atoms: C_4  and  C_5
REMARK    3  A    between atoms: C_5  and  N_6
REMARK    4  A    between atoms: C_8  and  C_9
REMARK    5  A    between atoms: C_9  and  C_10
REMARK    6  A    between atoms: C_10  and  N_11
REMARK    7  A    between atoms: N_11  and  C_12
REMARK    8  A    between atoms: C_15  and  C_16
REMARK                            x       y       z     vdW  Elec       q    Type
REMARK                         _______ _______ _______ _____ _____    ______ ____
ROOT
ATOM      1  C   UNL     1      48.678   6.897  14.076  0.00  0.00    +0.000 C 
ENDROOT
BRANCH   1   2
ATOM      2  N   UNL     1      47.323   7.423  13.834  0.00  0.00    +0.000 N 
ATOM      3  H   UNL     1      47.335   8.382  13.493  0.00  0.00    +0.000 HD
BRANCH   2   4
ATOM      4  C   UNL     1      46.469   6.619  13.051  0.00  0.00    +0.000 A 
ATOM      5  C   UNL     1      46.031   7.008  11.778  0.00  0.00    +0.000 A 
ATOM      6  C   UNL     1      45.215   6.180  11.002  0.00  0.00    +0.000 A 
ATOM      7  C   UNL     1      44.854   4.914  11.459  0.00  0.00    +0.000 A 
ATOM      8  C   UNL     1      45.321   4.481  12.705  0.00  0.00    +0.000 A 
ATOM      9  C   UNL     1      46.136   5.327  13.479  0.00  0.00    +0.000 A 
BRANCH   7  10
ATOM     10  C   UNL     1      43.977   4.093  10.584  0.00  0.00    +0.000 C 
ATOM     11  N   UNL     1      43.918   4.411   9.258  0.00  0.00    +0.000 N 
ATOM     12  O   UNL     1      43.293   3.181  11.040  0.00  0.00    +0.000 OA
ATOM     13  H   UNL     1      44.304   5.261   8.876  0.00  0.00    +0.000 HD
ATOM     14  H   UNL     1      43.227   3.912   8.714  0.00  0.00    +0.000 HD
ENDBRANCH   7  10
ENDBRANCH   2   4
ENDBRANCH   1   2
BRANCH   1  15
ATOM     15  C   UNL     1      49.285   7.471  15.361  0.00  0.00    +0.000 C 
BRANCH  15  21
ATOM     16  C   UNL     1      47.663   7.629  20.137  0.00  0.00    +0.000 C 
ATOM     17  C   UNL     1      47.972   6.833  18.901  0.00  0.00    +0.000 A 
ATOM     18  C   UNL     1      47.785   5.445  18.876  0.00  0.00    +0.000 A 
ATOM     19  C   UNL     1      48.082   4.702  17.724  0.00  0.00    +0.000 A 
ATOM     20  C   UNL     1      48.572   5.372  16.589  0.00  0.00    +0.000 A 
ATOM     21  C   UNL     1      48.769   6.760  16.594  0.00  0.00    +0.000 A 
ATOM     22  C   UNL     1      48.458   7.482  17.755  0.00  0.00    +0.000 A 
BRANCH  19  23
ATOM     23  C   UNL     1      47.921   3.201  17.717  0.00  0.00    +0.000 C 
BRANCH  23  24
ATOM     24  N   UNL     1      46.518   2.803  17.690  0.00  0.00    +0.000 NA
ATOM     25  H   UNL     1      46.340   2.180  18.477  0.00  0.00    +0.000 HD
ATOM     26  H   UNL     1      46.343   2.257  16.849  0.00  0.00    +0.000 HD
ENDBRANCH  23  24
ENDBRANCH  19  23
ENDBRANCH  15  21
ENDBRANCH   1  15
TORSDOF 7
ENDMDL
MODEL 9
REMARK VINA RESULT:    -5.780      3.455      6.513
REMARK INTER + INTRA:          -8.756
REMARK INTER:                  -8.118
REMARK INTRA:                  -0.638
REMARK UNBOUND:                -0.779
REMARK  Name = 
REMARK  8 active torsions:
REMARK  status: ('A' for Active; 'I' for Inactive)
REMARK    1  A    between atoms: C_1  and  C_2
REMARK    2  A    between atoms: C_4  and  C_5
REMARK    3  A    between atoms: C_5  and  N_6
REMARK    4  A    between atoms: C_8  and  C_9
REMARK    5  A    between atoms: C_9  and  C_10
REMARK    6  A    between atoms: C_10  and  N_11
REMARK    7  A    between atoms: N_11  and  C_12
REMARK    8  A    between atoms: C_15  and  C_16
REMARK                            x       y       z     vdW  Elec       q    Type
REMARK                         _______ _______ _______ _____ _____    ______ ____
ROOT
ATOM      1  C   UNL     1      45.368   7.105  12.845  0.00  0.00    +0.000 C 
ENDROOT
BRANCH   1   2
ATOM      2  N   UNL     1      46.202   8.232  13.298  0.00  0.00    +0.000 N 
ATOM      3  H   UNL     1      46.220   8.317  14.313  0.00  0.00    +0.000 HD
BRANCH   2   4
ATOM      4  C   UNL     1      47.504   8.302  12.763  0.00  0.00    +0.000 A 
ATOM      5  C   UNL     1      48.344   7.184  12.680  0.00  0.00    +0.000 A 
ATOM      6  C   UNL     1      49.618   7.267  12.112  0.00  0.00    +0.000 A 
ATOM      7  C   UNL     1      50.070   8.465  11.562  0.00  0.00    +0.000 A 
ATOM      8  C   UNL     1      49.230   9.584  11.585  0.00  0.00    +0.000 A 
ATOM      9  C   UNL     1      47.953   9.488  12.166  0.00  0.00    +0.000 A 
BRANCH   7  10
ATOM     10  C   UNL     1      51.439   8.482  10.983  0.00  0.00    +0.000 C 
ATOM     11  N   UNL     1      52.151   7.318  10.991  0.00  0.00    +0.000 N 
ATOM     12  O   UNL     1      51.935   9.515  10.545  0.00  0.00    +0.000 OA
ATOM     13  H   UNL     1      51.867   6.499  11.508  0.00  0.00    +0.000 HD
ATOM     14  H   UNL     1      53.116   7.387  10.699  0.00  0.00    +0.000 HD
ENDBRANCH   7  10
ENDBRANCH   2   4
ENDBRANCH   1   2
BRANCH   1  15
ATOM     15  C   UNL     1      45.232   7.081  11.319  0.00  0.00    +0.000 C 
BRANCH  15  21
ATOM     16  C   UNL     1      43.352   2.440  11.947  0.00  0.00    +0.000 C 
ATOM     17  C   UNL     1      44.080   3.436  11.090  0.00  0.00    +0.000 A 
ATOM     18  C   UNL     1      44.542   3.084   9.816  0.00  0.00    +0.000 A 
ATOM     19  C   UNL     1      45.230   4.012   9.020  0.00  0.00    +0.000 A 
ATOM     20  C   UNL     1      45.451   5.307   9.521  0.00  0.00    +0.000 A 
ATOM     21  C   UNL     1      45.000   5.679  10.796  0.00  0.00    +0.000 A 
ATOM     22  C   UNL     1      44.308   4.735  11.570  0.00  0.00    +0.000 A 
BRANCH  19  23
ATOM     23  C   UNL     1      45.763   3.615   7.665  0.00  0.00    +0.000 C 
BRANCH  23  24
ATOM     24  N   UNL     1      46.932   4.401   7.287  0.00  0.00    +0.000 NA
ATOM     25  H   UNL     1      47.628   4.329   8.029  0.00  0.00    +0.000 HD
ATOM     26  H   UNL     1      46.670   5.383   7.234  0.00  0.00    +0.000 HD
ENDBRANCH  23  24
ENDBRANCH  19  23
ENDBRANCH  15  21
ENDBRANCH   1  15
TORSDOF 7
ENDMDL
