MODEL 1
REMARK VINA RESULT:    -8.173      0.000      0.000
REMARK INTER + INTRA:         -11.274
REMARK INTER:                 -10.562
REMARK INTRA:                  -0.712
REMARK UNBOUND:                -0.712
REMARK  Name = 
REMARK  5 active torsions:
REMARK  status: ('A' for Active; 'I' for Inactive)
REMARK    1  A    between atoms: C_2  and  C_4
REMARK    2  A    between atoms: C_8  and  O_9
REMARK    3  A    between atoms: O_9  and  C_10
REMARK    4  A    between atoms: C_10  and  C_11
REMARK    5  A    between atoms: C_16  and  N_17
REMARK                            x       y       z     vdW  Elec       q    Type
REMARK                         _______ _______ _______ _____ _____    ______ ____
ROOT
ATOM      1  C   UNL     1      43.443   4.033  11.184  0.00  0.00    +0.000 C 
ENDROOT
BRANCH   1   2
ATOM      2  C   UNL     1      44.565   4.450  12.102  0.00  0.00    +0.000 A 
ATOM      3  C   UNL     1      45.350   3.490  12.740  0.00  0.00    +0.000 A 
ATOM      4  C   UNL     1      46.459   3.895  13.464  0.00  0.00    +0.000 A 
ATOM      5  F   UNL     1      47.235   2.972  14.049  0.00  0.00    +0.000 F 
ATOM      6  C   UNL     1      46.804   5.242  13.566  0.00  0.00    +0.000 A 
ATOM      7  C   UNL     1      46.031   6.240  12.960  0.00  0.00    +0.000 A 
ATOM      8  C   UNL     1      44.891   5.813  12.256  0.00  0.00    +0.000 A 
BRANCH   7   9
ATOM      9  N   UNL     1      46.398   7.568  13.006  0.00  0.00    +0.000 N 
ATOM     10  C   UNL     1      45.438   8.682  12.975  0.00  0.00    +0.000 C 
ATOM     11  C   UNL     1      45.830   9.665  11.862  0.00  0.00    +0.000 C 
ATOM     12  O   UNL     1      47.177  10.139  12.035  0.00  0.00    +0.000 OA
ATOM     13  C   UNL     1      48.101   9.037  12.006  0.00  0.00    +0.000 C 
ATOM     14  C   UNL     1      47.803   7.998  13.104  0.00  0.00    +0.000 C 
ENDBRANCH   7   9
ENDBRANCH   1   2
BRANCH   1  15
ATOM     15  O   UNL     1      43.817   2.907  10.394  0.00  0.00    +0.000 OA
BRANCH  15  20
ATOM     16  C   UNL     1      46.356   2.171   7.898  0.00  0.00    +0.000 A 
ATOM     17  C   UNL     1      46.645   3.434   7.367  0.00  0.00    +0.000 A 
ATOM     18  C   UNL     1      45.971   4.556   7.848  0.00  0.00    +0.000 A 
ATOM     19  C   UNL     1      45.016   4.418   8.855  0.00  0.00    +0.000 A 
ATOM     20  C   UNL     1      44.731   3.163   9.401  0.00  0.00    +0.000 A 
ATOM     21  C   UNL     1      45.414   2.041   8.925  0.00  0.00    +0.000 A 
BRANCH  16  23
ATOM     22  N   UNL     1      46.591  -0.240   7.666  0.00  0.00    +0.000 N 
ATOM     23  C   UNL     1      47.078   0.996   7.344  0.00  0.00    +0.000 C 
ATOM     24  O   UNL     1      48.038   1.124   6.596  0.00  0.00    +0.000 OA
ATOM     25  H   UNL     1      47.016  -1.028   7.197  0.00  0.00    +0.000 HD
ATOM     26  H   UNL     1      45.676  -0.373   8.074  0.00  0.00    +0.000 HD
ENDBRANCH  16  23
ENDBRANCH  15  20
ENDBRANCH   1  15
TORSDOF 5
ENDMDL
MODEL 2
REMARK VINA RESULT:    -7.435      2.637      3.606
REMARK INTER + INTRA:         -10.320
REMARK INTER:                  -9.411
REMARK INTRA:                  -0.909
REMARK UNBOUND:                -0.712
REMARK  Name = 
REMARK  5 active torsions:
REMARK  status: ('A' for Active; 'I' for Inactive)
REMARK    1  A    between atoms: C_2  and  C_4
REMARK    2  A    between atoms: C_8  and  O_9
REMARK    3  A    between atoms: O_9  and  C_10
REMARK    4  A    between atoms: C_10  and  C_11
REMARK    5  A    between atoms: C_16  and  N_17
REMARK                            x       y       z     vdW  Elec       q    Type
REMARK                         _______ _______ _______ _____ _____    ______ ____
ROOT
ATOM      1  C   UNL     1      43.515   4.702  10.847  0.00  0.00    +0.000 C 
ENDROOT
BRANCH   1   2
ATOM      2  C   UNL     1      44.502   5.642  11.495  0.00  0.00    +0.000 A 
ATOM      3  C   UNL     1      44.363   7.022  11.348  0.00  0.00    +0.000 A 
ATOM      4  C   UNL     1      45.196   7.865  12.065  0.00  0.00    +0.000 A 
ATOM      5  F   UNL     1      45.041   9.192  11.955  0.00  0.00    +0.000 F 
ATOM      6  C   UNL     1      46.167   7.360  12.929  0.00  0.00    +0.000 A 
ATOM      7  C   UNL     1      46.355   5.982  13.088  0.00  0.00    +0.000 A 
ATOM      8  C   UNL     1      45.523   5.141  12.328  0.00  0.00    +0.000 A 
BRANCH   7   9
ATOM      9  N   UNL     1      47.273   5.475  13.983  0.00  0.00    +0.000 N 
ATOM     10  C   UNL     1      47.188   4.127  14.566  0.00  0.00    +0.000 C 
ATOM     11  C   UNL     1      47.272   4.225  16.096  0.00  0.00    +0.000 C 
ATOM     12  O   UNL     1      48.473   4.899  16.510  0.00  0.00    +0.000 OA
ATOM     13  C   UNL     1      48.506   6.233  15.974  0.00  0.00    +0.000 C 
ATOM     14  C   UNL     1      48.446   6.243  14.435  0.00  0.00    +0.000 C 
ENDBRANCH   7   9
ENDBRANCH   1   2
BRANCH   1  15
ATOM     15  O   UNL     1      43.714   4.638   9.438  0.00  0.00    +0.000 OA
BRANCH  15  20
ATOM     16  C   UNL     1      46.223   2.937   7.430  0.00  0.00    +0.000 A 
ATOM     17  C   UNL     1      46.199   1.634   7.942  0.00  0.00    +0.000 A 
ATOM     18  C   UNL     1      45.332   1.319   8.987  0.00  0.00    +0.000 A 
ATOM     19  C   UNL     1      44.490   2.297   9.515  0.00  0.00    +0.000 A 
ATOM     20  C   UNL     1      44.497   3.597   9.001  0.00  0.00    +0.000 A 
ATOM     21  C   UNL     1      45.361   3.910   7.948  0.00  0.00    +0.000 A 
BRANCH  16  23
ATOM     22  N   UNL     1      48.353   2.544   6.321  0.00  0.00    +0.000 N 
ATOM     23  C   UNL     1      47.177   3.241   6.332  0.00  0.00    +0.000 C 
ATOM     24  O   UNL     1      46.908   4.044   5.449  0.00  0.00    +0.000 OA
ATOM     25  H   UNL     1      48.947   2.674   5.513  0.00  0.00    +0.000 HD
ATOM     26  H   UNL     1      48.500   1.719   6.885  0.00  0.00    +0.000 HD
ENDBRANCH  16  23
ENDBRANCH  15  20
ENDBRANCH   1  15
TORSDOF 5
ENDMDL
MODEL 3
REMARK VINA RESULT:    -7.168      3.019      4.147
REMARK INTER + INTRA:          -9.976
REMARK INTER:                  -9.136
REMARK INTRA:                  -0.840
REMARK UNBOUND:                -0.712
REMARK  Name = 
REMARK  5 active torsions:
REMARK  status: ('A' for Active; 'I' for Inactive)
REMARK    1  A    between atoms: C_2  and  C_4
REMARK    2  A    between atoms: C_8  and  O_9
REMARK    3  A    between atoms: O_9  and  C_10
REMARK    4  A    between atoms: C_10  and  C_11
REMARK    5  A    between atoms: C_16  and  N_17
REMARK                            x       y       z     vdW  Elec       q    Type
REMARK                         _______ _______ _______ _____ _____    ______ ____
ROOT
ATOM      1  C   UNL     1      45.048   5.906  11.508  0.00  0.00    +0.000 C 
ENDROOT
BRANCH   1   2
ATOM      2  C   UNL     1      46.374   6.082  12.205  0.00  0.00    +0.000 A 
ATOM      3  C   UNL     1      47.375   6.866  11.631  0.00  0.00    +0.000 A 
ATOM      4  C   UNL     1      48.528   7.126  12.353  0.00  0.00    +0.000 A 
ATOM      5  F   UNL     1      49.476   7.908  11.820  0.00  0.00    +0.000 F 
ATOM      6  C   UNL     1      48.705   6.620  13.640  0.00  0.00    +0.000 A 
ATOM      7  C   UNL     1      47.736   5.809  14.245  0.00  0.00    +0.000 A 
ATOM      8  C   UNL     1      46.586   5.529  13.484  0.00  0.00    +0.000 A 
BRANCH   7   9
ATOM      9  N   UNL     1      47.877   5.353  15.538  0.00  0.00    +0.000 N 
ATOM     10  C   UNL     1      48.745   5.992  16.539  0.00  0.00    +0.000 C 
ATOM     11  C   UNL     1      49.686   4.941  17.146  0.00  0.00    +0.000 C 
ATOM     12  O   UNL     1      48.948   3.846  17.716  0.00  0.00    +0.000 OA
ATOM     13  C   UNL     1      48.151   3.203  16.706  0.00  0.00    +0.000 C 
ATOM     14  C   UNL     1      47.154   4.175  16.046  0.00  0.00    +0.000 C 
ENDBRANCH   7   9
ENDBRANCH   1   2
BRANCH   1  15
ATOM     15  O   UNL     1      45.220   5.776  10.100  0.00  0.00    +0.000 OA
BRANCH  15  20
ATOM     16  C   UNL     1      46.133   3.001   7.934  0.00  0.00    +0.000 A 
ATOM     17  C   UNL     1      45.407   1.933   8.476  0.00  0.00    +0.000 A 
ATOM     18  C   UNL     1      44.601   2.142   9.594  0.00  0.00    +0.000 A 
ATOM     19  C   UNL     1      44.517   3.411  10.167  0.00  0.00    +0.000 A 
ATOM     20  C   UNL     1      45.227   4.487   9.624  0.00  0.00    +0.000 A 
ATOM     21  C   UNL     1      46.028   4.277   8.499  0.00  0.00    +0.000 A 
BRANCH  16  23
ATOM     22  N   UNL     1      47.989   1.805   6.913  0.00  0.00    +0.000 N 
ATOM     23  C   UNL     1      46.999   2.734   6.757  0.00  0.00    +0.000 C 
ATOM     24  O   UNL     1      46.809   3.283   5.680  0.00  0.00    +0.000 OA
ATOM     25  H   UNL     1      48.501   1.547   6.080  0.00  0.00    +0.000 HD
ATOM     26  H   UNL     1      48.019   1.170   7.699  0.00  0.00    +0.000 HD
ENDBRANCH  16  23
ENDBRANCH  15  20
ENDBRANCH   1  15
TORSDOF 5
ENDMDL
MODEL 4
REMARK VINA RESULT:    -7.055      2.117      6.958
REMARK INTER + INTRA:          -9.829
REMARK INTER:                  -8.851
REMARK INTRA:                  -0.978
REMARK UNBOUND:                -0.712
REMARK  Name = 
REMARK  5 active torsions:
REMARK  status: ('A' for Active; 'I' for Inactive)
REMARK    1  A    between atoms: C_2  and  C_4
REMARK    2  A    between atoms: C_8  and  O_9
REMARK    3  A    between atoms: O_9  and  C_10
REMARK    4  A    between atoms: C_10  and  C_11
REMARK    5  A    between atoms: C_16  and  N_17
REMARK                            x       y       z     vdW  Elec       q    Type
REMARK                         _______ _______ _______ _____ _____    ______ ____
ROOT
ATOM      1  C   UNL     1      46.669   4.477  13.594  0.00  0.00    +0.000 C 
ENDROOT
BRANCH   1   2
ATOM      2  C   UNL     1      45.520   4.275  12.637  0.00  0.00    +0.000 A 
ATOM      3  C   UNL     1      44.253   4.775  12.939  0.00  0.00    +0.000 A 
ATOM      4  C   UNL     1      43.252   4.700  11.985  0.00  0.00    +0.000 A 
ATOM      5  F   UNL     1      42.043   5.212  12.259  0.00  0.00    +0.000 F 
ATOM      6  C   UNL     1      43.487   4.136  10.732  0.00  0.00    +0.000 A 
ATOM      7  C   UNL     1      44.737   3.602  10.396  0.00  0.00    +0.000 A 
ATOM      8  C   UNL     1      45.732   3.658  11.388  0.00  0.00    +0.000 A 
BRANCH   7   9
ATOM      9  N   UNL     1      44.994   3.095   9.140  0.00  0.00    +0.000 N 
ATOM     10  C   UNL     1      45.040   1.658   8.832  0.00  0.00    +0.000 C 
ATOM     11  C   UNL     1      46.361   1.328   8.123  0.00  0.00    +0.000 C 
ATOM     12  O   UNL     1      46.530   2.123   6.937  0.00  0.00    +0.000 OA
ATOM     13  C   UNL     1      46.539   3.521   7.271  0.00  0.00    +0.000 C 
ATOM     14  C   UNL     1      45.239   3.960   7.973  0.00  0.00    +0.000 C 
ENDBRANCH   7   9
ENDBRANCH   1   2
BRANCH   1  15
ATOM     15  O   UNL     1      46.633   5.778  14.173  0.00  0.00    +0.000 OA
BRANCH  15  20
ATOM     16  C   UNL     1      46.772   8.907  12.324  0.00  0.00    +0.000 A 
ATOM     17  C   UNL     1      48.093   8.936  11.863  0.00  0.00    +0.000 A 
ATOM     18  C   UNL     1      48.960   7.892  12.183  0.00  0.00    +0.000 A 
ATOM     19  C   UNL     1      48.509   6.822  12.956  0.00  0.00    +0.000 A 
ATOM     20  C   UNL     1      47.187   6.778  13.410  0.00  0.00    +0.000 A 
ATOM     21  C   UNL     1      46.317   7.820  13.081  0.00  0.00    +0.000 A 
BRANCH  16  23
ATOM     22  N   UNL     1      44.636  10.053  12.540  0.00  0.00    +0.000 N 
ATOM     23  C   UNL     1      45.885  10.049  11.982  0.00  0.00    +0.000 C 
ATOM     24  O   UNL     1      46.265  10.970  11.272  0.00  0.00    +0.000 OA
ATOM     25  H   UNL     1      44.080  10.885  12.394  0.00  0.00    +0.000 HD
ATOM     26  H   UNL     1      44.382   9.446  13.306  0.00  0.00    +0.000 HD
ENDBRANCH  16  23
ENDBRANCH  15  20
ENDBRANCH   1  15
TORSDOF 5
ENDMDL
MODEL 5
REMARK VINA RESULT:    -7.009      3.792      7.726
REMARK INTER + INTRA:          -9.769
REMARK INTER:                  -8.832
REMARK INTRA:                  -0.937
REMARK UNBOUND:                -0.712
REMARK  Name = 
REMARK  5 active torsions:
REMARK  status: ('A' for Active; 'I' for Inactive)
REMARK    1  A    between atoms: C_2  and  C_4
REMARK    2  A    between atoms: C_8  and  O_9
REMARK    3  A    between atoms: O_9  and  C_10
REMARK    4  A    between atoms: C_10  and  C_11
REMARK    5  A    between atoms: C_16  and  N_17
REMARK                            x       y       z     vdW  Elec       q    Type
REMARK                         _______ _______ _______ _____ _____    ______ ____
ROOT
ATOM      1  C   UNL     1      48.984   7.708  13.868  0.00  0.00    +0.000 C 
ENDROOT
BRANCH   1   2
ATOM      2  C   UNL     1      47.559   7.600  13.386  0.00  0.00    +0.000 A 
ATOM      3  C   UNL     1      46.741   8.729  13.341  0.00  0.00    +0.000 A 
ATOM      4  C   UNL     1      45.485   8.632  12.764  0.00  0.00    +0.000 A 
ATOM      5  F   UNL     1      44.710   9.723  12.688  0.00  0.00    +0.000 F 
ATOM      6  C   UNL     1      45.026   7.429  12.228  0.00  0.00    +0.000 A 
ATOM      7  C   UNL     1      45.806   6.266  12.273  0.00  0.00    +0.000 A 
ATOM      8  C   UNL     1      47.064   6.376  12.891  0.00  0.00    +0.000 A 
BRANCH   7   9
ATOM      9  N   UNL     1      45.384   5.089  11.693  0.00  0.00    +0.000 N 
ATOM     10  C   UNL     1      45.188   4.915  10.246  0.00  0.00    +0.000 C 
ATOM     11  C   UNL     1      43.780   4.363   9.982  0.00  0.00    +0.000 C 
ATOM     12  O   UNL     1      43.560   3.132  10.692  0.00  0.00    +0.000 OA
ATOM     13  C   UNL     1      43.701   3.340  12.108  0.00  0.00    +0.000 C 
ATOM     14  C   UNL     1      45.096   3.878  12.481  0.00  0.00    +0.000 C 
ENDBRANCH   7   9
ENDBRANCH   1   2
BRANCH   1  15
ATOM     15  O   UNL     1      49.383   6.530  14.561  0.00  0.00    +0.000 OA
BRANCH  15  20
ATOM     16  C   UNL     1      48.017   4.938  17.532  0.00  0.00    +0.000 A 
ATOM     17  C   UNL     1      47.993   5.985  18.461  0.00  0.00    +0.000 A 
ATOM     18  C   UNL     1      48.451   7.249  18.090  0.00  0.00    +0.000 A 
ATOM     19  C   UNL     1      48.927   7.467  16.798  0.00  0.00    +0.000 A 
ATOM     20  C   UNL     1      48.941   6.431  15.858  0.00  0.00    +0.000 A 
ATOM     21  C   UNL     1      48.474   5.168  16.229  0.00  0.00    +0.000 A 
BRANCH  16  23
ATOM     22  N   UNL     1      48.160   3.050  19.059  0.00  0.00    +0.000 N 
ATOM     23  C   UNL     1      47.542   3.601  17.971  0.00  0.00    +0.000 C 
ATOM     24  O   UNL     1      46.610   3.034  17.416  0.00  0.00    +0.000 OA
ATOM     25  H   UNL     1      47.759   2.194  19.420  0.00  0.00    +0.000 HD
ATOM     26  H   UNL     1      48.756   3.586  19.674  0.00  0.00    +0.000 HD
ENDBRANCH  16  23
ENDBRANCH  15  20
ENDBRANCH   1  15
TORSDOF 5
ENDMDL
MODEL 6
REMARK VINA RESULT:    -6.953      4.048      7.496
REMARK INTER + INTRA:          -9.697
REMARK INTER:                  -9.148
REMARK INTRA:                  -0.549
REMARK UNBOUND:                -0.712
REMARK  Name = 
REMARK  5 active torsions:
REMARK  status: ('A' for Active; 'I' for Inactive)
REMARK    1  A    between atoms: C_2  and  C_4
REMARK    2  A    between atoms: C_8  and  O_9
REMARK    3  A    between atoms: O_9  and  C_10
REMARK    4  A    between atoms: C_10  and  C_11
REMARK    5  A    between atoms: C_16  and  N_17
REMARK                            x       y       z     vdW  Elec       q    Type
REMARK                         _______ _______ _______ _____ _____    ______ ____
ROOT
ATOM      1  C   UNL     1      46.619   4.493  13.905  0.00  0.00    +0.000 C 
ENDROOT
BRANCH   1   2
ATOM      2  C   UNL     1      45.462   4.404  12.942  0.00  0.00    +0.000 A 
ATOM      3  C   UNL     1      44.238   4.998  13.250  0.00  0.00    +0.000 A 
ATOM      4  C   UNL     1      43.238   5.024  12.292  0.00  0.00    +0.000 A 
ATOM      5  F   UNL     1      42.074   5.625  12.573  0.00  0.00    +0.000 F 
ATOM      6  C   UNL     1      43.433   4.470  11.028  0.00  0.00    +0.000 A 
ATOM      7  C   UNL     1      44.638   3.844  10.684  0.00  0.00    +0.000 A 
ATOM      8  C   UNL     1      45.630   3.799  11.679  0.00  0.00    +0.000 A 
BRANCH   7   9
ATOM      9  N   UNL     1      44.859   3.346   9.418  0.00  0.00    +0.000 N 
ATOM     10  C   UNL     1      44.789   1.917   9.078  0.00  0.00    +0.000 C 
ATOM     11  C   UNL     1      46.082   1.495   8.367  0.00  0.00    +0.000 C 
ATOM     12  O   UNL     1      46.322   2.299   7.199  0.00  0.00    +0.000 OA
ATOM     13  C   UNL     1      46.444   3.684   7.564  0.00  0.00    +0.000 C 
ATOM     14  C   UNL     1      45.180   4.213   8.271  0.00  0.00    +0.000 C 
ENDBRANCH   7   9
ENDBRANCH   1   2
BRANCH   1  15
ATOM     15  O   UNL     1      46.274   3.945  15.174  0.00  0.00    +0.000 OA
BRANCH  15  20
ATOM     16  C   UNL     1      49.280   3.179  17.073  0.00  0.00    +0.000 A 
ATOM     17  C   UNL     1      49.286   4.174  18.058  0.00  0.00    +0.000 A 
ATOM     18  C   UNL     1      48.269   5.126  18.084  0.00  0.00    +0.000 A 
ATOM     19  C   UNL     1      47.248   5.085  17.134  0.00  0.00    +0.000 A 
ATOM     20  C   UNL     1      47.226   4.086  16.155  0.00  0.00    +0.000 A 
ATOM     21  C   UNL     1      48.241   3.127  16.135  0.00  0.00    +0.000 A 
BRANCH  16  23
ATOM     22  N   UNL     1      51.251   2.218  18.127  0.00  0.00    +0.000 N 
ATOM     23  C   UNL     1      50.393   2.195  17.063  0.00  0.00    +0.000 C 
ATOM     24  O   UNL     1      50.515   1.368  16.169  0.00  0.00    +0.000 OA
ATOM     25  H   UNL     1      51.936   1.477  18.170  0.00  0.00    +0.000 HD
ATOM     26  H   UNL     1      51.042   2.716  18.982  0.00  0.00    +0.000 HD
ENDBRANCH  16  23
ENDBRANCH  15  20
ENDBRANCH   1  15
TORSDOF 5
ENDMDL
MODEL 7
REMARK VINA RESULT:    -6.779      2.376      6.929
REMARK INTER + INTRA:          -9.473
REMARK INTER:                  -8.494
REMARK INTRA:                  -0.979
REMARK UNBOUND:                -0.712
REMARK  Name = 
REMARK  5 active torsions:
REMARK  status: ('A' for Active; 'I' for Inactive)
REMARK    1  A    between atoms: C_2  and  C_4
REMARK    2  A    between atoms: C_8  and  O_9
REMARK    3  A    between atoms: O_9  and  C_10
REMARK    4  A    between atoms: C_10  and  C_11
REMARK    5  A    between atoms: C_16  and  N_17
REMARK                            x       y       z     vdW  Elec       q    Type
REMARK                         _______ _______ _______ _____ _____    ______ ____
ROOT
ATOM      1  C   UNL     1      44.986   7.544  11.498  0.00  0.00    +0.000 C 
ENDROOT
BRANCH   1   2
ATOM      2  C   UNL     1      44.788   6.050  11.442  0.00  0.00    +0.000 A 
ATOM      3  C   UNL     1      44.147   5.383  12.485  0.00  0.00    +0.000 A 
ATOM      4  C   UNL     1      43.852   4.036  12.348  0.00  0.00    +0.000 A 
ATOM      5  F   UNL     1      43.205   3.400  13.334  0.00  0.00    +0.000 F 
ATOM      6  C   UNL     1      44.183   3.338  11.187  0.00  0.00    +0.000 A 
ATOM      7  C   UNL     1      44.847   3.964  10.124  0.00  0.00    +0.000 A 
ATOM      8  C   UNL     1      45.167   5.322  10.295  0.00  0.00    +0.000 A 
BRANCH   7   9
ATOM      9  N   UNL     1      45.126   3.296   8.951  0.00  0.00    +0.000 N 
ATOM     10  C   UNL     1      44.985   1.841   8.785  0.00  0.00    +0.000 C 
ATOM     11  C   UNL     1      46.295   1.258   8.238  0.00  0.00    +0.000 C 
ATOM     12  O   UNL     1      46.672   1.891   7.003  0.00  0.00    +0.000 OA
ATOM     13  C   UNL     1      46.860   3.303   7.203  0.00  0.00    +0.000 C 
ATOM     14  C   UNL     1      45.587   3.989   7.736  0.00  0.00    +0.000 C 
ENDBRANCH   7   9
ENDBRANCH   1   2
BRANCH   1  15
ATOM     15  O   UNL     1      45.582   7.938  12.730  0.00  0.00    +0.000 OA
BRANCH  15  20
ATOM     16  C   UNL     1      48.808   7.214  14.243  0.00  0.00    +0.000 A 
ATOM     17  C   UNL     1      49.700   7.417  13.183  0.00  0.00    +0.000 A 
ATOM     18  C   UNL     1      49.213   7.797  11.934  0.00  0.00    +0.000 A 
ATOM     19  C   UNL     1      47.843   7.975  11.743  0.00  0.00    +0.000 A 
ATOM     20  C   UNL     1      46.946   7.788  12.799  0.00  0.00    +0.000 A 
ATOM     21  C   UNL     1      47.436   7.417  14.053  0.00  0.00    +0.000 A 
BRANCH  16  23
ATOM     22  N   UNL     1      48.482   6.678  16.594  0.00  0.00    +0.000 N 
ATOM     23  C   UNL     1      49.362   6.787  15.554  0.00  0.00    +0.000 C 
ATOM     24  O   UNL     1      50.544   6.500  15.691  0.00  0.00    +0.000 OA
ATOM     25  H   UNL     1      48.844   6.282  17.451  0.00  0.00    +0.000 HD
ATOM     26  H   UNL     1      47.481   6.673  16.459  0.00  0.00    +0.000 HD
ENDBRANCH  16  23
ENDBRANCH  15  20
ENDBRANCH   1  15
TORSDOF 5
ENDMDL
MODEL 8
REMARK VINA RESULT:    -6.686      3.525      5.234
REMARK INTER + INTRA:          -9.353
REMARK INTER:                  -8.573
REMARK INTRA:                  -0.780
REMARK UNBOUND:                -0.712
REMARK  Name = 
REMARK  5 active torsions:
REMARK  status: ('A' for Active; 'I' for Inactive)
REMARK    1  A    between atoms: C_2  and  C_4
REMARK    2  A    between atoms: C_8  and  O_9
REMARK    3  A    between atoms: O_9  and  C_10
REMARK    4  A    between atoms: C_10  and  C_11
REMARK    5  A    between atoms: C_16  and  N_17
REMARK                            x       y       z     vdW  Elec       q    Type
REMARK                         _______ _______ _______ _____ _____    ______ ____
ROOT
ATOM      1  C   UNL     1      46.893   6.597  11.742  0.00  0.00    +0.000 C 
ENDROOT
BRANCH   1   2
ATOM      2  C   UNL     1      47.853   6.666  12.903  0.00  0.00    +0.000 A 
ATOM      3  C   UNL     1      48.908   7.578  12.895  0.00  0.00    +0.000 A 
ATOM      4  C   UNL     1      49.689   7.720  14.030  0.00  0.00    +0.000 A 
ATOM      5  F   UNL     1      50.682   8.620  14.037  0.00  0.00    +0.000 F 
ATOM      6  C   UNL     1      49.439   6.970  15.179  0.00  0.00    +0.000 A 
ATOM      7  C   UNL     1      48.404   6.027  15.222  0.00  0.00    +0.000 A 
ATOM      8  C   UNL     1      47.642   5.873  14.050  0.00  0.00    +0.000 A 
BRANCH   7   9
ATOM      9  N   UNL     1      48.114   5.323  16.372  0.00  0.00    +0.000 N 
ATOM     10  C   UNL     1      48.627   5.684  17.702  0.00  0.00    +0.000 C 
ATOM     11  C   UNL     1      49.302   4.462  18.340  0.00  0.00    +0.000 C 
ATOM     12  O   UNL     1      48.397   3.345  18.413  0.00  0.00    +0.000 OA
ATOM     13  C   UNL     1      47.954   2.976  17.096  0.00  0.00    +0.000 C 
ATOM     14  C   UNL     1      47.242   4.137  16.375  0.00  0.00    +0.000 C 
ENDBRANCH   7   9
ENDBRANCH   1   2
BRANCH   1  15
ATOM     15  O   UNL     1      45.543   6.556  12.192  0.00  0.00    +0.000 OA
BRANCH  15  20
ATOM     16  C   UNL     1      44.523   3.551  10.417  0.00  0.00    +0.000 A 
ATOM     17  C   UNL     1      43.665   2.927  11.331  0.00  0.00    +0.000 A 
ATOM     18  C   UNL     1      43.428   3.519  12.571  0.00  0.00    +0.000 A 
ATOM     19  C   UNL     1      44.041   4.729  12.896  0.00  0.00    +0.000 A 
ATOM     20  C   UNL     1      44.888   5.366  11.984  0.00  0.00    +0.000 A 
ATOM     21  C   UNL     1      45.118   4.776  10.738  0.00  0.00    +0.000 A 
BRANCH  16  23
ATOM     22  N   UNL     1      44.371   3.543   7.989  0.00  0.00    +0.000 N 
ATOM     23  C   UNL     1      44.768   2.878   9.115  0.00  0.00    +0.000 C 
ATOM     24  O   UNL     1      45.341   1.799   9.046  0.00  0.00    +0.000 OA
ATOM     25  H   UNL     1      44.641   3.133   7.105  0.00  0.00    +0.000 HD
ATOM     26  H   UNL     1      44.120   4.522   7.996  0.00  0.00    +0.000 HD
ENDBRANCH  16  23
ENDBRANCH  15  20
ENDBRANCH   1  15
TORSDOF 5
ENDMDL
MODEL 9
REMARK VINA RESULT:    -6.436      5.103      6.555
REMARK INTER + INTRA:          -9.029
REMARK INTER:                  -8.410
REMARK INTRA:                  -0.619
REMARK UNBOUND:                -0.712
REMARK  Name = 
REMARK  5 active torsions:
REMARK  status: ('A' for Active; 'I' for Inactive)
REMARK    1  A    between atoms: C_2  and  C_4
REMARK    2  A    between atoms: C_8  and  O_9
REMARK    3  A    between atoms: O_9  and  C_10
REMARK    4  A    between atoms: C_10  and  C_11
REMARK    5  A    between atoms: C_16  and  N_17
REMARK                            x       y       z     vdW  Elec       q    Type
REMARK                         _______ _______ _______ _____ _____    ______ ____
ROOT
ATOM      1  C   UNL     1      47.253   3.696  15.962  0.00  0.00    +0.000 C 
ENDROOT
BRANCH   1   2
ATOM      2  C   UNL     1      48.544   3.592  16.735  0.00  0.00    +0.000 A 
ATOM      3  C   UNL     1      49.238   2.384  16.791  0.00  0.00    +0.000 A 
ATOM      4  C   UNL     1      50.488   2.349  17.387  0.00  0.00    +0.000 A 
ATOM      5  F   UNL     1      51.173   1.197  17.411  0.00  0.00    +0.000 F 
ATOM      6  C   UNL     1      51.063   3.497  17.930  0.00  0.00    +0.000 A 
ATOM      7  C   UNL     1      50.391   4.726  17.916  0.00  0.00    +0.000 A 
ATOM      8  C   UNL     1      49.110   4.735  17.336  0.00  0.00    +0.000 A 
BRANCH   7   9
ATOM      9  N   UNL     1      50.976   5.877  18.399  0.00  0.00    +0.000 N 
ATOM     10  C   UNL     1      52.399   5.982  18.756  0.00  0.00    +0.000 C 
ATOM     11  C   UNL     1      52.529   6.531  20.184  0.00  0.00    +0.000 C 
ATOM     12  O   UNL     1      51.861   7.797  20.319  0.00  0.00    +0.000 OA
ATOM     13  C   UNL     1      50.461   7.656  20.020  0.00  0.00    +0.000 C 
ATOM     14  C   UNL     1      50.222   7.127  18.592  0.00  0.00    +0.000 C 
ENDBRANCH   7   9
ENDBRANCH   1   2
BRANCH   1  15
ATOM     15  O   UNL     1      47.404   3.190  14.639  0.00  0.00    +0.000 OA
BRANCH  15  20
ATOM     16  C   UNL     1      45.151   3.871  11.867  0.00  0.00    +0.000 A 
ATOM     17  C   UNL     1      45.406   5.218  11.584  0.00  0.00    +0.000 A 
ATOM     18  C   UNL     1      46.346   5.917  12.341  0.00  0.00    +0.000 A 
ATOM     19  C   UNL     1      47.029   5.274  13.372  0.00  0.00    +0.000 A 
ATOM     20  C   UNL     1      46.791   3.925  13.653  0.00  0.00    +0.000 A 
ATOM     21  C   UNL     1      45.856   3.224  12.889  0.00  0.00    +0.000 A 
BRANCH  16  23
ATOM     22  N   UNL     1      44.580   2.337  10.067  0.00  0.00    +0.000 N 
ATOM     23  C   UNL     1      44.126   3.166  11.054  0.00  0.00    +0.000 C 
ATOM     24  O   UNL     1      42.930   3.283  11.284  0.00  0.00    +0.000 OA
ATOM     25  H   UNL     1      43.885   1.777   9.594  0.00  0.00    +0.000 HD
ATOM     26  H   UNL     1      45.544   2.037  10.011  0.00  0.00    +0.000 HD
ENDBRANCH  16  23
ENDBRANCH  15  20
ENDBRANCH   1  15
TORSDOF 5
ENDMDL
