MODEL 1
REMARK VINA RESULT:    -8.272      0.000      0.000
REMARK INTER + INTRA:         -11.263
REMARK INTER:                 -10.690
REMARK INTRA:                  -0.573
REMARK UNBOUND:                -0.573
REMARK  Name = 
REMARK  5 active torsions:
REMARK  status: ('A' for Active; 'I' for Inactive)
REMARK    1  A    between atoms: C_2  and  C_18
REMARK    2  A    between atoms: N_3  and  C_4
REMARK    3  A    between atoms: C_4  and  C_5
REMARK    4  A    between atoms: C_8  and  C_9
REMARK    5  A    between atoms: C_9  and  C_10
REMARK                            x       y       z     vdW  Elec       q    Type
REMARK                         _______ _______ _______ _____ _____    ______ ____
ROOT
ATOM      1  O   UNL     1      47.153   3.253  14.147  0.00  0.00    +0.000 OA
ATOM      2  C   UNL     1      46.918   4.442  14.325  0.00  0.00    +0.000 C 
ATOM      3  N   UNL     1      45.761   5.078  13.951  0.00  0.00    +0.000 N 
ATOM      4  H   UNL     1      45.547   5.944  14.422  0.00  0.00    +0.000 HD
ENDROOT
BRANCH   2   5
ATOM      5  C   UNL     1      47.709   5.300  15.190  0.00  0.00    +0.000 A 
ATOM      6  C   UNL     1      48.270   6.481  14.741  0.00  0.00    +0.000 A 
ATOM      7  S   UNL     1      49.674   6.871  15.648  0.00  0.00    +0.000 S 
ATOM      8  C   UNL     1      49.391   5.596  16.746  0.00  0.00    +0.000 A 
ATOM      9  N   UNL     1      50.288   5.241  17.705  0.00  0.00    +0.000 NA
ATOM     10  C   UNL     1      49.885   4.297  18.492  0.00  0.00    +0.000 A 
ATOM     11  N   UNL     1      48.651   3.700  18.438  0.00  0.00    +0.000 N 
ATOM     12  C   UNL     1      47.716   4.001  17.472  0.00  0.00    +0.000 A 
ATOM     13  O   UNL     1      46.612   3.474  17.447  0.00  0.00    +0.000 OA
ATOM     14  C   UNL     1      48.180   4.986  16.504  0.00  0.00    +0.000 A 
ATOM     15  H   UNL     1      48.359   3.028  19.139  0.00  0.00    +0.000 HD
ENDBRANCH   2   5
BRANCH   3  16
ATOM     16  C   UNL     1      44.603   4.367  13.491  0.00  0.00    +0.000 C 
BRANCH  16  17
ATOM     17  C   UNL     1      44.697   4.189  12.001  0.00  0.00    +0.000 A 
ATOM     18  C   UNL     1      44.202   3.032  11.383  0.00  0.00    +0.000 A 
ATOM     19  C   UNL     1      44.285   2.873   9.996  0.00  0.00    +0.000 A 
ATOM     20  C   UNL     1      44.865   3.870   9.195  0.00  0.00    +0.000 A 
ATOM     21  C   UNL     1      45.406   5.003   9.820  0.00  0.00    +0.000 A 
ATOM     22  C   UNL     1      45.332   5.159  11.206  0.00  0.00    +0.000 A 
BRANCH  20  23
ATOM     23  C   UNL     1      44.840   3.760   7.688  0.00  0.00    +0.000 C 
BRANCH  23  24
ATOM     24  C   UNL     1      46.044   3.042   7.150  0.00  0.00    +0.000 A 
ATOM     25  C   UNL     1      46.653   3.401   5.964  0.00  0.00    +0.000 A 
ATOM     26  N   UNL     1      47.668   2.716   5.401  0.00  0.00    +0.000 NA
ATOM     27  C   UNL     1      48.071   1.624   6.068  0.00  0.00    +0.000 A 
ATOM     28  N   UNL     1      47.586   1.193   7.241  0.00  0.00    +0.000 NA
ATOM     29  C   UNL     1      46.575   1.921   7.757  0.00  0.00    +0.000 A 
ENDBRANCH  23  24
ENDBRANCH  20  23
ENDBRANCH  16  17
ENDBRANCH   3  16
TORSDOF 5
ENDMDL
MODEL 2
REMARK VINA RESULT:    -7.773      2.699      4.125
REMARK INTER + INTRA:         -10.618
REMARK INTER:                  -9.804
REMARK INTRA:                  -0.814
REMARK UNBOUND:                -0.573
REMARK  Name = 
REMARK  5 active torsions:
REMARK  status: ('A' for Active; 'I' for Inactive)
REMARK    1  A    between atoms: C_2  and  C_18
REMARK    2  A    between atoms: N_3  and  C_4
REMARK    3  A    between atoms: C_4  and  C_5
REMARK    4  A    between atoms: C_8  and  C_9
REMARK    5  A    between atoms: C_9  and  C_10
REMARK                            x       y       z     vdW  Elec       q    Type
REMARK                         _______ _______ _______ _____ _____    ______ ____
ROOT
ATOM      1  O   UNL     1      48.597   5.402  15.695  0.00  0.00    +0.000 OA
ATOM      2  C   UNL     1      48.290   6.297  14.917  0.00  0.00    +0.000 C 
ATOM      3  N   UNL     1      47.243   6.243  14.032  0.00  0.00    +0.000 N 
ATOM      4  H   UNL     1      46.895   7.124  13.688  0.00  0.00    +0.000 HD
ENDROOT
BRANCH   2   5
ATOM      5  C   UNL     1      48.819   7.648  14.992  0.00  0.00    +0.000 A 
ATOM      6  C   UNL     1      49.012   8.297  16.197  0.00  0.00    +0.000 A 
ATOM      7  S   UNL     1      48.911   9.999  15.994  0.00  0.00    +0.000 S 
ATOM      8  C   UNL     1      48.830   9.851  14.296  0.00  0.00    +0.000 A 
ATOM      9  N   UNL     1      48.576  10.908  13.480  0.00  0.00    +0.000 NA
ATOM     10  C   UNL     1      48.615  10.632  12.217  0.00  0.00    +0.000 A 
ATOM     11  N   UNL     1      48.925   9.403  11.690  0.00  0.00    +0.000 N 
ATOM     12  C   UNL     1      49.161   8.292  12.470  0.00  0.00    +0.000 A 
ATOM     13  O   UNL     1      49.454   7.206  11.986  0.00  0.00    +0.000 OA
ATOM     14  C   UNL     1      49.021   8.547  13.897  0.00  0.00    +0.000 A 
ATOM     15  H   UNL     1      49.027   9.269  10.690  0.00  0.00    +0.000 HD
ENDBRANCH   2   5
BRANCH   3  16
ATOM     16  C   UNL     1      46.255   5.203  14.068  0.00  0.00    +0.000 C 
BRANCH  16  17
ATOM     17  C   UNL     1      45.805   4.907  12.665  0.00  0.00    +0.000 A 
ATOM     18  C   UNL     1      46.070   5.804  11.621  0.00  0.00    +0.000 A 
ATOM     19  C   UNL     1      45.656   5.523  10.315  0.00  0.00    +0.000 A 
ATOM     20  C   UNL     1      44.967   4.335  10.024  0.00  0.00    +0.000 A 
ATOM     21  C   UNL     1      44.656   3.463  11.078  0.00  0.00    +0.000 A 
ATOM     22  C   UNL     1      45.061   3.747  12.384  0.00  0.00    +0.000 A 
BRANCH  20  23
ATOM     23  C   UNL     1      44.632   3.967   8.597  0.00  0.00    +0.000 C 
BRANCH  23  24
ATOM     24  C   UNL     1      45.640   3.029   8.000  0.00  0.00    +0.000 A 
ATOM     25  C   UNL     1      45.715   1.696   8.353  0.00  0.00    +0.000 A 
ATOM     26  N   UNL     1      46.672   0.854   7.916  0.00  0.00    +0.000 NA
ATOM     27  C   UNL     1      47.586   1.390   7.094  0.00  0.00    +0.000 A 
ATOM     28  N   UNL     1      47.601   2.655   6.651  0.00  0.00    +0.000 NA
ATOM     29  C   UNL     1      46.618   3.450   7.120  0.00  0.00    +0.000 A 
ENDBRANCH  23  24
ENDBRANCH  20  23
ENDBRANCH  16  17
ENDBRANCH   3  16
TORSDOF 5
ENDMDL
MODEL 3
REMARK VINA RESULT:    -7.719      3.197      8.592
REMARK INTER + INTRA:         -10.549
REMARK INTER:                  -9.641
REMARK INTRA:                  -0.908
REMARK UNBOUND:                -0.573
REMARK  Name = 
REMARK  5 active torsions:
REMARK  status: ('A' for Active; 'I' for Inactive)
REMARK    1  A    between atoms: C_2  and  C_18
REMARK    2  A    between atoms: N_3  and  C_4
REMARK    3  A    between atoms: C_4  and  C_5
REMARK    4  A    between atoms: C_8  and  C_9
REMARK    5  A    between atoms: C_9  and  C_10
REMARK                            x       y       z     vdW  Elec       q    Type
REMARK                         _______ _______ _______ _____ _____    ______ ____
ROOT
ATOM      1  O   UNL     1      45.373   7.928  11.319  0.00  0.00    +0.000 OA
ATOM      2  C   UNL     1      45.572   6.721  11.370  0.00  0.00    +0.000 C 
ATOM      3  N   UNL     1      46.677   6.130  11.929  0.00  0.00    +0.000 N 
ATOM      4  H   UNL     1      46.586   5.162  12.199  0.00  0.00    +0.000 HD
ENDROOT
BRANCH   2   5
ATOM      5  C   UNL     1      44.556   5.722  11.083  0.00  0.00    +0.000 A 
ATOM      6  C   UNL     1      43.422   5.583  11.861  0.00  0.00    +0.000 A 
ATOM      7  S   UNL     1      42.828   3.973  11.787  0.00  0.00    +0.000 S 
ATOM      8  C   UNL     1      43.948   3.554  10.569  0.00  0.00    +0.000 A 
ATOM      9  N   UNL     1      44.112   2.276  10.134  0.00  0.00    +0.000 NA
ATOM     10  C   UNL     1      44.955   2.146   9.161  0.00  0.00    +0.000 A 
ATOM     11  N   UNL     1      45.621   3.180   8.554  0.00  0.00    +0.000 N 
ATOM     12  C   UNL     1      45.515   4.488   8.973  0.00  0.00    +0.000 A 
ATOM     13  O   UNL     1      46.101   5.403   8.410  0.00  0.00    +0.000 OA
ATOM     14  C   UNL     1      44.653   4.654  10.136  0.00  0.00    +0.000 A 
ATOM     15  H   UNL     1      46.202   3.026   7.737  0.00  0.00    +0.000 HD
ENDBRANCH   2   5
BRANCH   3  16
ATOM     16  C   UNL     1      47.631   6.863  12.711  0.00  0.00    +0.000 C 
BRANCH  16  17
ATOM     17  C   UNL     1      47.839   6.153  14.021  0.00  0.00    +0.000 A 
ATOM     18  C   UNL     1      47.158   4.962  14.308  0.00  0.00    +0.000 A 
ATOM     19  C   UNL     1      47.359   4.301  15.524  0.00  0.00    +0.000 A 
ATOM     20  C   UNL     1      48.247   4.818  16.481  0.00  0.00    +0.000 A 
ATOM     21  C   UNL     1      48.887   6.037  16.213  0.00  0.00    +0.000 A 
ATOM     22  C   UNL     1      48.681   6.703  15.003  0.00  0.00    +0.000 A 
BRANCH  20  23
ATOM     23  C   UNL     1      48.564   4.042  17.738  0.00  0.00    +0.000 C 
BRANCH  23  24
ATOM     24  C   UNL     1      49.851   3.278  17.626  0.00  0.00    +0.000 A 
ATOM     25  C   UNL     1      49.916   2.009  17.082  0.00  0.00    +0.000 A 
ATOM     26  N   UNL     1      51.032   1.255  17.061  0.00  0.00    +0.000 NA
ATOM     27  C   UNL     1      52.119   1.811  17.617  0.00  0.00    +0.000 A 
ATOM     28  N   UNL     1      52.193   3.043  18.142  0.00  0.00    +0.000 NA
ATOM     29  C   UNL     1      51.045   3.750  18.133  0.00  0.00    +0.000 A 
ENDBRANCH  23  24
ENDBRANCH  20  23
ENDBRANCH  16  17
ENDBRANCH   3  16
TORSDOF 5
ENDMDL
MODEL 4
REMARK VINA RESULT:    -7.651      2.078      3.290
REMARK INTER + INTRA:         -10.460
REMARK INTER:                  -9.616
REMARK INTRA:                  -0.844
REMARK UNBOUND:                -0.573
REMARK  Name = 
REMARK  5 active torsions:
REMARK  status: ('A' for Active; 'I' for Inactive)
REMARK    1  A    between atoms: C_2  and  C_18
REMARK    2  A    between atoms: N_3  and  C_4
REMARK    3  A    between atoms: C_4  and  C_5
REMARK    4  A    between atoms: C_8  and  C_9
REMARK    5  A    between atoms: C_9  and  C_10
REMARK                            x       y       z     vdW  Elec       q    Type
REMARK                         _______ _______ _______ _____ _____    ______ ____
ROOT
ATOM      1  O   UNL     1      48.669   8.268  16.606  0.00  0.00    +0.000 OA
ATOM      2  C   UNL     1      48.803   7.089  16.302  0.00  0.00    +0.000 C 
ATOM      3  N   UNL     1      48.433   6.542  15.099  0.00  0.00    +0.000 N 
ATOM      4  H   UNL     1      48.872   5.671  14.843  0.00  0.00    +0.000 HD
ENDROOT
BRANCH   2   5
ATOM      5  C   UNL     1      49.608   6.146  17.059  0.00  0.00    +0.000 A 
ATOM      6  C   UNL     1      50.840   6.487  17.584  0.00  0.00    +0.000 A 
ATOM      7  S   UNL     1      51.840   5.100  17.740  0.00  0.00    +0.000 S 
ATOM      8  C   UNL     1      50.558   4.056  17.315  0.00  0.00    +0.000 A 
ATOM      9  N   UNL     1      50.738   2.726  17.097  0.00  0.00    +0.000 NA
ATOM     10  C   UNL     1      49.651   2.072  16.849  0.00  0.00    +0.000 A 
ATOM     11  N   UNL     1      48.391   2.616  16.838  0.00  0.00    +0.000 N 
ATOM     12  C   UNL     1      48.154   3.960  17.023  0.00  0.00    +0.000 A 
ATOM     13  O   UNL     1      47.023   4.429  17.030  0.00  0.00    +0.000 OA
ATOM     14  C   UNL     1      49.370   4.742  17.201  0.00  0.00    +0.000 A 
ATOM     15  H   UNL     1      47.566   2.035  16.725  0.00  0.00    +0.000 HD
ENDBRANCH   2   5
BRANCH   3  16
ATOM     16  C   UNL     1      48.036   7.342  13.976  0.00  0.00    +0.000 C 
BRANCH  16  17
ATOM     17  C   UNL     1      46.995   6.598  13.188  0.00  0.00    +0.000 A 
ATOM     18  C   UNL     1      46.260   7.241  12.182  0.00  0.00    +0.000 A 
ATOM     19  C   UNL     1      45.296   6.544  11.446  0.00  0.00    +0.000 A 
ATOM     20  C   UNL     1      45.047   5.186  11.699  0.00  0.00    +0.000 A 
ATOM     21  C   UNL     1      45.747   4.558  12.740  0.00  0.00    +0.000 A 
ATOM     22  C   UNL     1      46.702   5.255  13.482  0.00  0.00    +0.000 A 
BRANCH  20  23
ATOM     23  C   UNL     1      44.102   4.398  10.822  0.00  0.00    +0.000 C 
BRANCH  23  24
ATOM     24  C   UNL     1      44.803   3.767   9.654  0.00  0.00    +0.000 A 
ATOM     25  C   UNL     1      45.027   2.406   9.569  0.00  0.00    +0.000 A 
ATOM     26  N   UNL     1      45.742   1.820   8.589  0.00  0.00    +0.000 NA
ATOM     27  C   UNL     1      46.251   2.650   7.666  0.00  0.00    +0.000 A 
ATOM     28  N   UNL     1      46.074   3.979   7.618  0.00  0.00    +0.000 NA
ATOM     29  C   UNL     1      45.348   4.507   8.624  0.00  0.00    +0.000 A 
ENDBRANCH  23  24
ENDBRANCH  20  23
ENDBRANCH  16  17
ENDBRANCH   3  16
TORSDOF 5
ENDMDL
MODEL 5
REMARK VINA RESULT:    -7.551      1.840      2.402
REMARK INTER + INTRA:         -10.331
REMARK INTER:                 -10.203
REMARK INTRA:                  -0.127
REMARK UNBOUND:                -0.573
REMARK  Name = 
REMARK  5 active torsions:
REMARK  status: ('A' for Active; 'I' for Inactive)
REMARK    1  A    between atoms: C_2  and  C_18
REMARK    2  A    between atoms: N_3  and  C_4
REMARK    3  A    between atoms: C_4  and  C_5
REMARK    4  A    between atoms: C_8  and  C_9
REMARK    5  A    between atoms: C_9  and  C_10
REMARK                            x       y       z     vdW  Elec       q    Type
REMARK                         _______ _______ _______ _____ _____    ______ ____
ROOT
ATOM      1  O   UNL     1      48.327   6.403  12.864  0.00  0.00    +0.000 OA
ATOM      2  C   UNL     1      47.510   6.162  13.745  0.00  0.00    +0.000 C 
ATOM      3  N   UNL     1      46.168   6.439  13.668  0.00  0.00    +0.000 N 
ATOM      4  H   UNL     1      45.562   5.921  14.286  0.00  0.00    +0.000 HD
ENDROOT
BRANCH   2   5
ATOM      5  C   UNL     1      47.786   5.314  14.891  0.00  0.00    +0.000 A 
ATOM      6  C   UNL     1      47.061   4.165  15.147  0.00  0.00    +0.000 A 
ATOM      7  S   UNL     1      47.064   3.805  16.826  0.00  0.00    +0.000 S 
ATOM      8  C   UNL     1      48.193   5.044  17.149  0.00  0.00    +0.000 A 
ATOM      9  N   UNL     1      48.538   5.409  18.413  0.00  0.00    +0.000 NA
ATOM     10  C   UNL     1      49.454   6.319  18.476  0.00  0.00    +0.000 A 
ATOM     11  N   UNL     1      50.090   6.872  17.393  0.00  0.00    +0.000 N 
ATOM     12  C   UNL     1      49.760   6.560  16.092  0.00  0.00    +0.000 A 
ATOM     13  O   UNL     1      50.348   7.047  15.135  0.00  0.00    +0.000 OA
ATOM     14  C   UNL     1      48.657   5.615  15.986  0.00  0.00    +0.000 A 
ATOM     15  H   UNL     1      50.864   7.517  17.508  0.00  0.00    +0.000 HD
ENDBRANCH   2   5
BRANCH   3  16
ATOM     16  C   UNL     1      45.535   6.856  12.450  0.00  0.00    +0.000 C 
BRANCH  16  17
ATOM     17  C   UNL     1      45.370   5.663  11.550  0.00  0.00    +0.000 A 
ATOM     18  C   UNL     1      45.629   5.759  10.176  0.00  0.00    +0.000 A 
ATOM     19  C   UNL     1      45.481   4.645   9.342  0.00  0.00    +0.000 A 
ATOM     20  C   UNL     1      45.072   3.409   9.867  0.00  0.00    +0.000 A 
ATOM     21  C   UNL     1      44.764   3.328  11.233  0.00  0.00    +0.000 A 
ATOM     22  C   UNL     1      44.902   4.441  12.065  0.00  0.00    +0.000 A 
BRANCH  20  23
ATOM     23  C   UNL     1      45.036   2.175   8.996  0.00  0.00    +0.000 C 
BRANCH  23  24
ATOM     24  C   UNL     1      46.046   2.232   7.886  0.00  0.00    +0.000 A 
ATOM     25  C   UNL     1      46.026   3.214   6.915  0.00  0.00    +0.000 A 
ATOM     26  N   UNL     1      46.850   3.236   5.849  0.00  0.00    +0.000 NA
ATOM     27  C   UNL     1      47.721   2.219   5.768  0.00  0.00    +0.000 A 
ATOM     28  N   UNL     1      47.863   1.230   6.662  0.00  0.00    +0.000 NA
ATOM     29  C   UNL     1      47.013   1.263   7.708  0.00  0.00    +0.000 A 
ENDBRANCH  23  24
ENDBRANCH  20  23
ENDBRANCH  16  17
ENDBRANCH   3  16
TORSDOF 5
ENDMDL
MODEL 6
REMARK VINA RESULT:    -7.510      3.231      4.786
REMARK INTER + INTRA:         -10.278
REMARK INTER:                  -8.945
REMARK INTRA:                  -1.334
REMARK UNBOUND:                -0.573
REMARK  Name = 
REMARK  5 active torsions:
REMARK  status: ('A' for Active; 'I' for Inactive)
REMARK    1  A    between atoms: C_2  and  C_18
REMARK    2  A    between atoms: N_3  and  C_4
REMARK    3  A    between atoms: C_4  and  C_5
REMARK    4  A    between atoms: C_8  and  C_9
REMARK    5  A    between atoms: C_9  and  C_10
REMARK                            x       y       z     vdW  Elec       q    Type
REMARK                         _______ _______ _______ _____ _____    ______ ____
ROOT
ATOM      1  O   UNL     1      51.035   6.558  15.539  0.00  0.00    +0.000 OA
ATOM      2  C   UNL     1      50.014   7.001  16.050  0.00  0.00    +0.000 C 
ATOM      3  N   UNL     1      49.200   7.949  15.483  0.00  0.00    +0.000 N 
ATOM      4  H   UNL     1      48.253   7.997  15.826  0.00  0.00    +0.000 HD
ENDROOT
BRANCH   2   5
ATOM      5  C   UNL     1      49.367   6.407  17.207  0.00  0.00    +0.000 A 
ATOM      6  C   UNL     1      49.688   6.776  18.500  0.00  0.00    +0.000 A 
ATOM      7  S   UNL     1      49.380   5.490  19.594  0.00  0.00    +0.000 S 
ATOM      8  C   UNL     1      48.632   4.556  18.377  0.00  0.00    +0.000 A 
ATOM      9  N   UNL     1      48.260   3.262  18.571  0.00  0.00    +0.000 NA
ATOM     10  C   UNL     1      47.649   2.724  17.567  0.00  0.00    +0.000 A 
ATOM     11  N   UNL     1      47.337   3.371  16.397  0.00  0.00    +0.000 N 
ATOM     12  C   UNL     1      47.714   4.670  16.137  0.00  0.00    +0.000 A 
ATOM     13  O   UNL     1      47.413   5.241  15.097  0.00  0.00    +0.000 OA
ATOM     14  C   UNL     1      48.497   5.271  17.208  0.00  0.00    +0.000 A 
ATOM     15  H   UNL     1      46.777   2.923  15.679  0.00  0.00    +0.000 HD
ENDBRANCH   2   5
BRANCH   3  16
ATOM     16  C   UNL     1      49.346   8.378  14.122  0.00  0.00    +0.000 C 
BRANCH  16  17
ATOM     17  C   UNL     1      48.104   8.014  13.358  0.00  0.00    +0.000 A 
ATOM     18  C   UNL     1      48.147   7.066  12.326  0.00  0.00    +0.000 A 
ATOM     19  C   UNL     1      46.988   6.725  11.621  0.00  0.00    +0.000 A 
ATOM     20  C   UNL     1      45.758   7.325  11.935  0.00  0.00    +0.000 A 
ATOM     21  C   UNL     1      45.727   8.311  12.932  0.00  0.00    +0.000 A 
ATOM     22  C   UNL     1      46.885   8.659  13.630  0.00  0.00    +0.000 A 
BRANCH  20  23
ATOM     23  C   UNL     1      44.483   6.867  11.266  0.00  0.00    +0.000 C 
BRANCH  23  24
ATOM     24  C   UNL     1      44.185   5.421  11.539  0.00  0.00    +0.000 A 
ATOM     25  C   UNL     1      43.869   4.526  10.535  0.00  0.00    +0.000 A 
ATOM     26  N   UNL     1      43.495   3.250  10.755  0.00  0.00    +0.000 NA
ATOM     27  C   UNL     1      43.437   2.875  12.042  0.00  0.00    +0.000 A 
ATOM     28  N   UNL     1      43.753   3.636  13.099  0.00  0.00    +0.000 NA
ATOM     29  C   UNL     1      44.122   4.902  12.817  0.00  0.00    +0.000 A 
ENDBRANCH  23  24
ENDBRANCH  20  23
ENDBRANCH  16  17
ENDBRANCH   3  16
TORSDOF 5
ENDMDL
MODEL 7
REMARK VINA RESULT:    -7.278      2.760      3.523
REMARK INTER + INTRA:          -9.978
REMARK INTER:                  -9.262
REMARK INTRA:                  -0.716
REMARK UNBOUND:                -0.573
REMARK  Name = 
REMARK  5 active torsions:
REMARK  status: ('A' for Active; 'I' for Inactive)
REMARK    1  A    between atoms: C_2  and  C_18
REMARK    2  A    between atoms: N_3  and  C_4
REMARK    3  A    between atoms: C_4  and  C_5
REMARK    4  A    between atoms: C_8  and  C_9
REMARK    5  A    between atoms: C_9  and  C_10
REMARK                            x       y       z     vdW  Elec       q    Type
REMARK                         _______ _______ _______ _____ _____    ______ ____
ROOT
ATOM      1  O   UNL     1      49.521   6.558  14.383  0.00  0.00    +0.000 OA
ATOM      2  C   UNL     1      48.529   7.277  14.373  0.00  0.00    +0.000 C 
ATOM      3  N   UNL     1      47.243   6.836  14.190  0.00  0.00    +0.000 N 
ATOM      4  H   UNL     1      46.506   7.443  14.515  0.00  0.00    +0.000 HD
ENDROOT
BRANCH   2   5
ATOM      5  C   UNL     1      48.531   8.662  14.811  0.00  0.00    +0.000 A 
ATOM      6  C   UNL     1      48.404   9.714  13.924  0.00  0.00    +0.000 A 
ATOM      7  S   UNL     1      49.156  11.127  14.544  0.00  0.00    +0.000 S 
ATOM      8  C   UNL     1      49.444  10.383  16.053  0.00  0.00    +0.000 A 
ATOM      9  N   UNL     1      50.195  10.965  17.026  0.00  0.00    +0.000 NA
ATOM     10  C   UNL     1      50.257  10.293  18.129  0.00  0.00    +0.000 A 
ATOM     11  N   UNL     1      49.604   9.109  18.367  0.00  0.00    +0.000 N 
ATOM     12  C   UNL     1      48.855   8.463  17.409  0.00  0.00    +0.000 A 
ATOM     13  O   UNL     1      48.262   7.417  17.641  0.00  0.00    +0.000 OA
ATOM     14  C   UNL     1      48.852   9.142  16.121  0.00  0.00    +0.000 A 
ATOM     15  H   UNL     1      49.619   8.673  19.283  0.00  0.00    +0.000 HD
ENDBRANCH   2   5
BRANCH   3  16
ATOM     16  C   UNL     1      46.895   5.444  14.199  0.00  0.00    +0.000 C 
BRANCH  16  17
ATOM     17  C   UNL     1      46.250   5.092  12.888  0.00  0.00    +0.000 A 
ATOM     18  C   UNL     1      46.265   5.994  11.815  0.00  0.00    +0.000 A 
ATOM     19  C   UNL     1      45.669   5.661  10.594  0.00  0.00    +0.000 A 
ATOM     20  C   UNL     1      45.046   4.415  10.419  0.00  0.00    +0.000 A 
ATOM     21  C   UNL     1      44.987   3.535  11.509  0.00  0.00    +0.000 A 
ATOM     22  C   UNL     1      45.573   3.870  12.732  0.00  0.00    +0.000 A 
BRANCH  20  23
ATOM     23  C   UNL     1      44.517   4.001   9.066  0.00  0.00    +0.000 C 
BRANCH  23  24
ATOM     24  C   UNL     1      45.462   3.088   8.340  0.00  0.00    +0.000 A 
ATOM     25  C   UNL     1      45.533   1.733   8.601  0.00  0.00    +0.000 A 
ATOM     26  N   UNL     1      46.440   0.906   8.045  0.00  0.00    +0.000 NA
ATOM     27  C   UNL     1      47.307   1.480   7.198  0.00  0.00    +0.000 A 
ATOM     28  N   UNL     1      47.318   2.771   6.836  0.00  0.00    +0.000 NA
ATOM     29  C   UNL     1      46.386   3.549   7.423  0.00  0.00    +0.000 A 
ENDBRANCH  23  24
ENDBRANCH  20  23
ENDBRANCH  16  17
ENDBRANCH   3  16
TORSDOF 5
ENDMDL
MODEL 8
REMARK VINA RESULT:    -7.089      3.649      9.645
REMARK INTER + INTRA:          -9.734
REMARK INTER:                  -8.860
REMARK INTRA:                  -0.875
REMARK UNBOUND:                -0.573
REMARK  Name = 
REMARK  5 active torsions:
REMARK  status: ('A' for Active; 'I' for Inactive)
REMARK    1  A    between atoms: C_2  and  C_18
REMARK    2  A    between atoms: N_3  and  C_4
REMARK    3  A    between atoms: C_4  and  C_5
REMARK    4  A    between atoms: C_8  and  C_9
REMARK    5  A    between atoms: C_9  and  C_10
REMARK                            x       y       z     vdW  Elec       q    Type
REMARK                         _______ _______ _______ _____ _____    ______ ____
ROOT
ATOM      1  O   UNL     1      47.385   2.991  14.407  0.00  0.00    +0.000 OA
ATOM      2  C   UNL     1      47.042   4.135  14.677  0.00  0.00    +0.000 C 
ATOM      3  N   UNL     1      46.859   4.621  15.948  0.00  0.00    +0.000 N 
ATOM      4  H   UNL     1      46.897   5.622  16.061  0.00  0.00    +0.000 HD
ENDROOT
BRANCH   2   5
ATOM      5  C   UNL     1      47.033   5.224  13.715  0.00  0.00    +0.000 A 
ATOM      6  C   UNL     1      47.884   6.308  13.822  0.00  0.00    +0.000 A 
ATOM      7  S   UNL     1      47.197   7.695  13.080  0.00  0.00    +0.000 S 
ATOM      8  C   UNL     1      45.896   6.787  12.450  0.00  0.00    +0.000 A 
ATOM      9  N   UNL     1      44.832   7.364  11.831  0.00  0.00    +0.000 NA
ATOM     10  C   UNL     1      43.969   6.526  11.356  0.00  0.00    +0.000 A 
ATOM     11  N   UNL     1      44.090   5.160  11.406  0.00  0.00    +0.000 N 
ATOM     12  C   UNL     1      45.131   4.524  12.045  0.00  0.00    +0.000 A 
ATOM     13  O   UNL     1      45.236   3.304  12.066  0.00  0.00    +0.000 OA
ATOM     14  C   UNL     1      46.066   5.441  12.683  0.00  0.00    +0.000 A 
ATOM     15  H   UNL     1      43.425   4.554  10.938  0.00  0.00    +0.000 HD
ENDBRANCH   2   5
BRANCH   3  16
ATOM     16  C   UNL     1      47.254   3.890  17.118  0.00  0.00    +0.000 C 
BRANCH  16  17
ATOM     17  C   UNL     1      48.750   3.956  17.254  0.00  0.00    +0.000 A 
ATOM     18  C   UNL     1      49.422   5.186  17.212  0.00  0.00    +0.000 A 
ATOM     19  C   UNL     1      50.813   5.244  17.345  0.00  0.00    +0.000 A 
ATOM     20  C   UNL     1      51.564   4.072  17.525  0.00  0.00    +0.000 A 
ATOM     21  C   UNL     1      50.896   2.838  17.515  0.00  0.00    +0.000 A 
ATOM     22  C   UNL     1      49.508   2.777  17.373  0.00  0.00    +0.000 A 
BRANCH  20  23
ATOM     23  C   UNL     1      53.048   4.140  17.799  0.00  0.00    +0.000 C 
BRANCH  23  24
ATOM     24  C   UNL     1      53.371   3.910  19.246  0.00  0.00    +0.000 A 
ATOM     25  C   UNL     1      54.135   2.841  19.675  0.00  0.00    +0.000 A 
ATOM     26  N   UNL     1      54.356   2.546  20.971  0.00  0.00    +0.000 NA
ATOM     27  C   UNL     1      53.775   3.366  21.861  0.00  0.00    +0.000 A 
ATOM     28  N   UNL     1      53.044   4.452  21.571  0.00  0.00    +0.000 NA
ATOM     29  C   UNL     1      52.859   4.697  20.258  0.00  0.00    +0.000 A 
ENDBRANCH  23  24
ENDBRANCH  20  23
ENDBRANCH  16  17
ENDBRANCH   3  16
TORSDOF 5
ENDMDL
MODEL 9
REMARK VINA RESULT:    -6.952      2.832      3.856
REMARK INTER + INTRA:          -9.557
REMARK INTER:                  -8.650
REMARK INTRA:                  -0.908
REMARK UNBOUND:                -0.573
REMARK  Name = 
REMARK  5 active torsions:
REMARK  status: ('A' for Active; 'I' for Inactive)
REMARK    1  A    between atoms: C_2  and  C_18
REMARK    2  A    between atoms: N_3  and  C_4
REMARK    3  A    between atoms: C_4  and  C_5
REMARK    4  A    between atoms: C_8  and  C_9
REMARK    5  A    between atoms: C_9  and  C_10
REMARK                            x       y       z     vdW  Elec       q    Type
REMARK                         _______ _______ _______ _____ _____    ______ ____
ROOT
ATOM      1  O   UNL     1      49.072  10.178  14.887  0.00  0.00    +0.000 OA
ATOM      2  C   UNL     1      48.260   9.376  15.333  0.00  0.00    +0.000 C 
ATOM      3  N   UNL     1      47.322   8.711  14.585  0.00  0.00    +0.000 N 
ATOM      4  H   UNL     1      46.942   7.866  14.982  0.00  0.00    +0.000 HD
ENDROOT
BRANCH   2   5
ATOM      5  C   UNL     1      48.334   8.810  16.669  0.00  0.00    +0.000 A 
ATOM      6  C   UNL     1      47.842   9.473  17.777  0.00  0.00    +0.000 A 
ATOM      7  S   UNL     1      48.680   8.992  19.196  0.00  0.00    +0.000 S 
ATOM      8  C   UNL     1      49.522   7.769  18.354  0.00  0.00    +0.000 A 
ATOM      9  N   UNL     1      50.532   7.054  18.918  0.00  0.00    +0.000 NA
ATOM     10  C   UNL     1      51.016   6.123  18.162  0.00  0.00    +0.000 A 
ATOM     11  N   UNL     1      50.559   5.812  16.906  0.00  0.00    +0.000 N 
ATOM     12  C   UNL     1      49.560   6.522  16.277  0.00  0.00    +0.000 A 
ATOM     13  O   UNL     1      49.149   6.221  15.164  0.00  0.00    +0.000 OA
ATOM     14  C   UNL     1      49.065   7.644  17.061  0.00  0.00    +0.000 A 
ATOM     15  H   UNL     1      50.920   5.013  16.396  0.00  0.00    +0.000 HD
ENDBRANCH   2   5
BRANCH   3  16
ATOM     16  C   UNL     1      47.327   8.725  13.150  0.00  0.00    +0.000 C 
BRANCH  16  17
ATOM     17  C   UNL     1      46.478   7.592  12.645  0.00  0.00    +0.000 A 
ATOM     18  C   UNL     1      45.268   7.841  11.982  0.00  0.00    +0.000 A 
ATOM     19  C   UNL     1      44.483   6.785  11.508  0.00  0.00    +0.000 A 
ATOM     20  C   UNL     1      44.893   5.454  11.686  0.00  0.00    +0.000 A 
ATOM     21  C   UNL     1      46.076   5.206  12.396  0.00  0.00    +0.000 A 
ATOM     22  C   UNL     1      46.857   6.259  12.878  0.00  0.00    +0.000 A 
BRANCH  20  23
ATOM     23  C   UNL     1      44.115   4.318  11.064  0.00  0.00    +0.000 C 
BRANCH  23  24
ATOM     24  C   UNL     1      44.777   3.787   9.826  0.00  0.00    +0.000 A 
ATOM     25  C   UNL     1      44.950   2.435   9.599  0.00  0.00    +0.000 A 
ATOM     26  N   UNL     1      45.631   1.929   8.552  0.00  0.00    +0.000 NA
ATOM     27  C   UNL     1      46.156   2.831   7.710  0.00  0.00    +0.000 A 
ATOM     28  N   UNL     1      46.027   4.163   7.801  0.00  0.00    +0.000 NA
ATOM     29  C   UNL     1      45.334   4.610   8.868  0.00  0.00    +0.000 A 
ENDBRANCH  23  24
ENDBRANCH  20  23
ENDBRANCH  16  17
ENDBRANCH   3  16
TORSDOF 5
ENDMDL
