MODEL 1
REMARK VINA RESULT:    -7.926      0.000      0.000
REMARK INTER + INTRA:         -12.035
REMARK INTER:                 -10.706
REMARK INTRA:                  -1.329
REMARK UNBOUND:                -1.329
REMARK  Name = 
REMARK  8 active torsions:
REMARK  status: ('A' for Active; 'I' for Inactive)
REMARK    1  A    between atoms: C_1  and  C_2
REMARK    2  A    between atoms: C_6  and  C_7
REMARK    3  A    between atoms: C_7  and  N_8
REMARK    4  A    between atoms: N_8  and  C_9
REMARK    5  A    between atoms: C_12  and  C_13
REMARK    6  A    between atoms: C_13  and  N_14
REMARK    7  A    between atoms: C_15  and  C_17
REMARK    8  A    between atoms: C_29  and  C_30
REMARK                            x       y       z     vdW  Elec       q    Type
REMARK                         _______ _______ _______ _____ _____    ______ ____
ROOT
ATOM      1  C   UNL     1      45.652   5.279  11.187  0.00  0.00    +0.000 A 
ATOM      2  C   UNL     1      46.532   6.162  11.828  0.00  0.00    +0.000 A 
ATOM      3  C   UNL     1      47.086   5.857  13.083  0.00  0.00    +0.000 A 
ATOM      4  C   UNL     1      46.748   4.669  13.739  0.00  0.00    +0.000 A 
ATOM      5  C   UNL     1      45.789   3.838  13.154  0.00  0.00    +0.000 A 
ATOM      6  C   UNL     1      45.245   4.149  11.906  0.00  0.00    +0.000 A 
ENDROOT
BRANCH   1   7
ATOM      7  N   UNL     1      45.113   5.615   9.932  0.00  0.00    +0.000 N 
ATOM      8  H   UNL     1      45.772   6.125   9.354  0.00  0.00    +0.000 HD
BRANCH   7   9
ATOM      9  C   UNL     1      44.467   4.534   9.184  0.00  0.00    +0.000 C 
BRANCH   9  15
ATOM     10  C   UNL     1      46.667   0.151   7.693  0.00  0.00    +0.000 C 
ATOM     11  C   UNL     1      46.555   1.654   7.688  0.00  0.00    +0.000 A 
ATOM     12  C   UNL     1      47.482   2.396   6.942  0.00  0.00    +0.000 A 
ATOM     13  C   UNL     1      47.411   3.784   6.901  0.00  0.00    +0.000 A 
ATOM     14  C   UNL     1      46.407   4.447   7.601  0.00  0.00    +0.000 A 
ATOM     15  C   UNL     1      45.465   3.737   8.369  0.00  0.00    +0.000 A 
ATOM     16  C   UNL     1      45.547   2.323   8.427  0.00  0.00    +0.000 A 
ATOM     17  C   UNL     1      44.597   1.507   9.271  0.00  0.00    +0.000 C 
ENDBRANCH   9  15
ENDBRANCH   7   9
ENDBRANCH   1   7
BRANCH   4  18
ATOM     18  C   UNL     1      47.369   4.276  15.050  0.00  0.00    +0.000 C 
BRANCH  18  19
ATOM     19  N   UNL     1      47.446   5.381  15.970  0.00  0.00    +0.000 N 
ATOM     20  C   UNL     1      48.590   5.593  16.697  0.00  0.00    +0.000 C 
ATOM     21  O   UNL     1      49.587   4.887  16.555  0.00  0.00    +0.000 OA
ATOM     22  H   UNL     1      46.574   5.812  16.264  0.00  0.00    +0.000 HD
BRANCH  20  23
ATOM     23  C   UNL     1      48.595   6.738  17.613  0.00  0.00    +0.000 A 
ATOM     24  C   UNL     1      48.684   6.517  18.982  0.00  0.00    +0.000 A 
ATOM     25  S   UNL     1      48.710   7.947  19.908  0.00  0.00    +0.000 S 
ATOM     26  C   UNL     1      48.553   8.913  18.515  0.00  0.00    +0.000 A 
ATOM     27  N   UNL     1      48.479  10.268  18.611  0.00  0.00    +0.000 NA
ATOM     28  C   UNL     1      48.334  10.874  17.481  0.00  0.00    +0.000 A 
ATOM     29  N   UNL     1      48.264  10.248  16.263  0.00  0.00    +0.000 N 
ATOM     30  C   UNL     1      48.363   8.884  16.115  0.00  0.00    +0.000 A 
ATOM     31  O   UNL     1      48.338   8.358  15.007  0.00  0.00    +0.000 OA
ATOM     32  C   UNL     1      48.510   8.153  17.357  0.00  0.00    +0.000 A 
ATOM     33  H   UNL     1      48.165  10.785  15.413  0.00  0.00    +0.000 HD
ENDBRANCH  20  23
ENDBRANCH  18  19
ENDBRANCH   4  18
TORSDOF 6
ENDMDL
MODEL 2
REMARK VINA RESULT:    -7.755      1.590      2.860
REMARK INTER + INTRA:         -11.805
REMARK INTER:                 -11.037
REMARK INTRA:                  -0.768
REMARK UNBOUND:                -1.329
REMARK  Name = 
REMARK  8 active torsions:
REMARK  status: ('A' for Active; 'I' for Inactive)
REMARK    1  A    between atoms: C_1  and  C_2
REMARK    2  A    between atoms: C_6  and  C_7
REMARK    3  A    between atoms: C_7  and  N_8
REMARK    4  A    between atoms: N_8  and  C_9
REMARK    5  A    between atoms: C_12  and  C_13
REMARK    6  A    between atoms: C_13  and  N_14
REMARK    7  A    between atoms: C_15  and  C_17
REMARK    8  A    between atoms: C_29  and  C_30
REMARK                            x       y       z     vdW  Elec       q    Type
REMARK                         _______ _______ _______ _____ _____    ______ ____
ROOT
ATOM      1  C   UNL     1      45.350   4.825  11.319  0.00  0.00    +0.000 A 
ATOM      2  C   UNL     1      45.716   6.108  10.891  0.00  0.00    +0.000 A 
ATOM      3  C   UNL     1      46.649   6.877  11.608  0.00  0.00    +0.000 A 
ATOM      4  C   UNL     1      47.217   6.386  12.788  0.00  0.00    +0.000 A 
ATOM      5  C   UNL     1      46.774   5.154  13.275  0.00  0.00    +0.000 A 
ATOM      6  C   UNL     1      45.848   4.397  12.556  0.00  0.00    +0.000 A 
ENDROOT
BRANCH   1   7
ATOM      7  N   UNL     1      44.412   4.081  10.580  0.00  0.00    +0.000 N 
ATOM      8  H   UNL     1      43.495   4.079  11.014  0.00  0.00    +0.000 HD
BRANCH   7   9
ATOM      9  C   UNL     1      44.326   4.370   9.147  0.00  0.00    +0.000 C 
BRANCH   9  15
ATOM     10  C   UNL     1      46.734   0.097   7.656  0.00  0.00    +0.000 C 
ATOM     11  C   UNL     1      46.570   1.595   7.678  0.00  0.00    +0.000 A 
ATOM     12  C   UNL     1      47.499   2.384   6.983  0.00  0.00    +0.000 A 
ATOM     13  C   UNL     1      47.382   3.770   6.968  0.00  0.00    +0.000 A 
ATOM     14  C   UNL     1      46.329   4.383   7.641  0.00  0.00    +0.000 A 
ATOM     15  C   UNL     1      45.383   3.624   8.356  0.00  0.00    +0.000 A 
ATOM     16  C   UNL     1      45.511   2.214   8.389  0.00  0.00    +0.000 A 
ATOM     17  C   UNL     1      44.558   1.347   9.178  0.00  0.00    +0.000 C 
ENDBRANCH   9  15
ENDBRANCH   7   9
ENDBRANCH   1   7
BRANCH   4  18
ATOM     18  C   UNL     1      48.265   7.150  13.548  0.00  0.00    +0.000 C 
BRANCH  18  19
ATOM     19  N   UNL     1      48.045   7.114  14.970  0.00  0.00    +0.000 N 
ATOM     20  C   UNL     1      49.084   6.833  15.821  0.00  0.00    +0.000 C 
ATOM     21  O   UNL     1      50.227   6.653  15.408  0.00  0.00    +0.000 OA
ATOM     22  H   UNL     1      47.087   7.026  15.296  0.00  0.00    +0.000 HD
BRANCH  20  23
ATOM     23  C   UNL     1      48.783   6.814  17.256  0.00  0.00    +0.000 A 
ATOM     24  C   UNL     1      48.429   7.996  17.895  0.00  0.00    +0.000 A 
ATOM     25  S   UNL     1      48.080   7.802  19.551  0.00  0.00    +0.000 S 
ATOM     26  C   UNL     1      48.438   6.140  19.486  0.00  0.00    +0.000 A 
ATOM     27  N   UNL     1      48.367   5.367  20.603  0.00  0.00    +0.000 NA
ATOM     28  C   UNL     1      48.691   4.131  20.416  0.00  0.00    +0.000 A 
ATOM     29  N   UNL     1      49.071   3.597  19.212  0.00  0.00    +0.000 N 
ATOM     30  C   UNL     1      49.129   4.333  18.051  0.00  0.00    +0.000 A 
ATOM     31  O   UNL     1      49.433   3.816  16.982  0.00  0.00    +0.000 OA
ATOM     32  C   UNL     1      48.792   5.733  18.209  0.00  0.00    +0.000 A 
ATOM     33  H   UNL     1      49.298   2.616  19.132  0.00  0.00    +0.000 HD
ENDBRANCH  20  23
ENDBRANCH  18  19
ENDBRANCH   4  18
TORSDOF 6
ENDMDL
MODEL 3
REMARK VINA RESULT:    -7.653      1.616      2.378
REMARK INTER + INTRA:         -11.666
REMARK INTER:                 -10.717
REMARK INTRA:                  -0.949
REMARK UNBOUND:                -1.329
REMARK  Name = 
REMARK  8 active torsions:
REMARK  status: ('A' for Active; 'I' for Inactive)
REMARK    1  A    between atoms: C_1  and  C_2
REMARK    2  A    between atoms: C_6  and  C_7
REMARK    3  A    between atoms: C_7  and  N_8
REMARK    4  A    between atoms: N_8  and  C_9
REMARK    5  A    between atoms: C_12  and  C_13
REMARK    6  A    between atoms: C_13  and  N_14
REMARK    7  A    between atoms: C_15  and  C_17
REMARK    8  A    between atoms: C_29  and  C_30
REMARK                            x       y       z     vdW  Elec       q    Type
REMARK                         _______ _______ _______ _____ _____    ______ ____
ROOT
ATOM      1  C   UNL     1      45.485   5.077  11.123  0.00  0.00    +0.000 A 
ATOM      2  C   UNL     1      46.088   6.040  11.944  0.00  0.00    +0.000 A 
ATOM      3  C   UNL     1      46.588   5.705  13.214  0.00  0.00    +0.000 A 
ATOM      4  C   UNL     1      46.473   4.399  13.702  0.00  0.00    +0.000 A 
ATOM      5  C   UNL     1      45.778   3.463  12.932  0.00  0.00    +0.000 A 
ATOM      6  C   UNL     1      45.284   3.805  11.672  0.00  0.00    +0.000 A 
ENDROOT
BRANCH   1   7
ATOM      7  N   UNL     1      44.992   5.444   9.859  0.00  0.00    +0.000 N 
ATOM      8  H   UNL     1      45.661   5.992   9.329  0.00  0.00    +0.000 HD
BRANCH   7   9
ATOM      9  C   UNL     1      44.409   4.376   9.044  0.00  0.00    +0.000 C 
BRANCH   9  15
ATOM     10  C   UNL     1      46.775   0.042   7.666  0.00  0.00    +0.000 C 
ATOM     11  C   UNL     1      46.636   1.542   7.662  0.00  0.00    +0.000 A 
ATOM     12  C   UNL     1      47.592   2.306   6.976  0.00  0.00    +0.000 A 
ATOM     13  C   UNL     1      47.498   3.693   6.938  0.00  0.00    +0.000 A 
ATOM     14  C   UNL     1      46.442   4.334   7.580  0.00  0.00    +0.000 A 
ATOM     15  C   UNL     1      45.469   3.601   8.286  0.00  0.00    +0.000 A 
ATOM     16  C   UNL     1      45.573   2.189   8.342  0.00  0.00    +0.000 A 
ATOM     17  C   UNL     1      44.590   1.350   9.124  0.00  0.00    +0.000 C 
ENDBRANCH   9  15
ENDBRANCH   7   9
ENDBRANCH   1   7
BRANCH   4  18
ATOM     18  C   UNL     1      47.053   3.987  15.026  0.00  0.00    +0.000 C 
BRANCH  18  19
ATOM     19  N   UNL     1      47.344   5.117  15.870  0.00  0.00    +0.000 N 
ATOM     20  C   UNL     1      48.456   5.106  16.675  0.00  0.00    +0.000 C 
ATOM     21  O   UNL     1      49.252   4.170  16.667  0.00  0.00    +0.000 OA
ATOM     22  H   UNL     1      46.591   5.771  16.059  0.00  0.00    +0.000 HD
BRANCH  20  23
ATOM     23  C   UNL     1      48.687   6.292  17.506  0.00  0.00    +0.000 A 
ATOM     24  C   UNL     1      48.841   7.532  16.899  0.00  0.00    +0.000 A 
ATOM     25  S   UNL     1      49.070   8.812  18.001  0.00  0.00    +0.000 S 
ATOM     26  C   UNL     1      49.021   7.747  19.328  0.00  0.00    +0.000 A 
ATOM     27  N   UNL     1      49.190   8.207  20.596  0.00  0.00    +0.000 NA
ATOM     28  C   UNL     1      49.158   7.289  21.503  0.00  0.00    +0.000 A 
ATOM     29  N   UNL     1      48.964   5.954  21.256  0.00  0.00    +0.000 N 
ATOM     30  C   UNL     1      48.761   5.447  19.994  0.00  0.00    +0.000 A 
ATOM     31  O   UNL     1      48.549   4.253  19.811  0.00  0.00    +0.000 OA
ATOM     32  C   UNL     1      48.805   6.435  18.935  0.00  0.00    +0.000 A 
ATOM     33  H   UNL     1      48.935   5.288  22.016  0.00  0.00    +0.000 HD
ENDBRANCH  20  23
ENDBRANCH  18  19
ENDBRANCH   4  18
TORSDOF 6
ENDMDL
MODEL 4
REMARK VINA RESULT:    -7.621      1.561      2.055
REMARK INTER + INTRA:         -11.623
REMARK INTER:                 -10.849
REMARK INTRA:                  -0.774
REMARK UNBOUND:                -1.329
REMARK  Name = 
REMARK  8 active torsions:
REMARK  status: ('A' for Active; 'I' for Inactive)
REMARK    1  A    between atoms: C_1  and  C_2
REMARK    2  A    between atoms: C_6  and  C_7
REMARK    3  A    between atoms: C_7  and  N_8
REMARK    4  A    between atoms: N_8  and  C_9
REMARK    5  A    between atoms: C_12  and  C_13
REMARK    6  A    between atoms: C_13  and  N_14
REMARK    7  A    between atoms: C_15  and  C_17
REMARK    8  A    between atoms: C_29  and  C_30
REMARK                            x       y       z     vdW  Elec       q    Type
REMARK                         _______ _______ _______ _____ _____    ______ ____
ROOT
ATOM      1  C   UNL     1      45.247   4.732  11.338  0.00  0.00    +0.000 A 
ATOM      2  C   UNL     1      45.706   6.005  10.974  0.00  0.00    +0.000 A 
ATOM      3  C   UNL     1      46.617   6.709  11.780  0.00  0.00    +0.000 A 
ATOM      4  C   UNL     1      47.069   6.163  12.986  0.00  0.00    +0.000 A 
ATOM      5  C   UNL     1      46.532   4.943  13.404  0.00  0.00    +0.000 A 
ATOM      6  C   UNL     1      45.628   4.251  12.596  0.00  0.00    +0.000 A 
ENDROOT
BRANCH   1   7
ATOM      7  N   UNL     1      44.333   4.054  10.511  0.00  0.00    +0.000 N 
ATOM      8  H   UNL     1      43.393   4.060  10.891  0.00  0.00    +0.000 HD
BRANCH   7   9
ATOM      9  C   UNL     1      44.341   4.412   9.091  0.00  0.00    +0.000 C 
BRANCH   9  15
ATOM     10  C   UNL     1      46.708   0.089   7.682  0.00  0.00    +0.000 C 
ATOM     11  C   UNL     1      46.563   1.589   7.680  0.00  0.00    +0.000 A 
ATOM     12  C   UNL     1      47.507   2.357   6.983  0.00  0.00    +0.000 A 
ATOM     13  C   UNL     1      47.407   3.743   6.947  0.00  0.00    +0.000 A 
ATOM     14  C   UNL     1      46.356   4.379   7.602  0.00  0.00    +0.000 A 
ATOM     15  C   UNL     1      45.395   3.642   8.320  0.00  0.00    +0.000 A 
ATOM     16  C   UNL     1      45.506   2.231   8.374  0.00  0.00    +0.000 A 
ATOM     17  C   UNL     1      44.536   1.387   9.167  0.00  0.00    +0.000 C 
ENDBRANCH   9  15
ENDBRANCH   7   9
ENDBRANCH   1   7
BRANCH   4  18
ATOM     18  C   UNL     1      48.093   6.855  13.842  0.00  0.00    +0.000 C 
BRANCH  18  19
ATOM     19  N   UNL     1      47.932   6.549  15.240  0.00  0.00    +0.000 N 
ATOM     20  C   UNL     1      49.034   6.326  16.026  0.00  0.00    +0.000 C 
ATOM     21  O   UNL     1      50.176   6.426  15.584  0.00  0.00    +0.000 OA
ATOM     22  H   UNL     1      47.018   6.236  15.552  0.00  0.00    +0.000 HD
BRANCH  20  23
ATOM     23  C   UNL     1      48.793   6.020  17.440  0.00  0.00    +0.000 A 
ATOM     24  C   UNL     1      49.028   4.734  17.910  0.00  0.00    +0.000 A 
ATOM     25  S   UNL     1      48.731   4.548  19.578  0.00  0.00    +0.000 S 
ATOM     26  C   UNL     1      48.229   6.168  19.722  0.00  0.00    +0.000 A 
ATOM     27  N   UNL     1      47.801   6.661  20.915  0.00  0.00    +0.000 NA
ATOM     28  C   UNL     1      47.424   7.896  20.875  0.00  0.00    +0.000 A 
ATOM     29  N   UNL     1      47.444   8.682  19.753  0.00  0.00    +0.000 N 
ATOM     30  C   UNL     1      47.895   8.235  18.533  0.00  0.00    +0.000 A 
ATOM     31  O   UNL     1      47.939   8.977  17.557  0.00  0.00    +0.000 OA
ATOM     32  C   UNL     1      48.315   6.849  18.517  0.00  0.00    +0.000 A 
ATOM     33  H   UNL     1      47.148   9.648  19.795  0.00  0.00    +0.000 HD
ENDBRANCH  20  23
ENDBRANCH  18  19
ENDBRANCH   4  18
TORSDOF 6
ENDMDL
MODEL 5
REMARK VINA RESULT:    -7.159      3.219      8.879
REMARK INTER + INTRA:         -10.999
REMARK INTER:                  -9.565
REMARK INTRA:                  -1.434
REMARK UNBOUND:                -1.329
REMARK  Name = 
REMARK  8 active torsions:
REMARK  status: ('A' for Active; 'I' for Inactive)
REMARK    1  A    between atoms: C_1  and  C_2
REMARK    2  A    between atoms: C_6  and  C_7
REMARK    3  A    between atoms: C_7  and  N_8
REMARK    4  A    between atoms: N_8  and  C_9
REMARK    5  A    between atoms: C_12  and  C_13
REMARK    6  A    between atoms: C_13  and  N_14
REMARK    7  A    between atoms: C_15  and  C_17
REMARK    8  A    between atoms: C_29  and  C_30
REMARK                            x       y       z     vdW  Elec       q    Type
REMARK                         _______ _______ _______ _____ _____    ______ ____
ROOT
ATOM      1  C   UNL     1      49.431   7.906  15.962  0.00  0.00    +0.000 A 
ATOM      2  C   UNL     1      48.331   8.730  15.690  0.00  0.00    +0.000 A 
ATOM      3  C   UNL     1      47.731   8.750  14.419  0.00  0.00    +0.000 A 
ATOM      4  C   UNL     1      48.239   7.961  13.381  0.00  0.00    +0.000 A 
ATOM      5  C   UNL     1      49.399   7.221  13.618  0.00  0.00    +0.000 A 
ATOM      6  C   UNL     1      49.988   7.207  14.884  0.00  0.00    +0.000 A 
ENDROOT
BRANCH   1   7
ATOM      7  N   UNL     1      50.011   7.911  17.243  0.00  0.00    +0.000 N 
ATOM      8  H   UNL     1      50.277   8.843  17.541  0.00  0.00    +0.000 HD
BRANCH   7   9
ATOM      9  C   UNL     1      49.284   7.199  18.297  0.00  0.00    +0.000 C 
BRANCH   9  15
ATOM     10  C   UNL     1      50.899   2.422  17.374  0.00  0.00    +0.000 C 
ATOM     11  C   UNL     1      49.821   3.472  17.449  0.00  0.00    +0.000 A 
ATOM     12  C   UNL     1      48.511   3.119  17.092  0.00  0.00    +0.000 A 
ATOM     13  C   UNL     1      47.483   4.053  17.154  0.00  0.00    +0.000 A 
ATOM     14  C   UNL     1      47.750   5.350  17.582  0.00  0.00    +0.000 A 
ATOM     15  C   UNL     1      49.054   5.743  17.940  0.00  0.00    +0.000 A 
ATOM     16  C   UNL     1      50.107   4.799  17.858  0.00  0.00    +0.000 A 
ATOM     17  C   UNL     1      51.535   5.171  18.180  0.00  0.00    +0.000 C 
ENDBRANCH   9  15
ENDBRANCH   7   9
ENDBRANCH   1   7
BRANCH   4  18
ATOM     18  C   UNL     1      47.586   7.905  12.029  0.00  0.00    +0.000 C 
BRANCH  18  19
ATOM     19  N   UNL     1      46.917   6.651  11.797  0.00  0.00    +0.000 N 
ATOM     20  C   UNL     1      45.547   6.582  11.847  0.00  0.00    +0.000 C 
ATOM     21  O   UNL     1      44.856   7.580  12.039  0.00  0.00    +0.000 OA
ATOM     22  H   UNL     1      47.468   5.801  11.874  0.00  0.00    +0.000 HD
BRANCH  20  23
ATOM     23  C   UNL     1      44.937   5.272  11.600  0.00  0.00    +0.000 A 
ATOM     24  C   UNL     1      44.230   4.645  12.619  0.00  0.00    +0.000 A 
ATOM     25  S   UNL     1      43.556   3.147  12.165  0.00  0.00    +0.000 S 
ATOM     26  C   UNL     1      44.227   3.258  10.605  0.00  0.00    +0.000 A 
ATOM     27  N   UNL     1      44.052   2.260   9.698  0.00  0.00    +0.000 NA
ATOM     28  C   UNL     1      44.636   2.462   8.565  0.00  0.00    +0.000 A 
ATOM     29  N   UNL     1      45.375   3.575   8.255  0.00  0.00    +0.000 N 
ATOM     30  C   UNL     1      45.555   4.622   9.130  0.00  0.00    +0.000 A 
ATOM     31  O   UNL     1      46.187   5.622   8.807  0.00  0.00    +0.000 OA
ATOM     32  C   UNL     1      44.932   4.438  10.425  0.00  0.00    +0.000 A 
ATOM     33  H   UNL     1      45.795   3.677   7.342  0.00  0.00    +0.000 HD
ENDBRANCH  20  23
ENDBRANCH  18  19
ENDBRANCH   4  18
TORSDOF 6
ENDMDL
MODEL 6
REMARK VINA RESULT:    -6.952      4.103     10.110
REMARK INTER + INTRA:         -10.720
REMARK INTER:                  -9.593
REMARK INTRA:                  -1.127
REMARK UNBOUND:                -1.329
REMARK  Name = 
REMARK  8 active torsions:
REMARK  status: ('A' for Active; 'I' for Inactive)
REMARK    1  A    between atoms: C_1  and  C_2
REMARK    2  A    between atoms: C_6  and  C_7
REMARK    3  A    between atoms: C_7  and  N_8
REMARK    4  A    between atoms: N_8  and  C_9
REMARK    5  A    between atoms: C_12  and  C_13
REMARK    6  A    between atoms: C_13  and  N_14
REMARK    7  A    between atoms: C_15  and  C_17
REMARK    8  A    between atoms: C_29  and  C_30
REMARK                            x       y       z     vdW  Elec       q    Type
REMARK                         _______ _______ _______ _____ _____    ______ ____
ROOT
ATOM      1  C   UNL     1      48.748   5.416  20.230  0.00  0.00    +0.000 A 
ATOM      2  C   UNL     1      47.493   5.670  19.662  0.00  0.00    +0.000 A 
ATOM      3  C   UNL     1      47.148   5.163  18.398  0.00  0.00    +0.000 A 
ATOM      4  C   UNL     1      48.066   4.409  17.660  0.00  0.00    +0.000 A 
ATOM      5  C   UNL     1      49.354   4.244  18.175  0.00  0.00    +0.000 A 
ATOM      6  C   UNL     1      49.688   4.751  19.432  0.00  0.00    +0.000 A 
ENDROOT
BRANCH   1   7
ATOM      7  N   UNL     1      49.064   5.940  21.496  0.00  0.00    +0.000 N 
ATOM      8  H   UNL     1      49.659   5.318  22.033  0.00  0.00    +0.000 HD
BRANCH   7   9
ATOM      9  C   UNL     1      49.558   7.319  21.533  0.00  0.00    +0.000 C 
BRANCH   9  15
ATOM     10  C   UNL     1      47.359  10.955  18.666  0.00  0.00    +0.000 C 
ATOM     11  C   UNL     1      47.427  10.092  19.899  0.00  0.00    +0.000 A 
ATOM     12  C   UNL     1      46.456  10.263  20.897  0.00  0.00    +0.000 A 
ATOM     13  C   UNL     1      46.475   9.482  22.047  0.00  0.00    +0.000 A 
ATOM     14  C   UNL     1      47.462   8.514  22.211  0.00  0.00    +0.000 A 
ATOM     15  C   UNL     1      48.459   8.320  21.236  0.00  0.00    +0.000 A 
ATOM     16  C   UNL     1      48.453   9.127  20.072  0.00  0.00    +0.000 A 
ATOM     17  C   UNL     1      49.521   9.002  19.012  0.00  0.00    +0.000 C 
ENDBRANCH   9  15
ENDBRANCH   7   9
ENDBRANCH   1   7
BRANCH   4  18
ATOM     18  C   UNL     1      47.713   3.794  16.335  0.00  0.00    +0.000 C 
BRANCH  18  19
ATOM     19  N   UNL     1      46.992   4.706  15.485  0.00  0.00    +0.000 N 
ATOM     20  C   UNL     1      46.866   4.443  14.144  0.00  0.00    +0.000 C 
ATOM     21  O   UNL     1      47.314   3.415  13.641  0.00  0.00    +0.000 OA
ATOM     22  H   UNL     1      46.831   5.647  15.832  0.00  0.00    +0.000 HD
BRANCH  20  23
ATOM     23  C   UNL     1      46.118   5.417  13.342  0.00  0.00    +0.000 A 
ATOM     24  C   UNL     1      46.666   6.671  13.105  0.00  0.00    +0.000 A 
ATOM     25  S   UNL     1      45.691   7.673  12.131  0.00  0.00    +0.000 S 
ATOM     26  C   UNL     1      44.477   6.485  12.033  0.00  0.00    +0.000 A 
ATOM     27  N   UNL     1      43.322   6.722  11.354  0.00  0.00    +0.000 NA
ATOM     28  C   UNL     1      42.478   5.746  11.384  0.00  0.00    +0.000 A 
ATOM     29  N   UNL     1      42.687   4.552  12.025  0.00  0.00    +0.000 N 
ATOM     30  C   UNL     1      43.848   4.257  12.700  0.00  0.00    +0.000 A 
ATOM     31  O   UNL     1      44.021   3.164  13.228  0.00  0.00    +0.000 OA
ATOM     32  C   UNL     1      44.825   5.327  12.712  0.00  0.00    +0.000 A 
ATOM     33  H   UNL     1      41.988   3.823  11.996  0.00  0.00    +0.000 HD
ENDBRANCH  20  23
ENDBRANCH  18  19
ENDBRANCH   4  18
TORSDOF 6
ENDMDL
MODEL 7
REMARK VINA RESULT:    -6.679      3.702      8.454
REMARK INTER + INTRA:         -10.351
REMARK INTER:                  -8.602
REMARK INTRA:                  -1.749
REMARK UNBOUND:                -1.329
REMARK  Name = 
REMARK  8 active torsions:
REMARK  status: ('A' for Active; 'I' for Inactive)
REMARK    1  A    between atoms: C_1  and  C_2
REMARK    2  A    between atoms: C_6  and  C_7
REMARK    3  A    between atoms: C_7  and  N_8
REMARK    4  A    between atoms: N_8  and  C_9
REMARK    5  A    between atoms: C_12  and  C_13
REMARK    6  A    between atoms: C_13  and  N_14
REMARK    7  A    between atoms: C_15  and  C_17
REMARK    8  A    between atoms: C_29  and  C_30
REMARK                            x       y       z     vdW  Elec       q    Type
REMARK                         _______ _______ _______ _____ _____    ______ ____
ROOT
ATOM      1  C   UNL     1      50.017   7.597  17.199  0.00  0.00    +0.000 A 
ATOM      2  C   UNL     1      48.937   8.476  17.041  0.00  0.00    +0.000 A 
ATOM      3  C   UNL     1      48.484   8.853  15.766  0.00  0.00    +0.000 A 
ATOM      4  C   UNL     1      49.122   8.378  14.615  0.00  0.00    +0.000 A 
ATOM      5  C   UNL     1      50.265   7.589  14.769  0.00  0.00    +0.000 A 
ATOM      6  C   UNL     1      50.707   7.219  16.040  0.00  0.00    +0.000 A 
ENDROOT
BRANCH   1   7
ATOM      7  N   UNL     1      50.449   7.241  18.489  0.00  0.00    +0.000 N 
ATOM      8  H   UNL     1      50.787   8.039  19.015  0.00  0.00    +0.000 HD
BRANCH   7   9
ATOM      9  C   UNL     1      49.532   6.423  19.286  0.00  0.00    +0.000 C 
BRANCH   9  15
ATOM     10  C   UNL     1      50.418   1.896  17.049  0.00  0.00    +0.000 C 
ATOM     11  C   UNL     1      49.513   3.040  17.426  0.00  0.00    +0.000 A 
ATOM     12  C   UNL     1      48.177   3.012  17.000  0.00  0.00    +0.000 A 
ATOM     13  C   UNL     1      47.305   4.042  17.332  0.00  0.00    +0.000 A 
ATOM     14  C   UNL     1      47.755   5.111  18.102  0.00  0.00    +0.000 A 
ATOM     15  C   UNL     1      49.092   5.179  18.540  0.00  0.00    +0.000 A 
ATOM     16  C   UNL     1      49.988   4.140  18.186  0.00  0.00    +0.000 A 
ATOM     17  C   UNL     1      51.444   4.177  18.583  0.00  0.00    +0.000 C 
ENDBRANCH   9  15
ENDBRANCH   7   9
ENDBRANCH   1   7
BRANCH   4  18
ATOM     18  C   UNL     1      48.627   8.705  13.234  0.00  0.00    +0.000 C 
BRANCH  18  19
ATOM     19  N   UNL     1      47.705   7.719  12.737  0.00  0.00    +0.000 N 
ATOM     20  C   UNL     1      46.353   7.900  12.890  0.00  0.00    +0.000 C 
ATOM     21  O   UNL     1      45.891   8.916  13.405  0.00  0.00    +0.000 OA
ATOM     22  H   UNL     1      48.069   6.793  12.532  0.00  0.00    +0.000 HD
BRANCH  20  23
ATOM     23  C   UNL     1      45.476   6.853  12.357  0.00  0.00    +0.000 A 
ATOM     24  C   UNL     1      44.366   7.211  11.602  0.00  0.00    +0.000 A 
ATOM     25  S   UNL     1      43.468   5.881  11.029  0.00  0.00    +0.000 S 
ATOM     26  C   UNL     1      44.501   4.779  11.813  0.00  0.00    +0.000 A 
ATOM     27  N   UNL     1      44.269   3.440  11.751  0.00  0.00    +0.000 NA
ATOM     28  C   UNL     1      45.113   2.723  12.413  0.00  0.00    +0.000 A 
ATOM     29  N   UNL     1      46.173   3.222  13.124  0.00  0.00    +0.000 N 
ATOM     30  C   UNL     1      46.464   4.565  13.192  0.00  0.00    +0.000 A 
ATOM     31  O   UNL     1      47.444   4.977  13.803  0.00  0.00    +0.000 OA
ATOM     32  C   UNL     1      45.535   5.419  12.479  0.00  0.00    +0.000 A 
ATOM     33  H   UNL     1      46.807   2.602  13.609  0.00  0.00    +0.000 HD
ENDBRANCH  20  23
ENDBRANCH  18  19
ENDBRANCH   4  18
TORSDOF 6
ENDMDL
MODEL 8
REMARK VINA RESULT:    -6.621      3.832      8.547
REMARK INTER + INTRA:         -10.273
REMARK INTER:                  -8.923
REMARK INTRA:                  -1.349
REMARK UNBOUND:                -1.329
REMARK  Name = 
REMARK  8 active torsions:
REMARK  status: ('A' for Active; 'I' for Inactive)
REMARK    1  A    between atoms: C_1  and  C_2
REMARK    2  A    between atoms: C_6  and  C_7
REMARK    3  A    between atoms: C_7  and  N_8
REMARK    4  A    between atoms: N_8  and  C_9
REMARK    5  A    between atoms: C_12  and  C_13
REMARK    6  A    between atoms: C_13  and  N_14
REMARK    7  A    between atoms: C_15  and  C_17
REMARK    8  A    between atoms: C_29  and  C_30
REMARK                            x       y       z     vdW  Elec       q    Type
REMARK                         _______ _______ _______ _____ _____    ______ ____
ROOT
ATOM      1  C   UNL     1      50.704   7.337  18.078  0.00  0.00    +0.000 A 
ATOM      2  C   UNL     1      51.139   6.949  16.803  0.00  0.00    +0.000 A 
ATOM      3  C   UNL     1      50.429   7.317  15.647  0.00  0.00    +0.000 A 
ATOM      4  C   UNL     1      49.249   8.061  15.745  0.00  0.00    +0.000 A 
ATOM      5  C   UNL     1      48.755   8.358  17.017  0.00  0.00    +0.000 A 
ATOM      6  C   UNL     1      49.468   7.989  18.160  0.00  0.00    +0.000 A 
ENDROOT
BRANCH   1   7
ATOM      7  N   UNL     1      51.436   6.951  19.215  0.00  0.00    +0.000 N 
ATOM      8  H   UNL     1      51.589   7.723  19.854  0.00  0.00    +0.000 HD
BRANCH   7   9
ATOM      9  C   UNL     1      50.971   5.755  19.921  0.00  0.00    +0.000 C 
BRANCH   9  15
ATOM     10  C   UNL     1      47.436   2.870  17.584  0.00  0.00    +0.000 C 
ATOM     11  C   UNL     1      48.865   3.248  17.877  0.00  0.00    +0.000 A 
ATOM     12  C   UNL     1      49.895   2.498  17.288  0.00  0.00    +0.000 A 
ATOM     13  C   UNL     1      51.228   2.817  17.523  0.00  0.00    +0.000 A 
ATOM     14  C   UNL     1      51.548   3.894  18.345  0.00  0.00    +0.000 A 
ATOM     15  C   UNL     1      50.542   4.663  18.960  0.00  0.00    +0.000 A 
ATOM     16  C   UNL     1      49.184   4.329  18.737  0.00  0.00    +0.000 A 
ATOM     17  C   UNL     1      48.059   5.084  19.406  0.00  0.00    +0.000 C 
ENDBRANCH   9  15
ENDBRANCH   7   9
ENDBRANCH   1   7
BRANCH   4  18
ATOM     18  C   UNL     1      48.497   8.530  14.530  0.00  0.00    +0.000 C 
BRANCH  18  19
ATOM     19  N   UNL     1      47.446   7.621  14.155  0.00  0.00    +0.000 N 
ATOM     20  C   UNL     1      47.700   6.597  13.278  0.00  0.00    +0.000 C 
ATOM     21  O   UNL     1      48.827   6.395  12.829  0.00  0.00    +0.000 OA
ATOM     22  H   UNL     1      46.488   7.913  14.325  0.00  0.00    +0.000 HD
BRANCH  20  23
ATOM     23  C   UNL     1      46.580   5.712  12.944  0.00  0.00    +0.000 A 
ATOM     24  C   UNL     1      46.681   4.352  13.209  0.00  0.00    +0.000 A 
ATOM     25  S   UNL     1      45.286   3.466  12.794  0.00  0.00    +0.000 S 
ATOM     26  C   UNL     1      44.515   4.861  12.197  0.00  0.00    +0.000 A 
ATOM     27  N   UNL     1      43.271   4.790  11.651  0.00  0.00    +0.000 NA
ATOM     28  C   UNL     1      42.817   5.917  11.214  0.00  0.00    +0.000 A 
ATOM     29  N   UNL     1      43.492   7.108  11.279  0.00  0.00    +0.000 N 
ATOM     30  C   UNL     1      44.739   7.233  11.847  0.00  0.00    +0.000 A 
ATOM     31  O   UNL     1      45.298   8.321  11.928  0.00  0.00    +0.000 OA
ATOM     32  C   UNL     1      45.303   5.993  12.340  0.00  0.00    +0.000 A 
ATOM     33  H   UNL     1      43.072   7.958  10.931  0.00  0.00    +0.000 HD
ENDBRANCH  20  23
ENDBRANCH  18  19
ENDBRANCH   4  18
TORSDOF 6
ENDMDL
MODEL 9
REMARK VINA RESULT:    -6.483      2.090      3.540
REMARK INTER + INTRA:         -10.086
REMARK INTER:                  -8.773
REMARK INTRA:                  -1.313
REMARK UNBOUND:                -1.329
REMARK  Name = 
REMARK  8 active torsions:
REMARK  status: ('A' for Active; 'I' for Inactive)
REMARK    1  A    between atoms: C_1  and  C_2
REMARK    2  A    between atoms: C_6  and  C_7
REMARK    3  A    between atoms: C_7  and  N_8
REMARK    4  A    between atoms: N_8  and  C_9
REMARK    5  A    between atoms: C_12  and  C_13
REMARK    6  A    between atoms: C_13  and  N_14
REMARK    7  A    between atoms: C_15  and  C_17
REMARK    8  A    between atoms: C_29  and  C_30
REMARK                            x       y       z     vdW  Elec       q    Type
REMARK                         _______ _______ _______ _____ _____    ______ ____
ROOT
ATOM      1  C   UNL     1      45.583   5.268  13.118  0.00  0.00    +0.000 A 
ATOM      2  C   UNL     1      45.811   6.605  12.768  0.00  0.00    +0.000 A 
ATOM      3  C   UNL     1      46.987   7.270  13.156  0.00  0.00    +0.000 A 
ATOM      4  C   UNL     1      47.952   6.614  13.929  0.00  0.00    +0.000 A 
ATOM      5  C   UNL     1      47.679   5.318  14.369  0.00  0.00    +0.000 A 
ATOM      6  C   UNL     1      46.508   4.665  13.979  0.00  0.00    +0.000 A 
ENDROOT
BRANCH   1   7
ATOM      7  N   UNL     1      44.394   4.632  12.717  0.00  0.00    +0.000 N 
ATOM      8  H   UNL     1      43.658   4.720  13.408  0.00  0.00    +0.000 HD
BRANCH   7   9
ATOM      9  C   UNL     1      43.906   4.940  11.371  0.00  0.00    +0.000 C 
BRANCH   9  15
ATOM     10  C   UNL     1      46.823   3.857   7.298  0.00  0.00    +0.000 C 
ATOM     11  C   UNL     1      45.824   3.476   8.359  0.00  0.00    +0.000 A 
ATOM     12  C   UNL     1      45.305   2.172   8.359  0.00  0.00    +0.000 A 
ATOM     13  C   UNL     1      44.387   1.774   9.325  0.00  0.00    +0.000 A 
ATOM     14  C   UNL     1      43.981   2.673  10.307  0.00  0.00    +0.000 A 
ATOM     15  C   UNL     1      44.472   3.992  10.333  0.00  0.00    +0.000 A 
ATOM     16  C   UNL     1      45.393   4.406   9.339  0.00  0.00    +0.000 A 
ATOM     17  C   UNL     1      45.920   5.820   9.283  0.00  0.00    +0.000 C 
ENDBRANCH   9  15
ENDBRANCH   7   9
ENDBRANCH   1   7
BRANCH   4  18
ATOM     18  C   UNL     1      49.251   7.269  14.307  0.00  0.00    +0.000 C 
BRANCH  18  19
ATOM     19  N   UNL     1      49.661   6.935  15.647  0.00  0.00    +0.000 N 
ATOM     20  C   UNL     1      49.198   7.668  16.711  0.00  0.00    +0.000 C 
ATOM     21  O   UNL     1      48.396   8.587  16.564  0.00  0.00    +0.000 OA
ATOM     22  H   UNL     1      50.484   6.351  15.756  0.00  0.00    +0.000 HD
BRANCH  20  23
ATOM     23  C   UNL     1      49.659   7.268  18.045  0.00  0.00    +0.000 A 
ATOM     24  C   UNL     1      50.740   7.925  18.619  0.00  0.00    +0.000 A 
ATOM     25  S   UNL     1      51.130   7.367  20.181  0.00  0.00    +0.000 S 
ATOM     26  C   UNL     1      49.899   6.193  20.126  0.00  0.00    +0.000 A 
ATOM     27  N   UNL     1      49.709   5.335  21.163  0.00  0.00    +0.000 NA
ATOM     28  C   UNL     1      48.760   4.479  20.978  0.00  0.00    +0.000 A 
ATOM     29  N   UNL     1      47.980   4.410  19.853  0.00  0.00    +0.000 N 
ATOM     30  C   UNL     1      48.117   5.275  18.792  0.00  0.00    +0.000 A 
ATOM     31  O   UNL     1      47.376   5.214  17.817  0.00  0.00    +0.000 OA
ATOM     32  C   UNL     1      49.182   6.247  18.942  0.00  0.00    +0.000 A 
ATOM     33  H   UNL     1      47.242   3.724  19.778  0.00  0.00    +0.000 HD
ENDBRANCH  20  23
ENDBRANCH  18  19
ENDBRANCH   4  18
TORSDOF 6
ENDMDL
