MODEL 1
REMARK VINA RESULT:    -7.972      0.000      0.000
REMARK INTER + INTRA:         -12.321
REMARK INTER:                 -11.234
REMARK INTRA:                  -1.086
REMARK UNBOUND:                -1.086
REMARK  Name = 
REMARK  9 active torsions:
REMARK  status: ('A' for Active; 'I' for Inactive)
REMARK    1  A    between atoms: C_1  and  C_2
REMARK    2  A    between atoms: C_6  and  C_7
REMARK    3  A    between atoms: C_7  and  N_8
REMARK    4  A    between atoms: N_8  and  C_9
REMARK    5  A    between atoms: N_8  and  C_10
REMARK    6  A    between atoms: C_10  and  C_11
REMARK    7  A    between atoms: C_14  and  C_15
REMARK    8  A    between atoms: C_15  and  N_16
REMARK    9  A    between atoms: C_17  and  C_19
REMARK                            x       y       z     vdW  Elec       q    Type
REMARK                         _______ _______ _______ _____ _____    ______ ____
ROOT
ATOM      1  C   UNL     1      45.888   4.659  12.800  0.00  0.00    +0.000 A 
ATOM      2  C   UNL     1      46.205   5.819  12.079  0.00  0.00    +0.000 A 
ATOM      3  C   UNL     1      47.167   6.714  12.557  0.00  0.00    +0.000 A 
ATOM      4  C   UNL     1      47.836   6.462  13.760  0.00  0.00    +0.000 A 
ATOM      5  C   UNL     1      47.522   5.301  14.479  0.00  0.00    +0.000 A 
ATOM      6  C   UNL     1      46.560   4.409  14.004  0.00  0.00    +0.000 A 
ENDROOT
BRANCH   1   7
ATOM      7  C   UNL     1      44.814   3.710  12.312  0.00  0.00    +0.000 C 
BRANCH   7   8
ATOM      8  N   UNL     1      44.139   4.152  11.079  0.00  0.00    +0.000 NA
ATOM      9  C   UNL     1      42.830   4.720  11.426  0.00  0.00    +0.000 C 
BRANCH   8  10
ATOM     10  C   UNL     1      43.974   3.016  10.137  0.00  0.00    +0.000 C 
BRANCH  10  16
ATOM     11  C   UNL     1      46.985   0.225   7.499  0.00  0.00    +0.000 C 
ATOM     12  C   UNL     1      46.465   1.599   7.791  0.00  0.00    +0.000 A 
ATOM     13  C   UNL     1      46.942   2.707   7.099  0.00  0.00    +0.000 A 
ATOM     14  C   UNL     1      46.463   3.968   7.438  0.00  0.00    +0.000 A 
ATOM     15  C   UNL     1      45.519   4.087   8.451  0.00  0.00    +0.000 A 
ATOM     16  C   UNL     1      45.064   2.931   9.082  0.00  0.00    +0.000 A 
ATOM     17  N   UNL     1      45.532   1.696   8.768  0.00  0.00    +0.000 NA
ENDBRANCH  10  16
ENDBRANCH   8  10
ENDBRANCH   7   8
ENDBRANCH   1   7
BRANCH   4  18
ATOM     18  C   UNL     1      48.818   7.457  14.318  0.00  0.00    +0.000 C 
BRANCH  18  19
ATOM     19  N   UNL     1      48.773   7.459  15.759  0.00  0.00    +0.000 N 
ATOM     20  C   UNL     1      49.785   6.914  16.505  0.00  0.00    +0.000 C 
ATOM     21  O   UNL     1      50.795   6.447  15.986  0.00  0.00    +0.000 OA
ATOM     22  H   UNL     1      47.875   7.647  16.192  0.00  0.00    +0.000 HD
BRANCH  20  23
ATOM     23  C   UNL     1      49.632   6.970  17.966  0.00  0.00    +0.000 A 
ATOM     24  C   UNL     1      49.900   8.157  18.636  0.00  0.00    +0.000 A 
ATOM     25  S   UNL     1      49.630   8.072  20.316  0.00  0.00    +0.000 S 
ATOM     26  C   UNL     1      49.194   6.430  20.219  0.00  0.00    +0.000 A 
ATOM     27  N   UNL     1      48.864   5.728  21.337  0.00  0.00    +0.000 NA
ATOM     28  C   UNL     1      48.590   4.485  21.124  0.00  0.00    +0.000 A 
ATOM     29  N   UNL     1      48.607   3.882  19.893  0.00  0.00    +0.000 N 
ATOM     30  C   UNL     1      48.903   4.559  18.733  0.00  0.00    +0.000 A 
ATOM     31  O   UNL     1      48.866   3.999  17.642  0.00  0.00    +0.000 OA
ATOM     32  C   UNL     1      49.235   5.958  18.918  0.00  0.00    +0.000 A 
ATOM     33  H   UNL     1      48.374   2.905  19.793  0.00  0.00    +0.000 HD
ENDBRANCH  20  23
ENDBRANCH  18  19
ENDBRANCH   4  18
TORSDOF 7
ENDMDL
MODEL 2
REMARK VINA RESULT:    -7.809      2.147      2.390
REMARK INTER + INTRA:         -12.090
REMARK INTER:                 -10.829
REMARK INTRA:                  -1.261
REMARK UNBOUND:                -1.086
REMARK  Name = 
REMARK  9 active torsions:
REMARK  status: ('A' for Active; 'I' for Inactive)
REMARK    1  A    between atoms: C_1  and  C_2
REMARK    2  A    between atoms: C_6  and  C_7
REMARK    3  A    between atoms: C_7  and  N_8
REMARK    4  A    between atoms: N_8  and  C_9
REMARK    5  A    between atoms: N_8  and  C_10
REMARK    6  A    between atoms: C_10  and  C_11
REMARK    7  A    between atoms: C_14  and  C_15
REMARK    8  A    between atoms: C_15  and  N_16
REMARK    9  A    between atoms: C_17  and  C_19
REMARK                            x       y       z     vdW  Elec       q    Type
REMARK                         _______ _______ _______ _____ _____    ______ ____
ROOT
ATOM      1  C   UNL     1      46.029   5.071  12.575  0.00  0.00    +0.000 A 
ATOM      2  C   UNL     1      46.390   6.063  11.653  0.00  0.00    +0.000 A 
ATOM      3  C   UNL     1      47.434   6.950  11.934  0.00  0.00    +0.000 A 
ATOM      4  C   UNL     1      48.141   6.855  13.138  0.00  0.00    +0.000 A 
ATOM      5  C   UNL     1      47.782   5.861  14.058  0.00  0.00    +0.000 A 
ATOM      6  C   UNL     1      46.739   4.977  13.778  0.00  0.00    +0.000 A 
ENDROOT
BRANCH   1   7
ATOM      7  C   UNL     1      44.869   4.138  12.296  0.00  0.00    +0.000 C 
BRANCH   7   8
ATOM      8  N   UNL     1      44.127   4.455  11.063  0.00  0.00    +0.000 NA
ATOM      9  C   UNL     1      42.816   5.011  11.423  0.00  0.00    +0.000 C 
BRANCH   8  10
ATOM     10  C   UNL     1      43.959   3.240  10.226  0.00  0.00    +0.000 C 
BRANCH  10  16
ATOM     11  C   UNL     1      46.821   0.244   7.649  0.00  0.00    +0.000 C 
ATOM     12  C   UNL     1      46.361   1.646   7.900  0.00  0.00    +0.000 A 
ATOM     13  C   UNL     1      46.874   2.711   7.167  0.00  0.00    +0.000 A 
ATOM     14  C   UNL     1      46.450   4.001   7.469  0.00  0.00    +0.000 A 
ATOM     15  C   UNL     1      45.524   4.191   8.488  0.00  0.00    +0.000 A 
ATOM     16  C   UNL     1      45.032   3.076   9.162  0.00  0.00    +0.000 A 
ATOM     17  N   UNL     1      45.446   1.813   8.884  0.00  0.00    +0.000 NA
ENDBRANCH  10  16
ENDBRANCH   8  10
ENDBRANCH   7   8
ENDBRANCH   1   7
BRANCH   4  18
ATOM     18  C   UNL     1      49.216   7.853  13.480  0.00  0.00    +0.000 C 
BRANCH  18  19
ATOM     19  N   UNL     1      50.250   7.232  14.270  0.00  0.00    +0.000 N 
ATOM     20  C   UNL     1      50.697   7.800  15.435  0.00  0.00    +0.000 C 
ATOM     21  O   UNL     1      50.205   8.832  15.883  0.00  0.00    +0.000 OA
ATOM     22  H   UNL     1      50.800   6.507  13.821  0.00  0.00    +0.000 HD
BRANCH  20  23
ATOM     23  C   UNL     1      51.755   7.080  16.156  0.00  0.00    +0.000 A 
ATOM     24  C   UNL     1      53.046   7.593  16.167  0.00  0.00    +0.000 A 
ATOM     25  S   UNL     1      54.145   6.668  17.084  0.00  0.00    +0.000 S 
ATOM     26  C   UNL     1      52.947   5.517  17.459  0.00  0.00    +0.000 A 
ATOM     27  N   UNL     1      53.242   4.424  18.212  0.00  0.00    +0.000 NA
ATOM     28  C   UNL     1      52.252   3.616  18.389  0.00  0.00    +0.000 A 
ATOM     29  N   UNL     1      50.990   3.807  17.888  0.00  0.00    +0.000 N 
ATOM     30  C   UNL     1      50.638   4.913  17.150  0.00  0.00    +0.000 A 
ATOM     31  O   UNL     1      49.488   5.074  16.755  0.00  0.00    +0.000 OA
ATOM     32  C   UNL     1      51.720   5.846  16.907  0.00  0.00    +0.000 A 
ATOM     33  H   UNL     1      50.255   3.139  18.071  0.00  0.00    +0.000 HD
ENDBRANCH  20  23
ENDBRANCH  18  19
ENDBRANCH   4  18
TORSDOF 7
ENDMDL
MODEL 3
REMARK VINA RESULT:    -7.642      3.367      8.980
REMARK INTER + INTRA:         -11.856
REMARK INTER:                 -10.215
REMARK INTRA:                  -1.640
REMARK UNBOUND:                -1.086
REMARK  Name = 
REMARK  9 active torsions:
REMARK  status: ('A' for Active; 'I' for Inactive)
REMARK    1  A    between atoms: C_1  and  C_2
REMARK    2  A    between atoms: C_6  and  C_7
REMARK    3  A    between atoms: C_7  and  N_8
REMARK    4  A    between atoms: N_8  and  C_9
REMARK    5  A    between atoms: N_8  and  C_10
REMARK    6  A    between atoms: C_10  and  C_11
REMARK    7  A    between atoms: C_14  and  C_15
REMARK    8  A    between atoms: C_15  and  N_16
REMARK    9  A    between atoms: C_17  and  C_19
REMARK                            x       y       z     vdW  Elec       q    Type
REMARK                         _______ _______ _______ _____ _____    ______ ____
ROOT
ATOM      1  C   UNL     1      48.853   8.055  16.117  0.00  0.00    +0.000 A 
ATOM      2  C   UNL     1      49.194   6.933  15.348  0.00  0.00    +0.000 A 
ATOM      3  C   UNL     1      48.830   6.857  13.999  0.00  0.00    +0.000 A 
ATOM      4  C   UNL     1      48.127   7.904  13.394  0.00  0.00    +0.000 A 
ATOM      5  C   UNL     1      47.789   9.027  14.162  0.00  0.00    +0.000 A 
ATOM      6  C   UNL     1      48.150   9.102  15.508  0.00  0.00    +0.000 A 
ENDROOT
BRANCH   1   7
ATOM      7  C   UNL     1      49.203   8.122  17.589  0.00  0.00    +0.000 C 
BRANCH   7   8
ATOM      8  N   UNL     1      48.173   7.555  18.476  0.00  0.00    +0.000 NA
ATOM      9  C   UNL     1      47.778   8.571  19.461  0.00  0.00    +0.000 C 
BRANCH   8  10
ATOM     10  C   UNL     1      48.684   6.343  19.165  0.00  0.00    +0.000 C 
BRANCH  10  16
ATOM     11  C   UNL     1      50.806   2.351  17.328  0.00  0.00    +0.000 C 
ATOM     12  C   UNL     1      49.550   3.145  17.509  0.00  0.00    +0.000 A 
ATOM     13  C   UNL     1      48.341   2.704  16.980  0.00  0.00    +0.000 A 
ATOM     14  C   UNL     1      47.211   3.499  17.134  0.00  0.00    +0.000 A 
ATOM     15  C   UNL     1      47.315   4.705  17.816  0.00  0.00    +0.000 A 
ATOM     16  C   UNL     1      48.551   5.071  18.344  0.00  0.00    +0.000 A 
ATOM     17  N   UNL     1      49.665   4.309  18.191  0.00  0.00    +0.000 NA
ENDBRANCH  10  16
ENDBRANCH   8  10
ENDBRANCH   7   8
ENDBRANCH   1   7
BRANCH   4  18
ATOM     18  C   UNL     1      47.667   7.797  11.964  0.00  0.00    +0.000 C 
BRANCH  18  19
ATOM     19  N   UNL     1      46.961   6.557  11.752  0.00  0.00    +0.000 N 
ATOM     20  C   UNL     1      45.592   6.502  11.772  0.00  0.00    +0.000 C 
ATOM     21  O   UNL     1      44.904   7.508  11.921  0.00  0.00    +0.000 OA
ATOM     22  H   UNL     1      47.500   5.701  11.833  0.00  0.00    +0.000 HD
BRANCH  20  23
ATOM     23  C   UNL     1      44.982   5.185  11.545  0.00  0.00    +0.000 A 
ATOM     24  C   UNL     1      44.296   4.562  12.580  0.00  0.00    +0.000 A 
ATOM     25  S   UNL     1      43.608   3.065  12.144  0.00  0.00    +0.000 S 
ATOM     26  C   UNL     1      44.245   3.169  10.569  0.00  0.00    +0.000 A 
ATOM     27  N   UNL     1      44.042   2.171   9.667  0.00  0.00    +0.000 NA
ATOM     28  C   UNL     1      44.611   2.361   8.525  0.00  0.00    +0.000 A 
ATOM     29  N   UNL     1      45.358   3.464   8.199  0.00  0.00    +0.000 N 
ATOM     30  C   UNL     1      45.562   4.511   9.067  0.00  0.00    +0.000 A 
ATOM     31  O   UNL     1      46.199   5.503   8.728  0.00  0.00    +0.000 OA
ATOM     32  C   UNL     1      44.957   4.340  10.373  0.00  0.00    +0.000 A 
ATOM     33  H   UNL     1      45.770   3.556   7.282  0.00  0.00    +0.000 HD
ENDBRANCH  20  23
ENDBRANCH  18  19
ENDBRANCH   4  18
TORSDOF 7
ENDMDL
MODEL 4
REMARK VINA RESULT:    -7.425      1.727      2.234
REMARK INTER + INTRA:         -11.549
REMARK INTER:                 -10.443
REMARK INTRA:                  -1.106
REMARK UNBOUND:                -1.086
REMARK  Name = 
REMARK  9 active torsions:
REMARK  status: ('A' for Active; 'I' for Inactive)
REMARK    1  A    between atoms: C_1  and  C_2
REMARK    2  A    between atoms: C_6  and  C_7
REMARK    3  A    between atoms: C_7  and  N_8
REMARK    4  A    between atoms: N_8  and  C_9
REMARK    5  A    between atoms: N_8  and  C_10
REMARK    6  A    between atoms: C_10  and  C_11
REMARK    7  A    between atoms: C_14  and  C_15
REMARK    8  A    between atoms: C_15  and  N_16
REMARK    9  A    between atoms: C_17  and  C_19
REMARK                            x       y       z     vdW  Elec       q    Type
REMARK                         _______ _______ _______ _____ _____    ______ ____
ROOT
ATOM      1  C   UNL     1      46.016   4.783  12.430  0.00  0.00    +0.000 A 
ATOM      2  C   UNL     1      46.493   5.972  11.859  0.00  0.00    +0.000 A 
ATOM      3  C   UNL     1      47.344   6.816  12.579  0.00  0.00    +0.000 A 
ATOM      4  C   UNL     1      47.741   6.484  13.879  0.00  0.00    +0.000 A 
ATOM      5  C   UNL     1      47.266   5.294  14.449  0.00  0.00    +0.000 A 
ATOM      6  C   UNL     1      46.416   4.452  13.731  0.00  0.00    +0.000 A 
ENDROOT
BRANCH   1   7
ATOM      7  C   UNL     1      45.057   3.889  11.672  0.00  0.00    +0.000 C 
BRANCH   7   8
ATOM      8  N   UNL     1      44.302   4.580  10.613  0.00  0.00    +0.000 NA
ATOM      9  C   UNL     1      43.072   5.139  11.188  0.00  0.00    +0.000 C 
BRANCH   8  10
ATOM     10  C   UNL     1      43.975   3.644   9.508  0.00  0.00    +0.000 C 
BRANCH  10  16
ATOM     11  C   UNL     1      46.812   0.103   7.712  0.00  0.00    +0.000 C 
ATOM     12  C   UNL     1      46.497   1.566   7.764  0.00  0.00    +0.000 A 
ATOM     13  C   UNL     1      47.249   2.487   7.042  0.00  0.00    +0.000 A 
ATOM     14  C   UNL     1      46.947   3.840   7.160  0.00  0.00    +0.000 A 
ATOM     15  C   UNL     1      45.902   4.234   7.987  0.00  0.00    +0.000 A 
ATOM     16  C   UNL     1      45.173   3.256   8.659  0.00  0.00    +0.000 A 
ATOM     17  N   UNL     1      45.465   1.933   8.561  0.00  0.00    +0.000 NA
ENDBRANCH  10  16
ENDBRANCH   8  10
ENDBRANCH   7   8
ENDBRANCH   1   7
BRANCH   4  18
ATOM     18  C   UNL     1      48.595   7.423  14.687  0.00  0.00    +0.000 C 
BRANCH  18  19
ATOM     19  N   UNL     1      48.268   7.326  16.089  0.00  0.00    +0.000 N 
ATOM     20  C   UNL     1      49.152   6.799  16.993  0.00  0.00    +0.000 C 
ATOM     21  O   UNL     1      50.277   6.434  16.664  0.00  0.00    +0.000 OA
ATOM     22  H   UNL     1      47.290   7.426  16.342  0.00  0.00    +0.000 HD
BRANCH  20  23
ATOM     23  C   UNL     1      48.711   6.748  18.394  0.00  0.00    +0.000 A 
ATOM     24  C   UNL     1      48.864   5.572  19.117  0.00  0.00    +0.000 A 
ATOM     25  S   UNL     1      48.348   5.689  20.737  0.00  0.00    +0.000 S 
ATOM     26  C   UNL     1      47.851   7.302  20.519  0.00  0.00    +0.000 A 
ATOM     27  N   UNL     1      47.282   8.000  21.538  0.00  0.00    +0.000 NA
ATOM     28  C   UNL     1      46.920   9.199  21.225  0.00  0.00    +0.000 A 
ATOM     29  N   UNL     1      47.083   9.766  19.988  0.00  0.00    +0.000 N 
ATOM     30  C   UNL     1      47.683   9.110  18.938  0.00  0.00    +0.000 A 
ATOM     31  O   UNL     1      47.855   9.663  17.857  0.00  0.00    +0.000 OA
ATOM     32  C   UNL     1      48.095   7.752  19.232  0.00  0.00    +0.000 A 
ATOM     33  H   UNL     1      46.785  10.715  19.811  0.00  0.00    +0.000 HD
ENDBRANCH  20  23
ENDBRANCH  18  19
ENDBRANCH   4  18
TORSDOF 7
ENDMDL
MODEL 5
REMARK VINA RESULT:    -7.318      3.550      8.495
REMARK INTER + INTRA:         -11.398
REMARK INTER:                  -9.813
REMARK INTRA:                  -1.585
REMARK UNBOUND:                -1.086
REMARK  Name = 
REMARK  9 active torsions:
REMARK  status: ('A' for Active; 'I' for Inactive)
REMARK    1  A    between atoms: C_1  and  C_2
REMARK    2  A    between atoms: C_6  and  C_7
REMARK    3  A    between atoms: C_7  and  N_8
REMARK    4  A    between atoms: N_8  and  C_9
REMARK    5  A    between atoms: N_8  and  C_10
REMARK    6  A    between atoms: C_10  and  C_11
REMARK    7  A    between atoms: C_14  and  C_15
REMARK    8  A    between atoms: C_15  and  N_16
REMARK    9  A    between atoms: C_17  and  C_19
REMARK                            x       y       z     vdW  Elec       q    Type
REMARK                         _______ _______ _______ _____ _____    ______ ____
ROOT
ATOM      1  C   UNL     1      49.019   7.858  16.198  0.00  0.00    +0.000 A 
ATOM      2  C   UNL     1      48.359   8.990  15.700  0.00  0.00    +0.000 A 
ATOM      3  C   UNL     1      48.087   9.111  14.333  0.00  0.00    +0.000 A 
ATOM      4  C   UNL     1      48.461   8.099  13.442  0.00  0.00    +0.000 A 
ATOM      5  C   UNL     1      49.118   6.966  13.942  0.00  0.00    +0.000 A 
ATOM      6  C   UNL     1      49.391   6.845  15.305  0.00  0.00    +0.000 A 
ENDROOT
BRANCH   1   7
ATOM      7  C   UNL     1      49.358   7.743  17.670  0.00  0.00    +0.000 C 
BRANCH   7   8
ATOM      8  N   UNL     1      48.306   7.104  18.480  0.00  0.00    +0.000 NA
ATOM      9  C   UNL     1      47.854   8.050  19.509  0.00  0.00    +0.000 C 
BRANCH   8  10
ATOM     10  C   UNL     1      48.815   5.861  19.112  0.00  0.00    +0.000 C 
BRANCH  10  16
ATOM     11  C   UNL     1      51.093   1.921  17.348  0.00  0.00    +0.000 C 
ATOM     12  C   UNL     1      49.843   2.746  17.392  0.00  0.00    +0.000 A 
ATOM     13  C   UNL     1      48.719   2.381  16.658  0.00  0.00    +0.000 A 
ATOM     14  C   UNL     1      47.598   3.204  16.694  0.00  0.00    +0.000 A 
ATOM     15  C   UNL     1      47.628   4.360  17.464  0.00  0.00    +0.000 A 
ATOM     16  C   UNL     1      48.777   4.648  18.196  0.00  0.00    +0.000 A 
ATOM     17  N   UNL     1      49.882   3.859  18.161  0.00  0.00    +0.000 NA
ENDBRANCH  10  16
ENDBRANCH   8  10
ENDBRANCH   7   8
ENDBRANCH   1   7
BRANCH   4  18
ATOM     18  C   UNL     1      48.239   8.256  11.962  0.00  0.00    +0.000 C 
BRANCH  18  19
ATOM     19  N   UNL     1      47.562   7.100  11.426  0.00  0.00    +0.000 N 
ATOM     20  C   UNL     1      46.194   7.035  11.373  0.00  0.00    +0.000 C 
ATOM     21  O   UNL     1      45.485   7.973  11.728  0.00  0.00    +0.000 OA
ATOM     22  H   UNL     1      48.110   6.252  11.324  0.00  0.00    +0.000 HD
BRANCH  20  23
ATOM     23  C   UNL     1      45.614   5.809  10.809  0.00  0.00    +0.000 A 
ATOM     24  C   UNL     1      45.779   5.533   9.458  0.00  0.00    +0.000 A 
ATOM     25  S   UNL     1      45.088   4.053   8.969  0.00  0.00    +0.000 S 
ATOM     26  C   UNL     1      44.497   3.750  10.536  0.00  0.00    +0.000 A 
ATOM     27  N   UNL     1      43.773   2.630  10.804  0.00  0.00    +0.000 NA
ATOM     28  C   UNL     1      43.357   2.543  12.022  0.00  0.00    +0.000 A 
ATOM     29  N   UNL     1      43.606   3.471  13.000  0.00  0.00    +0.000 N 
ATOM     30  C   UNL     1      44.360   4.601  12.784  0.00  0.00    +0.000 A 
ATOM     31  O   UNL     1      44.601   5.388  13.692  0.00  0.00    +0.000 OA
ATOM     32  C   UNL     1      44.840   4.755  11.425  0.00  0.00    +0.000 A 
ATOM     33  H   UNL     1      43.257   3.338  13.938  0.00  0.00    +0.000 HD
ENDBRANCH  20  23
ENDBRANCH  18  19
ENDBRANCH   4  18
TORSDOF 7
ENDMDL
MODEL 6
REMARK VINA RESULT:    -7.244      3.722      9.909
REMARK INTER + INTRA:         -11.295
REMARK INTER:                  -9.721
REMARK INTRA:                  -1.573
REMARK UNBOUND:                -1.086
REMARK  Name = 
REMARK  9 active torsions:
REMARK  status: ('A' for Active; 'I' for Inactive)
REMARK    1  A    between atoms: C_1  and  C_2
REMARK    2  A    between atoms: C_6  and  C_7
REMARK    3  A    between atoms: C_7  and  N_8
REMARK    4  A    between atoms: N_8  and  C_9
REMARK    5  A    between atoms: N_8  and  C_10
REMARK    6  A    between atoms: C_10  and  C_11
REMARK    7  A    between atoms: C_14  and  C_15
REMARK    8  A    between atoms: C_15  and  N_16
REMARK    9  A    between atoms: C_17  and  C_19
REMARK                            x       y       z     vdW  Elec       q    Type
REMARK                         _______ _______ _______ _____ _____    ______ ____
ROOT
ATOM      1  C   UNL     1      51.199   4.995  17.856  0.00  0.00    +0.000 A 
ATOM      2  C   UNL     1      50.884   3.635  17.981  0.00  0.00    +0.000 A 
ATOM      3  C   UNL     1      49.652   3.146  17.535  0.00  0.00    +0.000 A 
ATOM      4  C   UNL     1      48.716   4.007  16.950  0.00  0.00    +0.000 A 
ATOM      5  C   UNL     1      49.032   5.366  16.824  0.00  0.00    +0.000 A 
ATOM      6  C   UNL     1      50.261   5.855  17.269  0.00  0.00    +0.000 A 
ENDROOT
BRANCH   1   7
ATOM      7  C   UNL     1      52.513   5.539  18.379  0.00  0.00    +0.000 C 
BRANCH   7   8
ATOM      8  N   UNL     1      52.374   6.749  19.208  0.00  0.00    +0.000 NA
ATOM      9  C   UNL     1      53.654   7.468  19.224  0.00  0.00    +0.000 C 
BRANCH   8  10
ATOM     10  C   UNL     1      51.965   6.392  20.590  0.00  0.00    +0.000 C 
BRANCH  10  16
ATOM     11  C   UNL     1      47.486   8.272  20.123  0.00  0.00    +0.000 C 
ATOM     12  C   UNL     1      48.329   7.091  20.493  0.00  0.00    +0.000 A 
ATOM     13  C   UNL     1      47.748   5.904  20.928  0.00  0.00    +0.000 A 
ATOM     14  C   UNL     1      48.575   4.850  21.304  0.00  0.00    +0.000 A 
ATOM     15  C   UNL     1      49.953   5.008  21.231  0.00  0.00    +0.000 A 
ATOM     16  C   UNL     1      50.466   6.214  20.760  0.00  0.00    +0.000 A 
ATOM     17  N   UNL     1      49.670   7.254  20.399  0.00  0.00    +0.000 NA
ENDBRANCH  10  16
ENDBRANCH   8  10
ENDBRANCH   7   8
ENDBRANCH   1   7
BRANCH   4  18
ATOM     18  C   UNL     1      47.359   3.502  16.538  0.00  0.00    +0.000 C 
BRANCH  18  19
ATOM     19  N   UNL     1      46.729   4.428  15.629  0.00  0.00    +0.000 N 
ATOM     20  C   UNL     1      46.757   4.229  14.274  0.00  0.00    +0.000 C 
ATOM     21  O   UNL     1      47.271   3.231  13.775  0.00  0.00    +0.000 OA
ATOM     22  H   UNL     1      46.487   5.343  15.997  0.00  0.00    +0.000 HD
BRANCH  20  23
ATOM     23  C   UNL     1      46.084   5.238  13.444  0.00  0.00    +0.000 A 
ATOM     24  C   UNL     1      46.694   6.469  13.238  0.00  0.00    +0.000 A 
ATOM     25  S   UNL     1      45.810   7.510  12.217  0.00  0.00    +0.000 S 
ATOM     26  C   UNL     1      44.554   6.373  12.055  0.00  0.00    +0.000 A 
ATOM     27  N   UNL     1      43.449   6.656  11.313  0.00  0.00    +0.000 NA
ATOM     28  C   UNL     1      42.560   5.721  11.305  0.00  0.00    +0.000 A 
ATOM     29  N   UNL     1      42.678   4.525  11.965  0.00  0.00    +0.000 N 
ATOM     30  C   UNL     1      43.790   4.183  12.699  0.00  0.00    +0.000 A 
ATOM     31  O   UNL     1      43.883   3.086  13.240  0.00  0.00    +0.000 OA
ATOM     32  C   UNL     1      44.815   5.207  12.755  0.00  0.00    +0.000 A 
ATOM     33  H   UNL     1      41.947   3.830  11.910  0.00  0.00    +0.000 HD
ENDBRANCH  20  23
ENDBRANCH  18  19
ENDBRANCH   4  18
TORSDOF 7
ENDMDL
MODEL 7
REMARK VINA RESULT:    -6.840      3.455      8.333
REMARK INTER + INTRA:         -10.725
REMARK INTER:                  -8.802
REMARK INTRA:                  -1.923
REMARK UNBOUND:                -1.086
REMARK  Name = 
REMARK  9 active torsions:
REMARK  status: ('A' for Active; 'I' for Inactive)
REMARK    1  A    between atoms: C_1  and  C_2
REMARK    2  A    between atoms: C_6  and  C_7
REMARK    3  A    between atoms: C_7  and  N_8
REMARK    4  A    between atoms: N_8  and  C_9
REMARK    5  A    between atoms: N_8  and  C_10
REMARK    6  A    between atoms: C_10  and  C_11
REMARK    7  A    between atoms: C_14  and  C_15
REMARK    8  A    between atoms: C_15  and  N_16
REMARK    9  A    between atoms: C_17  and  C_19
REMARK                            x       y       z     vdW  Elec       q    Type
REMARK                         _______ _______ _______ _____ _____    ______ ____
ROOT
ATOM      1  C   UNL     1      49.576   7.707  17.254  0.00  0.00    +0.000 A 
ATOM      2  C   UNL     1      48.798   8.810  16.876  0.00  0.00    +0.000 A 
ATOM      3  C   UNL     1      48.452   9.012  15.536  0.00  0.00    +0.000 A 
ATOM      4  C   UNL     1      48.870   8.110  14.551  0.00  0.00    +0.000 A 
ATOM      5  C   UNL     1      49.646   7.006  14.930  0.00  0.00    +0.000 A 
ATOM      6  C   UNL     1      49.993   6.805  16.267  0.00  0.00    +0.000 A 
ENDROOT
BRANCH   1   7
ATOM      7  C   UNL     1      49.994   7.509  18.697  0.00  0.00    +0.000 C 
BRANCH   7   8
ATOM      8  N   UNL     1      48.879   7.189  19.604  0.00  0.00    +0.000 NA
ATOM      9  C   UNL     1      48.983   8.026  20.806  0.00  0.00    +0.000 C 
BRANCH   8  10
ATOM     10  C   UNL     1      48.903   5.751  19.975  0.00  0.00    +0.000 C 
BRANCH  10  16
ATOM     11  C   UNL     1      50.381   2.057  17.148  0.00  0.00    +0.000 C 
ATOM     12  C   UNL     1      49.291   3.024  17.499  0.00  0.00    +0.000 A 
ATOM     13  C   UNL     1      48.081   3.018  16.814  0.00  0.00    +0.000 A 
ATOM     14  C   UNL     1      47.118   3.966  17.145  0.00  0.00    +0.000 A 
ATOM     15  C   UNL     1      47.386   4.885  18.151  0.00  0.00    +0.000 A 
ATOM     16  C   UNL     1      48.609   4.814  18.815  0.00  0.00    +0.000 A 
ATOM     17  N   UNL     1      49.562   3.901  18.495  0.00  0.00    +0.000 NA
ENDBRANCH  10  16
ENDBRANCH   8  10
ENDBRANCH   7   8
ENDBRANCH   1   7
BRANCH   4  18
ATOM     18  C   UNL     1      48.566   8.361  13.099  0.00  0.00    +0.000 C 
BRANCH  18  19
ATOM     19  N   UNL     1      47.556   7.445  12.628  0.00  0.00    +0.000 N 
ATOM     20  C   UNL     1      46.222   7.697  12.812  0.00  0.00    +0.000 C 
ATOM     21  O   UNL     1      45.824   8.733  13.339  0.00  0.00    +0.000 OA
ATOM     22  H   UNL     1      47.861   6.509  12.383  0.00  0.00    +0.000 HD
BRANCH  20  23
ATOM     23  C   UNL     1      45.283   6.693  12.293  0.00  0.00    +0.000 A 
ATOM     24  C   UNL     1      44.153   7.108  11.600  0.00  0.00    +0.000 A 
ATOM     25  S   UNL     1      43.191   5.825  11.023  0.00  0.00    +0.000 S 
ATOM     26  C   UNL     1      44.223   4.666  11.723  0.00  0.00    +0.000 A 
ATOM     27  N   UNL     1      43.950   3.337  11.620  0.00  0.00    +0.000 NA
ATOM     28  C   UNL     1      44.794   2.572  12.226  0.00  0.00    +0.000 A 
ATOM     29  N   UNL     1      45.891   3.014  12.919  0.00  0.00    +0.000 N 
ATOM     30  C   UNL     1      46.223   4.345  13.022  0.00  0.00    +0.000 A 
ATOM     31  O   UNL     1      47.237   4.704  13.612  0.00  0.00    +0.000 OA
ATOM     32  C   UNL     1      45.298   5.250  12.371  0.00  0.00    +0.000 A 
ATOM     33  H   UNL     1      46.518   2.360  13.365  0.00  0.00    +0.000 HD
ENDBRANCH  20  23
ENDBRANCH  18  19
ENDBRANCH   4  18
TORSDOF 7
ENDMDL
MODEL 8
REMARK VINA RESULT:    -6.697      1.658      2.090
REMARK INTER + INTRA:         -10.524
REMARK INTER:                  -9.964
REMARK INTRA:                  -0.559
REMARK UNBOUND:                -1.086
REMARK  Name = 
REMARK  9 active torsions:
REMARK  status: ('A' for Active; 'I' for Inactive)
REMARK    1  A    between atoms: C_1  and  C_2
REMARK    2  A    between atoms: C_6  and  C_7
REMARK    3  A    between atoms: C_7  and  N_8
REMARK    4  A    between atoms: N_8  and  C_9
REMARK    5  A    between atoms: N_8  and  C_10
REMARK    6  A    between atoms: C_10  and  C_11
REMARK    7  A    between atoms: C_14  and  C_15
REMARK    8  A    between atoms: C_15  and  N_16
REMARK    9  A    between atoms: C_17  and  C_19
REMARK                            x       y       z     vdW  Elec       q    Type
REMARK                         _______ _______ _______ _____ _____    ______ ____
ROOT
ATOM      1  C   UNL     1      46.246   6.211  12.257  0.00  0.00    +0.000 A 
ATOM      2  C   UNL     1      45.549   7.404  12.488  0.00  0.00    +0.000 A 
ATOM      3  C   UNL     1      46.148   8.455  13.191  0.00  0.00    +0.000 A 
ATOM      4  C   UNL     1      47.458   8.334  13.667  0.00  0.00    +0.000 A 
ATOM      5  C   UNL     1      48.157   7.141  13.434  0.00  0.00    +0.000 A 
ATOM      6  C   UNL     1      47.558   6.092  12.734  0.00  0.00    +0.000 A 
ENDROOT
BRANCH   1   7
ATOM      7  C   UNL     1      45.586   5.053  11.538  0.00  0.00    +0.000 C 
BRANCH   7   8
ATOM      8  N   UNL     1      44.114   5.116  11.526  0.00  0.00    +0.000 NA
ATOM      9  C   UNL     1      43.584   4.128  12.475  0.00  0.00    +0.000 C 
BRANCH   8  10
ATOM     10  C   UNL     1      43.591   4.851  10.161  0.00  0.00    +0.000 C 
BRANCH  10  16
ATOM     11  C   UNL     1      46.924   3.981   6.705  0.00  0.00    +0.000 C 
ATOM     12  C   UNL     1      46.028   3.422   7.766  0.00  0.00    +0.000 A 
ATOM     13  C   UNL     1      45.990   2.056   8.024  0.00  0.00    +0.000 A 
ATOM     14  C   UNL     1      45.108   1.578   8.988  0.00  0.00    +0.000 A 
ATOM     15  C   UNL     1      44.295   2.476   9.669  0.00  0.00    +0.000 A 
ATOM     16  C   UNL     1      44.406   3.834   9.380  0.00  0.00    +0.000 A 
ATOM     17  N   UNL     1      45.256   4.311   8.434  0.00  0.00    +0.000 NA
ENDBRANCH  10  16
ENDBRANCH   8  10
ENDBRANCH   7   8
ENDBRANCH   1   7
BRANCH   4  18
ATOM     18  C   UNL     1      48.083   9.430  14.489  0.00  0.00    +0.000 C 
BRANCH  18  19
ATOM     19  N   UNL     1      47.767   9.258  15.886  0.00  0.00    +0.000 N 
ATOM     20  C   UNL     1      48.669   8.710  16.760  0.00  0.00    +0.000 C 
ATOM     21  O   UNL     1      49.800   8.388  16.407  0.00  0.00    +0.000 OA
ATOM     22  H   UNL     1      46.789   9.323  16.148  0.00  0.00    +0.000 HD
BRANCH  20  23
ATOM     23  C   UNL     1      48.238   8.582  18.158  0.00  0.00    +0.000 A 
ATOM     24  C   UNL     1      47.984   9.727  18.903  0.00  0.00    +0.000 A 
ATOM     25  S   UNL     1      47.448   9.409  20.489  0.00  0.00    +0.000 S 
ATOM     26  C   UNL     1      47.586   7.729  20.258  0.00  0.00    +0.000 A 
ATOM     27  N   UNL     1      47.296   6.860  21.264  0.00  0.00    +0.000 NA
ATOM     28  C   UNL     1      47.478   5.618  20.964  0.00  0.00    +0.000 A 
ATOM     29  N   UNL     1      47.915   5.165  19.746  0.00  0.00    +0.000 N 
ATOM     30  C   UNL     1      48.188   6.004  18.691  0.00  0.00    +0.000 A 
ATOM     31  O   UNL     1      48.534   5.562  17.600  0.00  0.00    +0.000 OA
ATOM     32  C   UNL     1      48.016   7.414  18.980  0.00  0.00    +0.000 A 
ATOM     33  H   UNL     1      48.028   4.177  19.573  0.00  0.00    +0.000 HD
ENDBRANCH  20  23
ENDBRANCH  18  19
ENDBRANCH   4  18
TORSDOF 7
ENDMDL
MODEL 9
REMARK VINA RESULT:    -6.599      3.479      8.915
REMARK INTER + INTRA:         -10.386
REMARK INTER:                  -8.723
REMARK INTRA:                  -1.663
REMARK UNBOUND:                -1.086
REMARK  Name = 
REMARK  9 active torsions:
REMARK  status: ('A' for Active; 'I' for Inactive)
REMARK    1  A    between atoms: C_1  and  C_2
REMARK    2  A    between atoms: C_6  and  C_7
REMARK    3  A    between atoms: C_7  and  N_8
REMARK    4  A    between atoms: N_8  and  C_9
REMARK    5  A    between atoms: N_8  and  C_10
REMARK    6  A    between atoms: C_10  and  C_11
REMARK    7  A    between atoms: C_14  and  C_15
REMARK    8  A    between atoms: C_15  and  N_16
REMARK    9  A    between atoms: C_17  and  C_19
REMARK                            x       y       z     vdW  Elec       q    Type
REMARK                         _______ _______ _______ _____ _____    ______ ____
ROOT
ATOM      1  C   UNL     1      49.371   8.320  18.286  0.00  0.00    +0.000 A 
ATOM      2  C   UNL     1      50.044   7.580  17.304  0.00  0.00    +0.000 A 
ATOM      3  C   UNL     1      49.727   7.739  15.951  0.00  0.00    +0.000 A 
ATOM      4  C   UNL     1      48.738   8.646  15.555  0.00  0.00    +0.000 A 
ATOM      5  C   UNL     1      48.067   9.387  16.537  0.00  0.00    +0.000 A 
ATOM      6  C   UNL     1      48.382   9.228  17.888  0.00  0.00    +0.000 A 
ENDROOT
BRANCH   1   7
ATOM      7  C   UNL     1      49.677   8.117  19.756  0.00  0.00    +0.000 C 
BRANCH   7   8
ATOM      8  N   UNL     1      48.784   7.157  20.427  0.00  0.00    +0.000 NA
ATOM      9  C   UNL     1      48.229   7.783  21.635  0.00  0.00    +0.000 C 
BRANCH   8  10
ATOM     10  C   UNL     1      49.521   5.918  20.783  0.00  0.00    +0.000 C 
BRANCH  10  16
ATOM     11  C   UNL     1      47.310   3.070  17.494  0.00  0.00    +0.000 C 
ATOM     12  C   UNL     1      48.597   3.611  18.036  0.00  0.00    +0.000 A 
ATOM     13  C   UNL     1      49.818   3.244  17.481  0.00  0.00    +0.000 A 
ATOM     14  C   UNL     1      50.989   3.736  18.049  0.00  0.00    +0.000 A 
ATOM     15  C   UNL     1      50.908   4.583  19.148  0.00  0.00    +0.000 A 
ATOM     16  C   UNL     1      49.650   4.931  19.634  0.00  0.00    +0.000 A 
ATOM     17  N   UNL     1      48.500   4.449  19.096  0.00  0.00    +0.000 NA
ENDBRANCH  10  16
ENDBRANCH   8  10
ENDBRANCH   7   8
ENDBRANCH   1   7
BRANCH   4  18
ATOM     18  C   UNL     1      48.339   8.768  14.109  0.00  0.00    +0.000 C 
BRANCH  18  19
ATOM     19  N   UNL     1      47.332   7.790  13.778  0.00  0.00    +0.000 N 
ATOM     20  C   UNL     1      47.657   6.612  13.157  0.00  0.00    +0.000 C 
ATOM     21  O   UNL     1      48.820   6.313  12.902  0.00  0.00    +0.000 OA
ATOM     22  H   UNL     1      46.366   8.101  13.791  0.00  0.00    +0.000 HD
BRANCH  20  23
ATOM     23  C   UNL     1      46.549   5.692  12.866  0.00  0.00    +0.000 A 
ATOM     24  C   UNL     1      46.684   4.343  13.168  0.00  0.00    +0.000 A 
ATOM     25  S   UNL     1      45.296   3.418  12.814  0.00  0.00    +0.000 S 
ATOM     26  C   UNL     1      44.481   4.778  12.196  0.00  0.00    +0.000 A 
ATOM     27  N   UNL     1      43.223   4.667  11.691  0.00  0.00    +0.000 NA
ATOM     28  C   UNL     1      42.738   5.768  11.223  0.00  0.00    +0.000 A 
ATOM     29  N   UNL     1      43.393   6.972  11.223  0.00  0.00    +0.000 N 
ATOM     30  C   UNL     1      44.652   7.138  11.752  0.00  0.00    +0.000 A 
ATOM     31  O   UNL     1      45.192   8.239  11.776  0.00  0.00    +0.000 OA
ATOM     32  C   UNL     1      45.251   5.927  12.277  0.00  0.00    +0.000 A 
ATOM     33  H   UNL     1      42.953   7.800  10.848  0.00  0.00    +0.000 HD
ENDBRANCH  20  23
ENDBRANCH  18  19
ENDBRANCH   4  18
TORSDOF 7
ENDMDL
