MODEL 1
REMARK VINA RESULT:    -6.844      0.000      0.000
REMARK INTER + INTRA:         -10.148
REMARK INTER:                  -9.245
REMARK INTRA:                  -0.904
REMARK UNBOUND:                -0.904
REMARK  Name = 
REMARK  8 active torsions:
REMARK  status: ('A' for Active; 'I' for Inactive)
REMARK    1  A    between atoms: C_1  and  N_2
REMARK    2  A    between atoms: N_2  and  C_3
REMARK    3  A    between atoms: N_2  and  C_4
REMARK    4  A    between atoms: C_6  and  C_7
REMARK    5  A    between atoms: C_12  and  O_13
REMARK    6  A    between atoms: O_13  and  C_14
REMARK    7  A    between atoms: C_14  and  C_15
REMARK    8  A    between atoms: C_19  and  N_20
REMARK                            x       y       z     vdW  Elec       q    Type
REMARK                         _______ _______ _______ _____ _____    ______ ____
ROOT
ATOM      1  O   UNL     1      47.608   5.463  13.499  0.00  0.00    +0.000 OA
ENDROOT
BRANCH   1   7
ATOM      2  C   UNL     1      48.580   6.251  15.573  0.00  0.00    +0.000 A 
ATOM      3  C   UNL     1      48.687   6.034  16.969  0.00  0.00    +0.000 A 
ATOM      4  C   UNL     1      48.088   4.938  17.631  0.00  0.00    +0.000 A 
ATOM      5  C   UNL     1      47.344   4.033  16.894  0.00  0.00    +0.000 A 
ATOM      6  C   UNL     1      47.212   4.211  15.525  0.00  0.00    +0.000 A 
ATOM      7  C   UNL     1      47.785   5.310  14.860  0.00  0.00    +0.000 A 
BRANCH   4   8
ATOM      8  C   UNL     1      48.297   4.774  19.092  0.00  0.00    +0.000 C 
ATOM      9  N   UNL     1      48.356   3.512  19.613  0.00  0.00    +0.000 N 
ATOM     10  O   UNL     1      48.428   5.744  19.831  0.00  0.00    +0.000 OA
ATOM     11  H   UNL     1      48.281   2.654  19.092  0.00  0.00    +0.000 HD
ATOM     12  H   UNL     1      48.538   3.439  20.606  0.00  0.00    +0.000 HD
ENDBRANCH   4   8
BRANCH   2  14
ATOM     13  C   UNL     1      50.665   7.495  15.038  0.00  0.00    +0.000 C 
ATOM     14  N   UNL     1      49.206   7.385  15.007  0.00  0.00    +0.000 N 
ATOM     15  C   UNL     1      48.509   8.667  15.160  0.00  0.00    +0.000 C 
ENDBRANCH   2  14
ENDBRANCH   1   7
BRANCH   1  16
ATOM     16  C   UNL     1      46.428   6.172  13.125  0.00  0.00    +0.000 C 
BRANCH  16  17
ATOM     17  C   UNL     1      45.329   5.289  12.598  0.00  0.00    +0.000 A 
ATOM     18  C   UNL     1      44.080   5.190  13.205  0.00  0.00    +0.000 A 
ATOM     19  C   UNL     1      43.069   4.480  12.566  0.00  0.00    +0.000 A 
ATOM     20  C   UNL     1      43.299   3.896  11.315  0.00  0.00    +0.000 A 
ATOM     21  C   UNL     1      44.539   3.980  10.667  0.00  0.00    +0.000 A 
ATOM     22  C   UNL     1      45.544   4.667  11.352  0.00  0.00    +0.000 A 
BRANCH  21  23
ATOM     23  N   UNL     1      44.750   3.456   9.409  0.00  0.00    +0.000 N 
ATOM     24  C   UNL     1      44.683   2.017   9.114  0.00  0.00    +0.000 C 
ATOM     25  C   UNL     1      45.984   1.536   8.432  0.00  0.00    +0.000 C 
ATOM     26  N   UNL     1      46.345   2.322   7.232  0.00  0.00    +0.000 NA
ATOM     27  C   UNL     1      46.437   3.748   7.615  0.00  0.00    +0.000 C 
ATOM     28  C   UNL     1      45.155   4.307   8.281  0.00  0.00    +0.000 C 
ATOM     29  H   UNL     1      45.585   2.229   6.559  0.00  0.00    +0.000 HD
ENDBRANCH  21  23
ENDBRANCH  16  17
ENDBRANCH   1  16
TORSDOF 6
ENDMDL
MODEL 2
REMARK VINA RESULT:    -6.727      2.690      3.470
REMARK INTER + INTRA:          -9.990
REMARK INTER:                  -9.173
REMARK INTRA:                  -0.816
REMARK UNBOUND:                -0.904
REMARK  Name = 
REMARK  8 active torsions:
REMARK  status: ('A' for Active; 'I' for Inactive)
REMARK    1  A    between atoms: C_1  and  N_2
REMARK    2  A    between atoms: N_2  and  C_3
REMARK    3  A    between atoms: N_2  and  C_4
REMARK    4  A    between atoms: C_6  and  C_7
REMARK    5  A    between atoms: C_12  and  O_13
REMARK    6  A    between atoms: O_13  and  C_14
REMARK    7  A    between atoms: C_14  and  C_15
REMARK    8  A    between atoms: C_19  and  N_20
REMARK                            x       y       z     vdW  Elec       q    Type
REMARK                         _______ _______ _______ _____ _____    ______ ____
ROOT
ATOM      1  O   UNL     1      47.761   4.804  16.445  0.00  0.00    +0.000 OA
ENDROOT
BRANCH   1   7
ATOM      2  C   UNL     1      50.055   4.695  17.215  0.00  0.00    +0.000 A 
ATOM      3  C   UNL     1      51.129   3.841  17.569  0.00  0.00    +0.000 A 
ATOM      4  C   UNL     1      51.064   2.433  17.470  0.00  0.00    +0.000 A 
ATOM      5  C   UNL     1      49.894   1.844  17.022  0.00  0.00    +0.000 A 
ATOM      6  C   UNL     1      48.818   2.644  16.668  0.00  0.00    +0.000 A 
ATOM      7  C   UNL     1      48.864   4.046  16.784  0.00  0.00    +0.000 A 
BRANCH   4   8
ATOM      8  C   UNL     1      52.261   1.627  17.823  0.00  0.00    +0.000 C 
ATOM      9  N   UNL     1      52.096   0.312  18.155  0.00  0.00    +0.000 N 
ATOM     10  O   UNL     1      53.385   2.116  17.810  0.00  0.00    +0.000 OA
ATOM     11  H   UNL     1      51.222  -0.187  18.177  0.00  0.00    +0.000 HD
ATOM     12  H   UNL     1      52.937  -0.215  18.352  0.00  0.00    +0.000 HD
ENDBRANCH   4   8
BRANCH   2  14
ATOM     13  C   UNL     1      51.164   6.804  16.507  0.00  0.00    +0.000 C 
ATOM     14  N   UNL     1      50.215   6.092  17.362  0.00  0.00    +0.000 N 
ATOM     15  C   UNL     1      50.127   6.625  18.727  0.00  0.00    +0.000 C 
ENDBRANCH   2  14
ENDBRANCH   1   7
BRANCH   1  16
ATOM     16  C   UNL     1      46.978   4.277  15.375  0.00  0.00    +0.000 C 
BRANCH  16  17
ATOM     17  C   UNL     1      46.921   5.170  14.165  0.00  0.00    +0.000 A 
ATOM     18  C   UNL     1      47.798   6.232  13.966  0.00  0.00    +0.000 A 
ATOM     19  C   UNL     1      47.783   6.906  12.749  0.00  0.00    +0.000 A 
ATOM     20  C   UNL     1      46.914   6.500  11.728  0.00  0.00    +0.000 A 
ATOM     21  C   UNL     1      46.023   5.430  11.886  0.00  0.00    +0.000 A 
ATOM     22  C   UNL     1      46.036   4.799  13.133  0.00  0.00    +0.000 A 
BRANCH  21  23
ATOM     23  N   UNL     1      45.209   4.992  10.863  0.00  0.00    +0.000 N 
ATOM     24  C   UNL     1      44.035   4.133  11.080  0.00  0.00    +0.000 C 
ATOM     25  C   UNL     1      44.118   2.861  10.205  0.00  0.00    +0.000 C 
ATOM     26  N   UNL     1      44.327   3.147   8.769  0.00  0.00    +0.000 NA
ATOM     27  C   UNL     1      45.544   3.974   8.627  0.00  0.00    +0.000 C 
ATOM     28  C   UNL     1      45.520   5.282   9.456  0.00  0.00    +0.000 C 
ATOM     29  H   UNL     1      43.535   3.701   8.443  0.00  0.00    +0.000 HD
ENDBRANCH  21  23
ENDBRANCH  16  17
ENDBRANCH   1  16
TORSDOF 6
ENDMDL
MODEL 3
REMARK VINA RESULT:    -6.471      2.470      3.974
REMARK INTER + INTRA:          -9.644
REMARK INTER:                  -8.801
REMARK INTRA:                  -0.843
REMARK UNBOUND:                -0.904
REMARK  Name = 
REMARK  8 active torsions:
REMARK  status: ('A' for Active; 'I' for Inactive)
REMARK    1  A    between atoms: C_1  and  N_2
REMARK    2  A    between atoms: N_2  and  C_3
REMARK    3  A    between atoms: N_2  and  C_4
REMARK    4  A    between atoms: C_6  and  C_7
REMARK    5  A    between atoms: C_12  and  O_13
REMARK    6  A    between atoms: O_13  and  C_14
REMARK    7  A    between atoms: C_14  and  C_15
REMARK    8  A    between atoms: C_19  and  N_20
REMARK                            x       y       z     vdW  Elec       q    Type
REMARK                         _______ _______ _______ _____ _____    ______ ____
ROOT
ATOM      1  O   UNL     1      48.861   5.198  15.900  0.00  0.00    +0.000 OA
ENDROOT
BRANCH   1   7
ATOM      2  C   UNL     1      49.750   4.496  18.040  0.00  0.00    +0.000 A 
ATOM      3  C   UNL     1      49.584   4.544  19.447  0.00  0.00    +0.000 A 
ATOM      4  C   UNL     1      48.492   5.183  20.076  0.00  0.00    +0.000 A 
ATOM      5  C   UNL     1      47.537   5.809  19.294  0.00  0.00    +0.000 A 
ATOM      6  C   UNL     1      47.664   5.788  17.912  0.00  0.00    +0.000 A 
ATOM      7  C   UNL     1      48.759   5.175  17.277  0.00  0.00    +0.000 A 
BRANCH   4   8
ATOM      8  C   UNL     1      48.384   5.139  21.558  0.00  0.00    +0.000 C 
ATOM      9  N   UNL     1      47.151   5.265  22.134  0.00  0.00    +0.000 N 
ATOM     10  O   UNL     1      49.373   4.982  22.264  0.00  0.00    +0.000 OA
ATOM     11  H   UNL     1      46.279   5.377  21.644  0.00  0.00    +0.000 HD
ATOM     12  H   UNL     1      47.112   5.192  23.142  0.00  0.00    +0.000 HD
ENDBRANCH   4   8
BRANCH   2  14
ATOM     13  C   UNL     1      50.887   2.386  17.381  0.00  0.00    +0.000 C 
ATOM     14  N   UNL     1      50.886   3.843  17.509  0.00  0.00    +0.000 N 
ATOM     15  C   UNL     1      52.194   4.413  17.851  0.00  0.00    +0.000 C 
ENDBRANCH   2  14
ENDBRANCH   1   7
BRANCH   1  16
ATOM     16  C   UNL     1      48.857   6.502  15.322  0.00  0.00    +0.000 C 
BRANCH  16  17
ATOM     17  C   UNL     1      48.051   6.604  14.055  0.00  0.00    +0.000 A 
ATOM     18  C   UNL     1      48.472   7.330  12.945  0.00  0.00    +0.000 A 
ATOM     19  C   UNL     1      47.749   7.242  11.761  0.00  0.00    +0.000 A 
ATOM     20  C   UNL     1      46.626   6.409  11.680  0.00  0.00    +0.000 A 
ATOM     21  C   UNL     1      46.174   5.655  12.772  0.00  0.00    +0.000 A 
ATOM     22  C   UNL     1      46.900   5.796  13.958  0.00  0.00    +0.000 A 
BRANCH  21  23
ATOM     23  N   UNL     1      45.105   4.790  12.679  0.00  0.00    +0.000 N 
ATOM     24  C   UNL     1      45.234   3.394  12.236  0.00  0.00    +0.000 C 
ATOM     25  C   UNL     1      44.279   3.102  11.056  0.00  0.00    +0.000 C 
ATOM     26  N   UNL     1      42.870   3.456  11.338  0.00  0.00    +0.000 NA
ATOM     27  C   UNL     1      42.814   4.880  11.733  0.00  0.00    +0.000 C 
ATOM     28  C   UNL     1      43.728   5.241  12.930  0.00  0.00    +0.000 C 
ATOM     29  H   UNL     1      42.563   2.900  12.136  0.00  0.00    +0.000 HD
ENDBRANCH  21  23
ENDBRANCH  16  17
ENDBRANCH   1  16
TORSDOF 6
ENDMDL
MODEL 4
REMARK VINA RESULT:    -6.381      3.343      5.140
REMARK INTER + INTRA:          -9.522
REMARK INTER:                  -8.649
REMARK INTRA:                  -0.873
REMARK UNBOUND:                -0.904
REMARK  Name = 
REMARK  8 active torsions:
REMARK  status: ('A' for Active; 'I' for Inactive)
REMARK    1  A    between atoms: C_1  and  N_2
REMARK    2  A    between atoms: N_2  and  C_3
REMARK    3  A    between atoms: N_2  and  C_4
REMARK    4  A    between atoms: C_6  and  C_7
REMARK    5  A    between atoms: C_12  and  O_13
REMARK    6  A    between atoms: O_13  and  C_14
REMARK    7  A    between atoms: C_14  and  C_15
REMARK    8  A    between atoms: C_19  and  N_20
REMARK                            x       y       z     vdW  Elec       q    Type
REMARK                         _______ _______ _______ _____ _____    ______ ____
ROOT
ATOM      1  O   UNL     1      46.962   6.349  12.127  0.00  0.00    +0.000 OA
ENDROOT
BRANCH   1   7
ATOM      2  C   UNL     1      47.067   8.757  12.373  0.00  0.00    +0.000 A 
ATOM      3  C   UNL     1      46.386   9.983  12.170  0.00  0.00    +0.000 A 
ATOM      4  C   UNL     1      45.071  10.062  11.658  0.00  0.00    +0.000 A 
ATOM      5  C   UNL     1      44.410   8.895  11.319  0.00  0.00    +0.000 A 
ATOM      6  C   UNL     1      45.043   7.673  11.499  0.00  0.00    +0.000 A 
ATOM      7  C   UNL     1      46.359   7.584  11.987  0.00  0.00    +0.000 A 
BRANCH   4   8
ATOM      8  C   UNL     1      44.427  11.394  11.525  0.00  0.00    +0.000 C 
ATOM      9  N   UNL     1      45.053  12.487  12.056  0.00  0.00    +0.000 N 
ATOM     10  O   UNL     1      43.358  11.530  10.940  0.00  0.00    +0.000 OA
ATOM     11  H   UNL     1      45.938  12.485  12.535  0.00  0.00    +0.000 HD
ATOM     12  H   UNL     1      44.603  13.382  11.912  0.00  0.00    +0.000 HD
ENDBRANCH   4   8
BRANCH   2  14
ATOM     13  C   UNL     1      48.672   9.510  14.116  0.00  0.00    +0.000 C 
ATOM     14  N   UNL     1      48.387   8.784  12.879  0.00  0.00    +0.000 N 
ATOM     15  C   UNL     1      49.470   8.844  11.890  0.00  0.00    +0.000 C 
ENDBRANCH   2  14
ENDBRANCH   1   7
BRANCH   1  16
ATOM     16  C   UNL     1      46.363   5.499  13.102  0.00  0.00    +0.000 C 
BRANCH  16  17
ATOM     17  C   UNL     1      45.406   4.490  12.525  0.00  0.00    +0.000 A 
ATOM     18  C   UNL     1      44.230   4.110  13.165  0.00  0.00    +0.000 A 
ATOM     19  C   UNL     1      43.324   3.298  12.492  0.00  0.00    +0.000 A 
ATOM     20  C   UNL     1      43.581   2.891  11.177  0.00  0.00    +0.000 A 
ATOM     21  C   UNL     1      44.749   3.259  10.495  0.00  0.00    +0.000 A 
ATOM     22  C   UNL     1      45.656   4.044  11.212  0.00  0.00    +0.000 A 
BRANCH  21  23
ATOM     23  N   UNL     1      44.977   2.909   9.181  0.00  0.00    +0.000 N 
ATOM     24  C   UNL     1      45.210   1.524   8.746  0.00  0.00    +0.000 C 
ATOM     25  C   UNL     1      46.532   1.416   7.950  0.00  0.00    +0.000 C 
ATOM     26  N   UNL     1      46.617   2.364   6.819  0.00  0.00    +0.000 NA
ATOM     27  C   UNL     1      46.417   3.734   7.339  0.00  0.00    +0.000 C 
ATOM     28  C   UNL     1      45.096   3.925   8.126  0.00  0.00    +0.000 C 
ATOM     29  H   UNL     1      45.849   2.158   6.181  0.00  0.00    +0.000 HD
ENDBRANCH  21  23
ENDBRANCH  16  17
ENDBRANCH   1  16
TORSDOF 6
ENDMDL
MODEL 5
REMARK VINA RESULT:    -6.360      2.456      4.045
REMARK INTER + INTRA:          -9.495
REMARK INTER:                  -8.831
REMARK INTRA:                  -0.664
REMARK UNBOUND:                -0.904
REMARK  Name = 
REMARK  8 active torsions:
REMARK  status: ('A' for Active; 'I' for Inactive)
REMARK    1  A    between atoms: C_1  and  N_2
REMARK    2  A    between atoms: N_2  and  C_3
REMARK    3  A    between atoms: N_2  and  C_4
REMARK    4  A    between atoms: C_6  and  C_7
REMARK    5  A    between atoms: C_12  and  O_13
REMARK    6  A    between atoms: O_13  and  C_14
REMARK    7  A    between atoms: C_14  and  C_15
REMARK    8  A    between atoms: C_19  and  N_20
REMARK                            x       y       z     vdW  Elec       q    Type
REMARK                         _______ _______ _______ _____ _____    ______ ____
ROOT
ATOM      1  O   UNL     1      48.861   5.365  15.898  0.00  0.00    +0.000 OA
ENDROOT
BRANCH   1   7
ATOM      2  C   UNL     1      48.970   4.324  18.083  0.00  0.00    +0.000 A 
ATOM      3  C   UNL     1      48.805   4.515  19.477  0.00  0.00    +0.000 A 
ATOM      4  C   UNL     1      48.362   5.731  20.045  0.00  0.00    +0.000 A 
ATOM      5  C   UNL     1      48.087   6.801  19.212  0.00  0.00    +0.000 A 
ATOM      6  C   UNL     1      48.238   6.657  17.841  0.00  0.00    +0.000 A 
ATOM      7  C   UNL     1      48.700   5.458  17.267  0.00  0.00    +0.000 A 
BRANCH   4   8
ATOM      8  C   UNL     1      48.178   5.817  21.517  0.00  0.00    +0.000 C 
ATOM      9  N   UNL     1      47.083   5.225  22.081  0.00  0.00    +0.000 N 
ATOM     10  O   UNL     1      48.992   6.394  22.229  0.00  0.00    +0.000 OA
ATOM     11  H   UNL     1      46.370   4.712  21.589  0.00  0.00    +0.000 HD
ATOM     12  H   UNL     1      47.011   5.271  23.089  0.00  0.00    +0.000 HD
ENDBRANCH   4   8
BRANCH   2  14
ATOM     13  C   UNL     1      50.860   2.874  17.371  0.00  0.00    +0.000 C 
ATOM     14  N   UNL     1      49.431   3.072  17.615  0.00  0.00    +0.000 N 
ATOM     15  C   UNL     1      48.561   2.361  16.671  0.00  0.00    +0.000 C 
ENDBRANCH   2  14
ENDBRANCH   1   7
BRANCH   1  16
ATOM     16  C   UNL     1      48.963   6.616  15.221  0.00  0.00    +0.000 C 
BRANCH  16  17
ATOM     17  C   UNL     1      48.141   6.696  13.963  0.00  0.00    +0.000 A 
ATOM     18  C   UNL     1      48.555   7.390  12.830  0.00  0.00    +0.000 A 
ATOM     19  C   UNL     1      47.815   7.280  11.658  0.00  0.00    +0.000 A 
ATOM     20  C   UNL     1      46.682   6.458  11.613  0.00  0.00    +0.000 A 
ATOM     21  C   UNL     1      46.237   5.736  12.729  0.00  0.00    +0.000 A 
ATOM     22  C   UNL     1      46.981   5.898  13.901  0.00  0.00    +0.000 A 
BRANCH  21  23
ATOM     23  N   UNL     1      45.157   4.881  12.671  0.00  0.00    +0.000 N 
ATOM     24  C   UNL     1      45.268   3.469  12.272  0.00  0.00    +0.000 C 
ATOM     25  C   UNL     1      44.301   3.151  11.109  0.00  0.00    +0.000 C 
ATOM     26  N   UNL     1      42.898   3.530  11.390  0.00  0.00    +0.000 NA
ATOM     27  C   UNL     1      42.861   4.966  11.739  0.00  0.00    +0.000 C 
ATOM     28  C   UNL     1      43.788   5.355  12.917  0.00  0.00    +0.000 C 
ATOM     29  H   UNL     1      42.591   3.003  12.207  0.00  0.00    +0.000 HD
ENDBRANCH  21  23
ENDBRANCH  16  17
ENDBRANCH   1  16
TORSDOF 6
ENDMDL
MODEL 6
REMARK VINA RESULT:    -6.295      2.028      3.991
REMARK INTER + INTRA:          -9.406
REMARK INTER:                  -8.631
REMARK INTRA:                  -0.775
REMARK UNBOUND:                -0.904
REMARK  Name = 
REMARK  8 active torsions:
REMARK  status: ('A' for Active; 'I' for Inactive)
REMARK    1  A    between atoms: C_1  and  N_2
REMARK    2  A    between atoms: N_2  and  C_3
REMARK    3  A    between atoms: N_2  and  C_4
REMARK    4  A    between atoms: C_6  and  C_7
REMARK    5  A    between atoms: C_12  and  O_13
REMARK    6  A    between atoms: O_13  and  C_14
REMARK    7  A    between atoms: C_14  and  C_15
REMARK    8  A    between atoms: C_19  and  N_20
REMARK                            x       y       z     vdW  Elec       q    Type
REMARK                         _______ _______ _______ _____ _____    ______ ____
ROOT
ATOM      1  O   UNL     1      47.670   4.926  13.256  0.00  0.00    +0.000 OA
ENDROOT
BRANCH   1   7
ATOM      2  C   UNL     1      48.434   7.065  14.097  0.00  0.00    +0.000 A 
ATOM      3  C   UNL     1      48.451   8.465  13.883  0.00  0.00    +0.000 A 
ATOM      4  C   UNL     1      47.771   9.094  12.815  0.00  0.00    +0.000 A 
ATOM      5  C   UNL     1      47.063   8.314  11.917  0.00  0.00    +0.000 A 
ATOM      6  C   UNL     1      47.023   6.938  12.089  0.00  0.00    +0.000 A 
ATOM      7  C   UNL     1      47.715   6.300  13.136  0.00  0.00    +0.000 A 
BRANCH   4   8
ATOM      8  C   UNL     1      47.813  10.575  12.703  0.00  0.00    +0.000 C 
ATOM      9  N   UNL     1      48.407  11.296  13.700  0.00  0.00    +0.000 N 
ATOM     10  O   UNL     1      47.339  11.154  11.732  0.00  0.00    +0.000 OA
ATOM     11  H   UNL     1      48.842  10.916  14.526  0.00  0.00    +0.000 HD
ATOM     12  H   UNL     1      48.451  12.298  13.571  0.00  0.00    +0.000 HD
ENDBRANCH   4   8
BRANCH   2  14
ATOM     13  C   UNL     1      48.442   6.101  16.389  0.00  0.00    +0.000 C 
ATOM     14  N   UNL     1      49.158   6.531  15.188  0.00  0.00    +0.000 N 
ATOM     15  C   UNL     1      50.473   7.124  15.459  0.00  0.00    +0.000 C 
ENDBRANCH   2  14
ENDBRANCH   1   7
BRANCH   1  16
ATOM     16  C   UNL     1      46.494   4.417  13.882  0.00  0.00    +0.000 C 
BRANCH  16  17
ATOM     17  C   UNL     1      45.293   4.373  12.976  0.00  0.00    +0.000 A 
ATOM     18  C   UNL     1      44.087   4.995  13.285  0.00  0.00    +0.000 A 
ATOM     19  C   UNL     1      43.082   5.044  12.325  0.00  0.00    +0.000 A 
ATOM     20  C   UNL     1      43.294   4.498  11.053  0.00  0.00    +0.000 A 
ATOM     21  C   UNL     1      44.497   3.872  10.699  0.00  0.00    +0.000 A 
ATOM     22  C   UNL     1      45.471   3.805  11.698  0.00  0.00    +0.000 A 
BRANCH  21  23
ATOM     23  N   UNL     1      44.729   3.386   9.430  0.00  0.00    +0.000 N 
ATOM     24  C   UNL     1      44.722   1.953   9.102  0.00  0.00    +0.000 C 
ATOM     25  C   UNL     1      46.042   1.542   8.410  0.00  0.00    +0.000 C 
ATOM     26  N   UNL     1      46.368   2.370   7.228  0.00  0.00    +0.000 NA
ATOM     27  C   UNL     1      46.400   3.789   7.643  0.00  0.00    +0.000 C 
ATOM     28  C   UNL     1      45.097   4.279   8.322  0.00  0.00    +0.000 C 
ATOM     29  H   UNL     1      45.612   2.260   6.552  0.00  0.00    +0.000 HD
ENDBRANCH  21  23
ENDBRANCH  16  17
ENDBRANCH   1  16
TORSDOF 6
ENDMDL
MODEL 7
REMARK VINA RESULT:    -6.124      3.146      8.491
REMARK INTER + INTRA:          -9.176
REMARK INTER:                  -8.331
REMARK INTRA:                  -0.845
REMARK UNBOUND:                -0.904
REMARK  Name = 
REMARK  8 active torsions:
REMARK  status: ('A' for Active; 'I' for Inactive)
REMARK    1  A    between atoms: C_1  and  N_2
REMARK    2  A    between atoms: N_2  and  C_3
REMARK    3  A    between atoms: N_2  and  C_4
REMARK    4  A    between atoms: C_6  and  C_7
REMARK    5  A    between atoms: C_12  and  O_13
REMARK    6  A    between atoms: O_13  and  C_14
REMARK    7  A    between atoms: C_14  and  C_15
REMARK    8  A    between atoms: C_19  and  N_20
REMARK                            x       y       z     vdW  Elec       q    Type
REMARK                         _______ _______ _______ _____ _____    ______ ____
ROOT
ATOM      1  O   UNL     1      47.848   5.354  14.723  0.00  0.00    +0.000 OA
ENDROOT
BRANCH   1   7
ATOM      2  C   UNL     1      46.433   6.066  12.891  0.00  0.00    +0.000 A 
ATOM      3  C   UNL     1      45.533   5.648  11.879  0.00  0.00    +0.000 A 
ATOM      4  C   UNL     1      45.122   4.306  11.715  0.00  0.00    +0.000 A 
ATOM      5  C   UNL     1      45.627   3.339  12.567  0.00  0.00    +0.000 A 
ATOM      6  C   UNL     1      46.512   3.706  13.570  0.00  0.00    +0.000 A 
ATOM      7  C   UNL     1      46.945   5.036  13.728  0.00  0.00    +0.000 A 
BRANCH   4   8
ATOM      8  C   UNL     1      44.140   3.976  10.650  0.00  0.00    +0.000 C 
ATOM      9  N   UNL     1      44.144   4.709   9.497  0.00  0.00    +0.000 N 
ATOM     10  O   UNL     1      43.340   3.056  10.784  0.00  0.00    +0.000 OA
ATOM     11  H   UNL     1      44.770   5.468   9.282  0.00  0.00    +0.000 HD
ATOM     12  H   UNL     1      43.487   4.430   8.780  0.00  0.00    +0.000 HD
ENDBRANCH   4   8
BRANCH   2  14
ATOM     13  C   UNL     1      45.746   8.453  12.998  0.00  0.00    +0.000 C 
ATOM     14  N   UNL     1      46.792   7.432  12.964  0.00  0.00    +0.000 N 
ATOM     15  C   UNL     1      47.996   7.836  12.228  0.00  0.00    +0.000 C 
ENDBRANCH   2  14
ENDBRANCH   1   7
BRANCH   1  16
ATOM     16  C   UNL     1      47.526   4.835  16.011  0.00  0.00    +0.000 C 
BRANCH  16  17
ATOM     17  C   UNL     1      48.639   4.043  16.644  0.00  0.00    +0.000 A 
ATOM     18  C   UNL     1      48.676   2.651  16.638  0.00  0.00    +0.000 A 
ATOM     19  C   UNL     1      49.815   2.001  17.099  0.00  0.00    +0.000 A 
ATOM     20  C   UNL     1      50.921   2.739  17.537  0.00  0.00    +0.000 A 
ATOM     21  C   UNL     1      50.927   4.140  17.550  0.00  0.00    +0.000 A 
ATOM     22  C   UNL     1      49.754   4.763  17.117  0.00  0.00    +0.000 A 
BRANCH  21  23
ATOM     23  N   UNL     1      52.036   4.869  17.925  0.00  0.00    +0.000 N 
ATOM     24  C   UNL     1      52.609   5.944  17.102  0.00  0.00    +0.000 C 
ATOM     25  C   UNL     1      54.112   5.692  16.842  0.00  0.00    +0.000 C 
ATOM     26  N   UNL     1      54.895   5.476  18.078  0.00  0.00    +0.000 NA
ATOM     27  C   UNL     1      54.287   4.356  18.829  0.00  0.00    +0.000 C 
ATOM     28  C   UNL     1      52.784   4.553  19.150  0.00  0.00    +0.000 C 
ATOM     29  H   UNL     1      54.812   6.316  18.650  0.00  0.00    +0.000 HD
ENDBRANCH  21  23
ENDBRANCH  16  17
ENDBRANCH   1  16
TORSDOF 6
ENDMDL
MODEL 8
REMARK VINA RESULT:    -6.022      2.599      4.239
REMARK INTER + INTRA:          -9.038
REMARK INTER:                  -8.147
REMARK INTRA:                  -0.890
REMARK UNBOUND:                -0.904
REMARK  Name = 
REMARK  8 active torsions:
REMARK  status: ('A' for Active; 'I' for Inactive)
REMARK    1  A    between atoms: C_1  and  N_2
REMARK    2  A    between atoms: N_2  and  C_3
REMARK    3  A    between atoms: N_2  and  C_4
REMARK    4  A    between atoms: C_6  and  C_7
REMARK    5  A    between atoms: C_12  and  O_13
REMARK    6  A    between atoms: O_13  and  C_14
REMARK    7  A    between atoms: C_14  and  C_15
REMARK    8  A    between atoms: C_19  and  N_20
REMARK                            x       y       z     vdW  Elec       q    Type
REMARK                         _______ _______ _______ _____ _____    ______ ____
ROOT
ATOM      1  O   UNL     1      49.026   7.338  15.674  0.00  0.00    +0.000 OA
ENDROOT
BRANCH   1   7
ATOM      2  C   UNL     1      49.408   5.326  16.967  0.00  0.00    +0.000 A 
ATOM      3  C   UNL     1      50.385   4.474  17.540  0.00  0.00    +0.000 A 
ATOM      4  C   UNL     1      51.772   4.741  17.488  0.00  0.00    +0.000 A 
ATOM      5  C   UNL     1      52.214   5.878  16.835  0.00  0.00    +0.000 A 
ATOM      6  C   UNL     1      51.290   6.738  16.257  0.00  0.00    +0.000 A 
ATOM      7  C   UNL     1      49.909   6.470  16.284  0.00  0.00    +0.000 A 
BRANCH   4   8
ATOM      8  C   UNL     1      52.713   3.808  18.159  0.00  0.00    +0.000 C 
ATOM      9  N   UNL     1      52.209   2.722  18.818  0.00  0.00    +0.000 N 
ATOM     10  O   UNL     1      53.925   3.988  18.120  0.00  0.00    +0.000 OA
ATOM     11  H   UNL     1      51.236   2.475  18.891  0.00  0.00    +0.000 HD
ATOM     12  H   UNL     1      52.882   2.089  19.230  0.00  0.00    +0.000 HD
ENDBRANCH   4   8
BRANCH   2  14
ATOM     13  C   UNL     1      47.339   5.135  18.331  0.00  0.00    +0.000 C 
ATOM     14  N   UNL     1      48.045   4.964  17.062  0.00  0.00    +0.000 N 
ATOM     15  C   UNL     1      47.623   3.783  16.299  0.00  0.00    +0.000 C 
ENDBRANCH   2  14
ENDBRANCH   1   7
BRANCH   1  16
ATOM     16  C   UNL     1      48.995   7.260  14.251  0.00  0.00    +0.000 C 
BRANCH  16  17
ATOM     17  C   UNL     1      47.627   7.469  13.659  0.00  0.00    +0.000 A 
ATOM     18  C   UNL     1      47.244   8.655  13.039  0.00  0.00    +0.000 A 
ATOM     19  C   UNL     1      46.023   8.710  12.376  0.00  0.00    +0.000 A 
ATOM     20  C   UNL     1      45.202   7.577  12.311  0.00  0.00    +0.000 A 
ATOM     21  C   UNL     1      45.556   6.362  12.914  0.00  0.00    +0.000 A 
ATOM     22  C   UNL     1      46.771   6.351  13.604  0.00  0.00    +0.000 A 
BRANCH  21  23
ATOM     23  N   UNL     1      44.779   5.229  12.801  0.00  0.00    +0.000 N 
ATOM     24  C   UNL     1      45.327   3.907  12.467  0.00  0.00    +0.000 C 
ATOM     25  C   UNL     1      44.599   3.305  11.243  0.00  0.00    +0.000 C 
ATOM     26  N   UNL     1      43.128   3.263  11.394  0.00  0.00    +0.000 NA
ATOM     27  C   UNL     1      42.647   4.631  11.685  0.00  0.00    +0.000 C 
ATOM     28  C   UNL     1      43.315   5.288  12.919  0.00  0.00    +0.000 C 
ATOM     29  H   UNL     1      42.915   2.681  12.204  0.00  0.00    +0.000 HD
ENDBRANCH  21  23
ENDBRANCH  16  17
ENDBRANCH   1  16
TORSDOF 6
ENDMDL
MODEL 9
REMARK VINA RESULT:    -5.963      2.519      8.811
REMARK INTER + INTRA:          -8.959
REMARK INTER:                  -8.217
REMARK INTRA:                  -0.742
REMARK UNBOUND:                -0.904
REMARK  Name = 
REMARK  8 active torsions:
REMARK  status: ('A' for Active; 'I' for Inactive)
REMARK    1  A    between atoms: C_1  and  N_2
REMARK    2  A    between atoms: N_2  and  C_3
REMARK    3  A    between atoms: N_2  and  C_4
REMARK    4  A    between atoms: C_6  and  C_7
REMARK    5  A    between atoms: C_12  and  O_13
REMARK    6  A    between atoms: O_13  and  C_14
REMARK    7  A    between atoms: C_14  and  C_15
REMARK    8  A    between atoms: C_19  and  N_20
REMARK                            x       y       z     vdW  Elec       q    Type
REMARK                         _______ _______ _______ _____ _____    ______ ____
ROOT
ATOM      1  O   UNL     1      47.709   4.702  14.670  0.00  0.00    +0.000 OA
ENDROOT
BRANCH   1   7
ATOM      2  C   UNL     1      46.659   5.979  12.900  0.00  0.00    +0.000 A 
ATOM      3  C   UNL     1      45.758   5.938  11.807  0.00  0.00    +0.000 A 
ATOM      4  C   UNL     1      45.030   4.783  11.446  0.00  0.00    +0.000 A 
ATOM      5  C   UNL     1      45.207   3.621  12.177  0.00  0.00    +0.000 A 
ATOM      6  C   UNL     1      46.082   3.617  13.254  0.00  0.00    +0.000 A 
ATOM      7  C   UNL     1      46.829   4.756  13.607  0.00  0.00    +0.000 A 
BRANCH   4   8
ATOM      8  C   UNL     1      44.075   4.855  10.310  0.00  0.00    +0.000 C 
ATOM      9  N   UNL     1      44.514   4.532   9.057  0.00  0.00    +0.000 N 
ATOM     10  O   UNL     1      42.906   5.185  10.480  0.00  0.00    +0.000 OA
ATOM     11  H   UNL     1      45.444   4.230   8.816  0.00  0.00    +0.000 HD
ATOM     12  H   UNL     1      43.826   4.555   8.315  0.00  0.00    +0.000 HD
ENDBRANCH   4   8
BRANCH   2  14
ATOM     13  C   UNL     1      46.603   8.433  13.291  0.00  0.00    +0.000 C 
ATOM     14  N   UNL     1      47.350   7.182  13.172  0.00  0.00    +0.000 N 
ATOM     15  C   UNL     1      48.674   7.335  12.556  0.00  0.00    +0.000 C 
ENDBRANCH   2  14
ENDBRANCH   1   7
BRANCH   1  16
ATOM     16  C   UNL     1      47.393   3.725  15.660  0.00  0.00    +0.000 C 
BRANCH  16  17
ATOM     17  C   UNL     1      48.067   3.960  16.985  0.00  0.00    +0.000 A 
ATOM     18  C   UNL     1      49.279   3.373  17.333  0.00  0.00    +0.000 A 
ATOM     19  C   UNL     1      49.913   3.768  18.506  0.00  0.00    +0.000 A 
ATOM     20  C   UNL     1      49.350   4.765  19.311  0.00  0.00    +0.000 A 
ATOM     21  C   UNL     1      48.136   5.387  18.991  0.00  0.00    +0.000 A 
ATOM     22  C   UNL     1      47.505   4.941  17.827  0.00  0.00    +0.000 A 
BRANCH  21  23
ATOM     23  N   UNL     1      47.609   6.410  19.751  0.00  0.00    +0.000 N 
ATOM     24  C   UNL     1      47.401   7.772  19.235  0.00  0.00    +0.000 C 
ATOM     25  C   UNL     1      48.099   8.813  20.141  0.00  0.00    +0.000 C 
ATOM     26  N   UNL     1      47.716   8.705  21.566  0.00  0.00    +0.000 NA
ATOM     27  C   UNL     1      47.993   7.326  22.023  0.00  0.00    +0.000 C 
ATOM     28  C   UNL     1      47.302   6.228  21.177  0.00  0.00    +0.000 C 
ATOM     29  H   UNL     1      46.710   8.857  21.630  0.00  0.00    +0.000 HD
ENDBRANCH  21  23
ENDBRANCH  16  17
ENDBRANCH   1  16
TORSDOF 6
ENDMDL
