MODEL 1
REMARK VINA RESULT:    -8.235      0.000      0.000
REMARK INTER + INTRA:         -12.935
REMARK INTER:                 -11.845
REMARK INTRA:                  -1.090
REMARK UNBOUND:                -1.090
REMARK  Name = 
REMARK  9 active torsions:
REMARK  status: ('A' for Active; 'I' for Inactive)
REMARK    1  A    between atoms: C_1  and  C_2
REMARK    2  A    between atoms: C_6  and  C_7
REMARK    3  A    between atoms: C_7  and  C_8
REMARK    4  A    between atoms: C_8  and  N_9
REMARK    5  A    between atoms: N_9  and  C_10
REMARK    6  A    between atoms: C_13  and  C_14
REMARK    7  A    between atoms: C_14  and  N_15
REMARK    8  A    between atoms: C_16  and  C_18
REMARK    9  A    between atoms: C_25  and  O_26
REMARK                            x       y       z     vdW  Elec       q    Type
REMARK                         _______ _______ _______ _____ _____    ______ ____
ROOT
ATOM      1  C   UNL     1      44.409   5.581  11.546  0.00  0.00    +0.000 A 
ATOM      2  C   UNL     1      45.452   5.008  12.283  0.00  0.00    +0.000 A 
ATOM      3  C   UNL     1      46.412   5.790  12.931  0.00  0.00    +0.000 A 
ATOM      4  C   UNL     1      46.374   7.183  12.841  0.00  0.00    +0.000 A 
ATOM      5  C   UNL     1      45.374   7.771  12.058  0.00  0.00    +0.000 A 
ATOM      6  C   UNL     1      44.403   6.977  11.423  0.00  0.00    +0.000 A 
ENDROOT
BRANCH   1   7
ATOM      7  N   UNL     1      43.453   4.828  10.844  0.00  0.00    +0.000 N 
ATOM      8  H   UNL     1      42.675   4.569  11.446  0.00  0.00    +0.000 HD
BRANCH   7   9
ATOM      9  C   UNL     1      43.938   3.742   9.978  0.00  0.00    +0.000 C 
BRANCH   9  10
ATOM     10  C   UNL     1      44.682   4.267   8.747  0.00  0.00    +0.000 C 
BRANCH  10  16
ATOM     11  C   UNL     1      47.739   2.663   5.065  0.00  0.00    +0.000 C 
ATOM     12  C   UNL     1      46.985   2.387   6.333  0.00  0.00    +0.000 A 
ATOM     13  C   UNL     1      47.043   1.129   6.942  0.00  0.00    +0.000 A 
ATOM     14  C   UNL     1      46.342   0.885   8.122  0.00  0.00    +0.000 A 
ATOM     15  C   UNL     1      45.570   1.894   8.703  0.00  0.00    +0.000 A 
ATOM     16  C   UNL     1      45.488   3.158   8.105  0.00  0.00    +0.000 A 
ATOM     17  C   UNL     1      46.210   3.395   6.924  0.00  0.00    +0.000 A 
ENDBRANCH  10  16
ENDBRANCH   9  10
ENDBRANCH   7   9
ENDBRANCH   1   7
BRANCH   4  18
ATOM     18  C   UNL     1      47.431   8.010  13.525  0.00  0.00    +0.000 C 
BRANCH  18  19
ATOM     19  N   UNL     1      47.828   7.407  14.772  0.00  0.00    +0.000 N 
ATOM     20  C   UNL     1      49.124   7.028  15.004  0.00  0.00    +0.000 C 
ATOM     21  O   UNL     1      49.984   7.068  14.130  0.00  0.00    +0.000 OA
ATOM     22  H   UNL     1      47.198   7.519  15.558  0.00  0.00    +0.000 HD
BRANCH  20  23
ATOM     23  C   UNL     1      49.421   6.529  16.352  0.00  0.00    +0.000 A 
ATOM     24  C   UNL     1      50.209   7.282  17.210  0.00  0.00    +0.000 A 
ATOM     25  S   UNL     1      50.449   6.548  18.730  0.00  0.00    +0.000 S 
ATOM     26  C   UNL     1      49.472   5.226  18.299  0.00  0.00    +0.000 A 
ATOM     27  N   UNL     1      49.243   4.238  19.184  0.00  0.00    +0.000 NA
ATOM     28  C   UNL     1      48.454   3.279  18.694  0.00  0.00    +0.000 A 
ATOM     29  N   UNL     1      47.915   3.214  17.469  0.00  0.00    +0.000 NA
ATOM     30  C   UNL     1      48.184   4.225  16.641  0.00  0.00    +0.000 A 
ATOM     31  C   UNL     1      48.984   5.308  17.004  0.00  0.00    +0.000 A 
BRANCH  30  32
ATOM     32  O   UNL     1      47.619   4.089  15.407  0.00  0.00    +0.000 OA
ATOM     33  H   UNL     1      47.232   4.978  15.287  0.00  0.00    +0.000 HD
ENDBRANCH  30  32
ENDBRANCH  20  23
ENDBRANCH  18  19
ENDBRANCH   4  18
TORSDOF 8
ENDMDL
MODEL 2
REMARK VINA RESULT:    -8.161      1.785      2.525
REMARK INTER + INTRA:         -12.828
REMARK INTER:                 -11.639
REMARK INTRA:                  -1.190
REMARK UNBOUND:                -1.090
REMARK  Name = 
REMARK  9 active torsions:
REMARK  status: ('A' for Active; 'I' for Inactive)
REMARK    1  A    between atoms: C_1  and  C_2
REMARK    2  A    between atoms: C_6  and  C_7
REMARK    3  A    between atoms: C_7  and  C_8
REMARK    4  A    between atoms: C_8  and  N_9
REMARK    5  A    between atoms: N_9  and  C_10
REMARK    6  A    between atoms: C_13  and  C_14
REMARK    7  A    between atoms: C_14  and  N_15
REMARK    8  A    between atoms: C_16  and  C_18
REMARK    9  A    between atoms: C_25  and  O_26
REMARK                            x       y       z     vdW  Elec       q    Type
REMARK                         _______ _______ _______ _____ _____    ______ ____
ROOT
ATOM      1  C   UNL     1      44.845   5.491  12.257  0.00  0.00    +0.000 A 
ATOM      2  C   UNL     1      45.599   6.615  11.899  0.00  0.00    +0.000 A 
ATOM      3  C   UNL     1      46.805   6.924  12.533  0.00  0.00    +0.000 A 
ATOM      4  C   UNL     1      47.288   6.126  13.572  0.00  0.00    +0.000 A 
ATOM      5  C   UNL     1      46.518   5.033  13.983  0.00  0.00    +0.000 A 
ATOM      6  C   UNL     1      45.313   4.720  13.329  0.00  0.00    +0.000 A 
ENDROOT
BRANCH   1   7
ATOM      7  N   UNL     1      43.605   5.173  11.675  0.00  0.00    +0.000 N 
ATOM      8  H   UNL     1      43.028   4.632  12.314  0.00  0.00    +0.000 HD
BRANCH   7   9
ATOM      9  C   UNL     1      43.606   4.677  10.290  0.00  0.00    +0.000 C 
BRANCH   9  10
ATOM     10  C   UNL     1      44.012   3.203  10.199  0.00  0.00    +0.000 C 
BRANCH  10  16
ATOM     11  C   UNL     1      46.946   0.139   7.466  0.00  0.00    +0.000 C 
ATOM     12  C   UNL     1      46.470   1.525   7.790  0.00  0.00    +0.000 A 
ATOM     13  C   UNL     1      46.963   2.633   7.093  0.00  0.00    +0.000 A 
ATOM     14  C   UNL     1      46.509   3.916   7.400  0.00  0.00    +0.000 A 
ATOM     15  C   UNL     1      45.563   4.104   8.410  0.00  0.00    +0.000 A 
ATOM     16  C   UNL     1      45.064   3.011   9.128  0.00  0.00    +0.000 A 
ATOM     17  C   UNL     1      45.518   1.722   8.800  0.00  0.00    +0.000 A 
ENDBRANCH  10  16
ENDBRANCH   9  10
ENDBRANCH   7   9
ENDBRANCH   1   7
BRANCH   4  18
ATOM     18  C   UNL     1      48.578   6.489  14.260  0.00  0.00    +0.000 C 
BRANCH  18  19
ATOM     19  N   UNL     1      48.343   6.851  15.634  0.00  0.00    +0.000 N 
ATOM     20  C   UNL     1      48.759   6.052  16.667  0.00  0.00    +0.000 C 
ATOM     21  O   UNL     1      49.242   4.939  16.480  0.00  0.00    +0.000 OA
ATOM     22  H   UNL     1      48.113   7.819  15.822  0.00  0.00    +0.000 HD
BRANCH  20  23
ATOM     23  C   UNL     1      48.559   6.585  18.019  0.00  0.00    +0.000 A 
ATOM     24  C   UNL     1      48.327   7.941  18.201  0.00  0.00    +0.000 A 
ATOM     25  S   UNL     1      48.118   8.379  19.835  0.00  0.00    +0.000 S 
ATOM     26  C   UNL     1      48.288   6.767  20.340  0.00  0.00    +0.000 A 
ATOM     27  N   UNL     1      48.182   6.451  21.644  0.00  0.00    +0.000 NA
ATOM     28  C   UNL     1      48.335   5.145  21.874  0.00  0.00    +0.000 A 
ATOM     29  N   UNL     1      48.583   4.183  20.974  0.00  0.00    +0.000 NA
ATOM     30  C   UNL     1      48.678   4.565  19.700  0.00  0.00    +0.000 A 
ATOM     31  C   UNL     1      48.534   5.891  19.294  0.00  0.00    +0.000 A 
BRANCH  30  32
ATOM     32  O   UNL     1      48.948   3.541  18.839  0.00  0.00    +0.000 OA
ATOM     33  H   UNL     1      48.363   3.775  18.092  0.00  0.00    +0.000 HD
ENDBRANCH  30  32
ENDBRANCH  20  23
ENDBRANCH  18  19
ENDBRANCH   4  18
TORSDOF 8
ENDMDL
MODEL 3
REMARK VINA RESULT:    -8.058      1.988      2.419
REMARK INTER + INTRA:         -12.681
REMARK INTER:                 -11.575
REMARK INTRA:                  -1.105
REMARK UNBOUND:                -1.090
REMARK  Name = 
REMARK  9 active torsions:
REMARK  status: ('A' for Active; 'I' for Inactive)
REMARK    1  A    between atoms: C_1  and  C_2
REMARK    2  A    between atoms: C_6  and  C_7
REMARK    3  A    between atoms: C_7  and  C_8
REMARK    4  A    between atoms: C_8  and  N_9
REMARK    5  A    between atoms: N_9  and  C_10
REMARK    6  A    between atoms: C_13  and  C_14
REMARK    7  A    between atoms: C_14  and  N_15
REMARK    8  A    between atoms: C_16  and  C_18
REMARK    9  A    between atoms: C_25  and  O_26
REMARK                            x       y       z     vdW  Elec       q    Type
REMARK                         _______ _______ _______ _____ _____    ______ ____
ROOT
ATOM      1  C   UNL     1      44.848   5.345  11.863  0.00  0.00    +0.000 A 
ATOM      2  C   UNL     1      45.599   4.500  12.689  0.00  0.00    +0.000 A 
ATOM      3  C   UNL     1      46.673   4.976  13.447  0.00  0.00    +0.000 A 
ATOM      4  C   UNL     1      47.049   6.320  13.384  0.00  0.00    +0.000 A 
ATOM      5  C   UNL     1      46.347   7.166  12.517  0.00  0.00    +0.000 A 
ATOM      6  C   UNL     1      45.259   6.681  11.771  0.00  0.00    +0.000 A 
ENDROOT
BRANCH   1   7
ATOM      7  N   UNL     1      43.792   4.895  11.052  0.00  0.00    +0.000 N 
ATOM      8  H   UNL     1      42.931   4.804  11.586  0.00  0.00    +0.000 HD
BRANCH   7   9
ATOM      9  C   UNL     1      44.061   3.774  10.138  0.00  0.00    +0.000 C 
BRANCH   9  10
ATOM     10  C   UNL     1      44.628   4.240   8.795  0.00  0.00    +0.000 C 
BRANCH  10  16
ATOM     11  C   UNL     1      47.750   2.669   5.154  0.00  0.00    +0.000 C 
ATOM     12  C   UNL     1      46.967   2.379   6.401  0.00  0.00    +0.000 A 
ATOM     13  C   UNL     1      47.002   1.111   6.990  0.00  0.00    +0.000 A 
ATOM     14  C   UNL     1      46.274   0.855   8.152  0.00  0.00    +0.000 A 
ATOM     15  C   UNL     1      45.498   1.861   8.732  0.00  0.00    +0.000 A 
ATOM     16  C   UNL     1      45.439   3.134   8.152  0.00  0.00    +0.000 A 
ATOM     17  C   UNL     1      46.188   3.384   6.991  0.00  0.00    +0.000 A 
ENDBRANCH  10  16
ENDBRANCH   9  10
ENDBRANCH   7   9
ENDBRANCH   1   7
BRANCH   4  18
ATOM     18  C   UNL     1      48.223   6.810  14.188  0.00  0.00    +0.000 C 
BRANCH  18  19
ATOM     19  N   UNL     1      48.072   6.470  15.579  0.00  0.00    +0.000 N 
ATOM     20  C   UNL     1      49.156   6.208  16.376  0.00  0.00    +0.000 C 
ATOM     21  O   UNL     1      50.295   6.132  15.926  0.00  0.00    +0.000 OA
ATOM     22  H   UNL     1      47.184   6.692  16.014  0.00  0.00    +0.000 HD
BRANCH  20  23
ATOM     23  C   UNL     1      48.875   5.983  17.798  0.00  0.00    +0.000 A 
ATOM     24  C   UNL     1      49.231   4.780  18.392  0.00  0.00    +0.000 A 
ATOM     25  S   UNL     1      48.828   4.696  20.046  0.00  0.00    +0.000 S 
ATOM     26  C   UNL     1      48.208   6.277  20.026  0.00  0.00    +0.000 A 
ATOM     27  N   UNL     1      47.724   6.828  21.154  0.00  0.00    +0.000 NA
ATOM     28  C   UNL     1      47.281   8.074  20.971  0.00  0.00    +0.000 A 
ATOM     29  N   UNL     1      47.266   8.774  19.828  0.00  0.00    +0.000 NA
ATOM     30  C   UNL     1      47.758   8.167  18.747  0.00  0.00    +0.000 A 
ATOM     31  C   UNL     1      48.268   6.870  18.774  0.00  0.00    +0.000 A 
BRANCH  30  32
ATOM     32  O   UNL     1      47.698   8.927  17.616  0.00  0.00    +0.000 OA
ATOM     33  H   UNL     1      48.620   8.857  17.303  0.00  0.00    +0.000 HD
ENDBRANCH  30  32
ENDBRANCH  20  23
ENDBRANCH  18  19
ENDBRANCH   4  18
TORSDOF 8
ENDMDL
MODEL 4
REMARK VINA RESULT:    -7.755      1.700      2.128
REMARK INTER + INTRA:         -12.245
REMARK INTER:                 -10.722
REMARK INTRA:                  -1.522
REMARK UNBOUND:                -1.090
REMARK  Name = 
REMARK  9 active torsions:
REMARK  status: ('A' for Active; 'I' for Inactive)
REMARK    1  A    between atoms: C_1  and  C_2
REMARK    2  A    between atoms: C_6  and  C_7
REMARK    3  A    between atoms: C_7  and  C_8
REMARK    4  A    between atoms: C_8  and  N_9
REMARK    5  A    between atoms: N_9  and  C_10
REMARK    6  A    between atoms: C_13  and  C_14
REMARK    7  A    between atoms: C_14  and  N_15
REMARK    8  A    between atoms: C_16  and  C_18
REMARK    9  A    between atoms: C_25  and  O_26
REMARK                            x       y       z     vdW  Elec       q    Type
REMARK                         _______ _______ _______ _____ _____    ______ ____
ROOT
ATOM      1  C   UNL     1      44.821   5.142  12.922  0.00  0.00    +0.000 A 
ATOM      2  C   UNL     1      46.040   4.573  13.311  0.00  0.00    +0.000 A 
ATOM      3  C   UNL     1      47.206   5.335  13.418  0.00  0.00    +0.000 A 
ATOM      4  C   UNL     1      47.197   6.698  13.114  0.00  0.00    +0.000 A 
ATOM      5  C   UNL     1      46.001   7.271  12.666  0.00  0.00    +0.000 A 
ATOM      6  C   UNL     1      44.829   6.500  12.575  0.00  0.00    +0.000 A 
ENDROOT
BRANCH   1   7
ATOM      7  N   UNL     1      43.638   4.400  12.757  0.00  0.00    +0.000 N 
ATOM      8  H   UNL     1      43.604   3.616  13.404  0.00  0.00    +0.000 HD
BRANCH   7   9
ATOM      9  C   UNL     1      43.220   4.075  11.385  0.00  0.00    +0.000 C 
BRANCH   9  10
ATOM     10  C   UNL     1      43.845   2.772  10.879  0.00  0.00    +0.000 C 
BRANCH  10  16
ATOM     11  C   UNL     1      46.926   1.087   7.255  0.00  0.00    +0.000 C 
ATOM     12  C   UNL     1      46.259   2.234   7.955  0.00  0.00    +0.000 A 
ATOM     13  C   UNL     1      46.470   3.551   7.534  0.00  0.00    +0.000 A 
ATOM     14  C   UNL     1      45.840   4.609   8.190  0.00  0.00    +0.000 A 
ATOM     15  C   UNL     1      44.999   4.361   9.277  0.00  0.00    +0.000 A 
ATOM     16  C   UNL     1      44.783   3.052   9.724  0.00  0.00    +0.000 A 
ATOM     17  C   UNL     1      45.411   1.994   9.046  0.00  0.00    +0.000 A 
ENDBRANCH  10  16
ENDBRANCH   9  10
ENDBRANCH   7   9
ENDBRANCH   1   7
BRANCH   4  18
ATOM     18  C   UNL     1      48.469   7.499  13.212  0.00  0.00    +0.000 C 
BRANCH  18  19
ATOM     19  N   UNL     1      49.325   6.979  14.248  0.00  0.00    +0.000 N 
ATOM     20  C   UNL     1      49.194   7.378  15.552  0.00  0.00    +0.000 C 
ATOM     21  O   UNL     1      48.431   8.278  15.888  0.00  0.00    +0.000 OA
ATOM     22  H   UNL     1      49.832   6.127  14.041  0.00  0.00    +0.000 HD
BRANCH  20  23
ATOM     23  C   UNL     1      50.051   6.693  16.527  0.00  0.00    +0.000 A 
ATOM     24  C   UNL     1      51.409   6.553  16.277  0.00  0.00    +0.000 A 
ATOM     25  S   UNL     1      52.245   5.733  17.516  0.00  0.00    +0.000 S 
ATOM     26  C   UNL     1      50.827   5.580  18.439  0.00  0.00    +0.000 A 
ATOM     27  N   UNL     1      50.866   4.988  19.647  0.00  0.00    +0.000 NA
ATOM     28  C   UNL     1      49.672   4.953  20.244  0.00  0.00    +0.000 A 
ATOM     29  N   UNL     1      48.509   5.417  19.767  0.00  0.00    +0.000 NA
ATOM     30  C   UNL     1      48.541   5.991  18.563  0.00  0.00    +0.000 A 
ATOM     31  C   UNL     1      49.710   6.114  17.814  0.00  0.00    +0.000 A 
BRANCH  30  32
ATOM     32  O   UNL     1      47.322   6.426  18.131  0.00  0.00    +0.000 OA
ATOM     33  H   UNL     1      47.581   6.920  17.329  0.00  0.00    +0.000 HD
ENDBRANCH  30  32
ENDBRANCH  20  23
ENDBRANCH  18  19
ENDBRANCH   4  18
TORSDOF 8
ENDMDL
MODEL 5
REMARK VINA RESULT:    -7.386      3.227      8.412
REMARK INTER + INTRA:         -11.715
REMARK INTER:                 -10.089
REMARK INTRA:                  -1.625
REMARK UNBOUND:                -1.090
REMARK  Name = 
REMARK  9 active torsions:
REMARK  status: ('A' for Active; 'I' for Inactive)
REMARK    1  A    between atoms: C_1  and  C_2
REMARK    2  A    between atoms: C_6  and  C_7
REMARK    3  A    between atoms: C_7  and  C_8
REMARK    4  A    between atoms: C_8  and  N_9
REMARK    5  A    between atoms: N_9  and  C_10
REMARK    6  A    between atoms: C_13  and  C_14
REMARK    7  A    between atoms: C_14  and  N_15
REMARK    8  A    between atoms: C_16  and  C_18
REMARK    9  A    between atoms: C_25  and  O_26
REMARK                            x       y       z     vdW  Elec       q    Type
REMARK                         _______ _______ _______ _____ _____    ______ ____
ROOT
ATOM      1  C   UNL     1      49.599   8.204  15.720  0.00  0.00    +0.000 A 
ATOM      2  C   UNL     1      49.933   7.245  14.756  0.00  0.00    +0.000 A 
ATOM      3  C   UNL     1      49.263   7.166  13.532  0.00  0.00    +0.000 A 
ATOM      4  C   UNL     1      48.210   8.035  13.240  0.00  0.00    +0.000 A 
ATOM      5  C   UNL     1      47.822   8.961  14.216  0.00  0.00    +0.000 A 
ATOM      6  C   UNL     1      48.512   9.043  15.438  0.00  0.00    +0.000 A 
ENDROOT
BRANCH   1   7
ATOM      7  N   UNL     1      50.218   8.285  16.979  0.00  0.00    +0.000 N 
ATOM      8  H   UNL     1      51.024   8.905  16.952  0.00  0.00    +0.000 HD
BRANCH   7   9
ATOM      9  C   UNL     1      50.441   7.031  17.714  0.00  0.00    +0.000 C 
BRANCH   9  10
ATOM     10  C   UNL     1      49.131   6.380  18.166  0.00  0.00    +0.000 C 
BRANCH  10  16
ATOM     11  C   UNL     1      51.157   1.829  17.357  0.00  0.00    +0.000 C 
ATOM     12  C   UNL     1      49.992   2.767  17.233  0.00  0.00    +0.000 A 
ATOM     13  C   UNL     1      48.797   2.351  16.637  0.00  0.00    +0.000 A 
ATOM     14  C   UNL     1      47.719   3.230  16.533  0.00  0.00    +0.000 A 
ATOM     15  C   UNL     1      47.828   4.536  17.017  0.00  0.00    +0.000 A 
ATOM     16  C   UNL     1      49.018   4.977  17.607  0.00  0.00    +0.000 A 
ATOM     17  C   UNL     1      50.091   4.079  17.719  0.00  0.00    +0.000 A 
ENDBRANCH  10  16
ENDBRANCH   9  10
ENDBRANCH   7   9
ENDBRANCH   1   7
BRANCH   4  18
ATOM     18  C   UNL     1      47.482   7.920  11.927  0.00  0.00    +0.000 C 
BRANCH  18  19
ATOM     19  N   UNL     1      46.829   6.641  11.812  0.00  0.00    +0.000 N 
ATOM     20  C   UNL     1      45.470   6.517  11.936  0.00  0.00    +0.000 C 
ATOM     21  O   UNL     1      44.754   7.457  12.268  0.00  0.00    +0.000 OA
ATOM     22  H   UNL     1      47.354   5.894  11.373  0.00  0.00    +0.000 HD
BRANCH  20  23
ATOM     23  C   UNL     1      44.917   5.180  11.688  0.00  0.00    +0.000 A 
ATOM     24  C   UNL     1      44.243   4.511  12.700  0.00  0.00    +0.000 A 
ATOM     25  S   UNL     1      43.671   2.975  12.233  0.00  0.00    +0.000 S 
ATOM     26  C   UNL     1      44.269   3.178  10.656  0.00  0.00    +0.000 A 
ATOM     27  N   UNL     1      44.080   2.218   9.732  0.00  0.00    +0.000 NA
ATOM     28  C   UNL     1      44.604   2.533   8.545  0.00  0.00    +0.000 A 
ATOM     29  N   UNL     1      45.272   3.648   8.220  0.00  0.00    +0.000 NA
ATOM     30  C   UNL     1      45.425   4.558   9.184  0.00  0.00    +0.000 A 
ATOM     31  C   UNL     1      44.929   4.384  10.475  0.00  0.00    +0.000 A 
BRANCH  30  32
ATOM     32  O   UNL     1      46.127   5.660   8.791  0.00  0.00    +0.000 OA
ATOM     33  H   UNL     1      45.399   6.296   8.649  0.00  0.00    +0.000 HD
ENDBRANCH  30  32
ENDBRANCH  20  23
ENDBRANCH  18  19
ENDBRANCH   4  18
TORSDOF 8
ENDMDL
MODEL 6
REMARK VINA RESULT:    -7.368      2.970      3.739
REMARK INTER + INTRA:         -11.688
REMARK INTER:                 -10.809
REMARK INTRA:                  -0.879
REMARK UNBOUND:                -1.090
REMARK  Name = 
REMARK  9 active torsions:
REMARK  status: ('A' for Active; 'I' for Inactive)
REMARK    1  A    between atoms: C_1  and  C_2
REMARK    2  A    between atoms: C_6  and  C_7
REMARK    3  A    between atoms: C_7  and  C_8
REMARK    4  A    between atoms: C_8  and  N_9
REMARK    5  A    between atoms: N_9  and  C_10
REMARK    6  A    between atoms: C_13  and  C_14
REMARK    7  A    between atoms: C_14  and  N_15
REMARK    8  A    between atoms: C_16  and  C_18
REMARK    9  A    between atoms: C_25  and  O_26
REMARK                            x       y       z     vdW  Elec       q    Type
REMARK                         _______ _______ _______ _____ _____    ______ ____
ROOT
ATOM      1  C   UNL     1      45.619   6.913  11.437  0.00  0.00    +0.000 A 
ATOM      2  C   UNL     1      45.080   7.941  12.221  0.00  0.00    +0.000 A 
ATOM      3  C   UNL     1      45.877   8.713  13.070  0.00  0.00    +0.000 A 
ATOM      4  C   UNL     1      47.247   8.464  13.183  0.00  0.00    +0.000 A 
ATOM      5  C   UNL     1      47.792   7.401  12.453  0.00  0.00    +0.000 A 
ATOM      6  C   UNL     1      46.985   6.640  11.590  0.00  0.00    +0.000 A 
ENDROOT
BRANCH   1   7
ATOM      7  N   UNL     1      44.843   6.085  10.608  0.00  0.00    +0.000 N 
ATOM      8  H   UNL     1      44.105   5.625  11.135  0.00  0.00    +0.000 HD
BRANCH   7   9
ATOM      9  C   UNL     1      45.550   5.208   9.662  0.00  0.00    +0.000 C 
BRANCH   9  10
ATOM     10  C   UNL     1      44.608   4.227   8.960  0.00  0.00    +0.000 C 
BRANCH  10  16
ATOM     11  C   UNL     1      47.648   2.764   5.207  0.00  0.00    +0.000 C 
ATOM     12  C   UNL     1      46.889   2.436   6.459  0.00  0.00    +0.000 A 
ATOM     13  C   UNL     1      46.929   1.149   7.006  0.00  0.00    +0.000 A 
ATOM     14  C   UNL     1      46.223   0.858   8.173  0.00  0.00    +0.000 A 
ATOM     15  C   UNL     1      45.464   1.848   8.801  0.00  0.00    +0.000 A 
ATOM     16  C   UNL     1      45.400   3.140   8.265  0.00  0.00    +0.000 A 
ATOM     17  C   UNL     1      46.126   3.425   7.098  0.00  0.00    +0.000 A 
ENDBRANCH  10  16
ENDBRANCH   9  10
ENDBRANCH   7   9
ENDBRANCH   1   7
BRANCH   4  18
ATOM     18  C   UNL     1      48.086   9.291  14.122  0.00  0.00    +0.000 C 
BRANCH  18  19
ATOM     19  N   UNL     1      47.740   9.020  15.493  0.00  0.00    +0.000 N 
ATOM     20  C   UNL     1      48.695   8.706  16.425  0.00  0.00    +0.000 C 
ATOM     21  O   UNL     1      49.870   8.521  16.120  0.00  0.00    +0.000 OA
ATOM     22  H   UNL     1      46.828   9.330  15.808  0.00  0.00    +0.000 HD
BRANCH  20  23
ATOM     23  C   UNL     1      48.228   8.562  17.808  0.00  0.00    +0.000 A 
ATOM     24  C   UNL     1      48.347   7.340  18.455  0.00  0.00    +0.000 A 
ATOM     25  S   UNL     1      47.753   7.360  20.053  0.00  0.00    +0.000 S 
ATOM     26  C   UNL     1      47.360   9.008  19.939  0.00  0.00    +0.000 A 
ATOM     27  N   UNL     1      46.832   9.653  20.996  0.00  0.00    +0.000 NA
ATOM     28  C   UNL     1      46.586  10.941  20.746  0.00  0.00    +0.000 A 
ATOM     29  N   UNL     1      46.796  11.602  19.600  0.00  0.00    +0.000 NA
ATOM     30  C   UNL     1      47.320  10.903  18.591  0.00  0.00    +0.000 A 
ATOM     31  C   UNL     1      47.642   9.551  18.694  0.00  0.00    +0.000 A 
BRANCH  30  32
ATOM     32  O   UNL     1      47.491  11.631  17.451  0.00  0.00    +0.000 OA
ATOM     33  H   UNL     1      47.623  12.524  17.824  0.00  0.00    +0.000 HD
ENDBRANCH  30  32
ENDBRANCH  20  23
ENDBRANCH  18  19
ENDBRANCH   4  18
TORSDOF 8
ENDMDL
MODEL 7
REMARK VINA RESULT:    -7.309      1.440      1.984
REMARK INTER + INTRA:         -11.604
REMARK INTER:                 -10.692
REMARK INTRA:                  -0.912
REMARK UNBOUND:                -1.090
REMARK  Name = 
REMARK  9 active torsions:
REMARK  status: ('A' for Active; 'I' for Inactive)
REMARK    1  A    between atoms: C_1  and  C_2
REMARK    2  A    between atoms: C_6  and  C_7
REMARK    3  A    between atoms: C_7  and  C_8
REMARK    4  A    between atoms: C_8  and  N_9
REMARK    5  A    between atoms: N_9  and  C_10
REMARK    6  A    between atoms: C_13  and  C_14
REMARK    7  A    between atoms: C_14  and  N_15
REMARK    8  A    between atoms: C_16  and  C_18
REMARK    9  A    between atoms: C_25  and  O_26
REMARK                            x       y       z     vdW  Elec       q    Type
REMARK                         _______ _______ _______ _____ _____    ______ ____
ROOT
ATOM      1  C   UNL     1      45.764   6.677  11.738  0.00  0.00    +0.000 A 
ATOM      2  C   UNL     1      47.112   6.372  11.962  0.00  0.00    +0.000 A 
ATOM      3  C   UNL     1      47.920   7.165  12.782  0.00  0.00    +0.000 A 
ATOM      4  C   UNL     1      47.407   8.312  13.391  0.00  0.00    +0.000 A 
ATOM      5  C   UNL     1      46.078   8.666  13.130  0.00  0.00    +0.000 A 
ATOM      6  C   UNL     1      45.269   7.854  12.316  0.00  0.00    +0.000 A 
ENDROOT
BRANCH   1   7
ATOM      7  N   UNL     1      44.934   5.932  10.884  0.00  0.00    +0.000 N 
ATOM      8  H   UNL     1      44.360   5.277  11.409  0.00  0.00    +0.000 HD
BRANCH   7   9
ATOM      9  C   UNL     1      45.534   5.370   9.664  0.00  0.00    +0.000 C 
BRANCH   9  10
ATOM     10  C   UNL     1      44.802   4.115   9.179  0.00  0.00    +0.000 C 
BRANCH  10  16
ATOM     11  C   UNL     1      46.756  -0.312   7.748  0.00  0.00    +0.000 C 
ATOM     12  C   UNL     1      46.618   1.168   7.541  0.00  0.00    +0.000 A 
ATOM     13  C   UNL     1      47.270   1.808   6.483  0.00  0.00    +0.000 A 
ATOM     14  C   UNL     1      47.129   3.183   6.298  0.00  0.00    +0.000 A 
ATOM     15  C   UNL     1      46.341   3.933   7.174  0.00  0.00    +0.000 A 
ATOM     16  C   UNL     1      45.688   3.315   8.247  0.00  0.00    +0.000 A 
ATOM     17  C   UNL     1      45.825   1.928   8.414  0.00  0.00    +0.000 A 
ENDBRANCH  10  16
ENDBRANCH   9  10
ENDBRANCH   7   9
ENDBRANCH   1   7
BRANCH   4  18
ATOM     18  C   UNL     1      48.298   9.168  14.252  0.00  0.00    +0.000 C 
BRANCH  18  19
ATOM     19  N   UNL     1      48.869   8.397  15.326  0.00  0.00    +0.000 N 
ATOM     20  C   UNL     1      48.533   8.631  16.634  0.00  0.00    +0.000 C 
ATOM     21  O   UNL     1      47.827   9.578  16.969  0.00  0.00    +0.000 OA
ATOM     22  H   UNL     1      49.305   7.516  15.080  0.00  0.00    +0.000 HD
BRANCH  20  23
ATOM     23  C   UNL     1      49.098   7.706  17.623  0.00  0.00    +0.000 A 
ATOM     24  C   UNL     1      49.626   8.198  18.808  0.00  0.00    +0.000 A 
ATOM     25  S   UNL     1      50.236   6.981  19.835  0.00  0.00    +0.000 S 
ATOM     26  C   UNL     1      49.774   5.762  18.746  0.00  0.00    +0.000 A 
ATOM     27  N   UNL     1      49.990   4.468  19.047  0.00  0.00    +0.000 NA
ATOM     28  C   UNL     1      49.565   3.638  18.092  0.00  0.00    +0.000 A 
ATOM     29  N   UNL     1      48.990   3.963  16.926  0.00  0.00    +0.000 NA
ATOM     30  C   UNL     1      48.807   5.264  16.690  0.00  0.00    +0.000 A 
ATOM     31  C   UNL     1      49.187   6.257  17.591  0.00  0.00    +0.000 A 
BRANCH  30  32
ATOM     32  O   UNL     1      48.233   5.526  15.481  0.00  0.00    +0.000 OA
ATOM     33  H   UNL     1      48.927   6.074  15.066  0.00  0.00    +0.000 HD
ENDBRANCH  30  32
ENDBRANCH  20  23
ENDBRANCH  18  19
ENDBRANCH   4  18
TORSDOF 8
ENDMDL
MODEL 8
REMARK VINA RESULT:    -7.256      1.685      2.363
REMARK INTER + INTRA:         -11.526
REMARK INTER:                 -10.542
REMARK INTRA:                  -0.984
REMARK UNBOUND:                -1.090
REMARK  Name = 
REMARK  9 active torsions:
REMARK  status: ('A' for Active; 'I' for Inactive)
REMARK    1  A    between atoms: C_1  and  C_2
REMARK    2  A    between atoms: C_6  and  C_7
REMARK    3  A    between atoms: C_7  and  C_8
REMARK    4  A    between atoms: C_8  and  N_9
REMARK    5  A    between atoms: N_9  and  C_10
REMARK    6  A    between atoms: C_13  and  C_14
REMARK    7  A    between atoms: C_14  and  N_15
REMARK    8  A    between atoms: C_16  and  C_18
REMARK    9  A    between atoms: C_25  and  O_26
REMARK                            x       y       z     vdW  Elec       q    Type
REMARK                         _______ _______ _______ _____ _____    ______ ____
ROOT
ATOM      1  C   UNL     1      45.061   5.215  11.828  0.00  0.00    +0.000 A 
ATOM      2  C   UNL     1      45.727   4.538  12.856  0.00  0.00    +0.000 A 
ATOM      3  C   UNL     1      46.808   5.110  13.534  0.00  0.00    +0.000 A 
ATOM      4  C   UNL     1      47.277   6.378  13.184  0.00  0.00    +0.000 A 
ATOM      5  C   UNL     1      46.661   7.044  12.118  0.00  0.00    +0.000 A 
ATOM      6  C   UNL     1      45.565   6.467  11.453  0.00  0.00    +0.000 A 
ENDROOT
BRANCH   1   7
ATOM      7  N   UNL     1      44.001   4.655  11.093  0.00  0.00    +0.000 N 
ATOM      8  H   UNL     1      43.163   4.570  11.664  0.00  0.00    +0.000 HD
BRANCH   7   9
ATOM      9  C   UNL     1      44.291   3.477  10.262  0.00  0.00    +0.000 C 
BRANCH   9  10
ATOM     10  C   UNL     1      44.408   3.827   8.776  0.00  0.00    +0.000 C 
BRANCH  10  16
ATOM     11  C   UNL     1      46.746  -0.527   7.754  0.00  0.00    +0.000 C 
ATOM     12  C   UNL     1      46.685   0.968   7.634  0.00  0.00    +0.000 A 
ATOM     13  C   UNL     1      47.662   1.670   6.922  0.00  0.00    +0.000 A 
ATOM     14  C   UNL     1      47.591   3.059   6.812  0.00  0.00    +0.000 A 
ATOM     15  C   UNL     1      46.547   3.760   7.419  0.00  0.00    +0.000 A 
ATOM     16  C   UNL     1      45.563   3.078   8.146  0.00  0.00    +0.000 A 
ATOM     17  C   UNL     1      45.637   1.679   8.237  0.00  0.00    +0.000 A 
ENDBRANCH  10  16
ENDBRANCH   9  10
ENDBRANCH   7   9
ENDBRANCH   1   7
BRANCH   4  18
ATOM     18  C   UNL     1      48.458   6.968  13.908  0.00  0.00    +0.000 C 
BRANCH  18  19
ATOM     19  N   UNL     1      48.458   6.578  15.295  0.00  0.00    +0.000 N 
ATOM     20  C   UNL     1      49.588   6.671  16.066  0.00  0.00    +0.000 C 
ATOM     21  O   UNL     1      50.679   6.973  15.593  0.00  0.00    +0.000 OA
ATOM     22  H   UNL     1      47.557   6.496  15.750  0.00  0.00    +0.000 HD
BRANCH  20  23
ATOM     23  C   UNL     1      49.429   6.348  17.488  0.00  0.00    +0.000 A 
ATOM     24  C   UNL     1      48.218   6.587  18.122  0.00  0.00    +0.000 A 
ATOM     25  S   UNL     1      48.217   6.153  19.770  0.00  0.00    +0.000 S 
ATOM     26  C   UNL     1      49.819   5.594  19.673  0.00  0.00    +0.000 A 
ATOM     27  N   UNL     1      50.415   5.060  20.755  0.00  0.00    +0.000 NA
ATOM     28  C   UNL     1      51.668   4.666  20.512  0.00  0.00    +0.000 A 
ATOM     29  N   UNL     1      52.343   4.763  19.359  0.00  0.00    +0.000 NA
ATOM     30  C   UNL     1      51.693   5.304  18.327  0.00  0.00    +0.000 A 
ATOM     31  C   UNL     1      50.378   5.757  18.415  0.00  0.00    +0.000 A 
BRANCH  30  32
ATOM     32  O   UNL     1      52.442   5.387  17.190  0.00  0.00    +0.000 OA
ATOM     33  H   UNL     1      52.599   6.350  17.148  0.00  0.00    +0.000 HD
ENDBRANCH  30  32
ENDBRANCH  20  23
ENDBRANCH  18  19
ENDBRANCH   4  18
TORSDOF 8
ENDMDL
MODEL 9
REMARK VINA RESULT:    -7.204      3.536      8.196
REMARK INTER + INTRA:         -11.452
REMARK INTER:                  -9.935
REMARK INTRA:                  -1.517
REMARK UNBOUND:                -1.090
REMARK  Name = 
REMARK  9 active torsions:
REMARK  status: ('A' for Active; 'I' for Inactive)
REMARK    1  A    between atoms: C_1  and  C_2
REMARK    2  A    between atoms: C_6  and  C_7
REMARK    3  A    between atoms: C_7  and  C_8
REMARK    4  A    between atoms: C_8  and  N_9
REMARK    5  A    between atoms: N_9  and  C_10
REMARK    6  A    between atoms: C_13  and  C_14
REMARK    7  A    between atoms: C_14  and  N_15
REMARK    8  A    between atoms: C_16  and  C_18
REMARK    9  A    between atoms: C_25  and  O_26
REMARK                            x       y       z     vdW  Elec       q    Type
REMARK                         _______ _______ _______ _____ _____    ______ ____
ROOT
ATOM      1  C   UNL     1      48.803   8.057  16.335  0.00  0.00    +0.000 A 
ATOM      2  C   UNL     1      48.097   9.055  15.653  0.00  0.00    +0.000 A 
ATOM      3  C   UNL     1      47.978   9.051  14.260  0.00  0.00    +0.000 A 
ATOM      4  C   UNL     1      48.588   8.055  13.496  0.00  0.00    +0.000 A 
ATOM      5  C   UNL     1      49.349   7.083  14.157  0.00  0.00    +0.000 A 
ATOM      6  C   UNL     1      49.450   7.086  15.559  0.00  0.00    +0.000 A 
ENDROOT
BRANCH   1   7
ATOM      7  N   UNL     1      48.984   8.052  17.729  0.00  0.00    +0.000 N 
ATOM      8  H   UNL     1      49.197   8.985  18.075  0.00  0.00    +0.000 HD
BRANCH   7   9
ATOM      9  C   UNL     1      49.815   6.986  18.307  0.00  0.00    +0.000 C 
BRANCH   9  10
ATOM     10  C   UNL     1      48.979   5.899  18.987  0.00  0.00    +0.000 C 
BRANCH  10  16
ATOM     11  C   UNL     1      51.158   1.673  17.295  0.00  0.00    +0.000 C 
ATOM     12  C   UNL     1      49.977   2.598  17.322  0.00  0.00    +0.000 A 
ATOM     13  C   UNL     1      48.823   2.308  16.586  0.00  0.00    +0.000 A 
ATOM     14  C   UNL     1      47.729   3.172  16.623  0.00  0.00    +0.000 A 
ATOM     15  C   UNL     1      47.780   4.339  17.389  0.00  0.00    +0.000 A 
ATOM     16  C   UNL     1      48.929   4.655  18.125  0.00  0.00    +0.000 A 
ATOM     17  C   UNL     1      50.019   3.769  18.092  0.00  0.00    +0.000 A 
ENDBRANCH  10  16
ENDBRANCH   9  10
ENDBRANCH   7   9
ENDBRANCH   1   7
BRANCH   4  18
ATOM     18  C   UNL     1      48.470   8.080  11.995  0.00  0.00    +0.000 C 
BRANCH  18  19
ATOM     19  N   UNL     1      47.710   6.952  11.520  0.00  0.00    +0.000 N 
ATOM     20  C   UNL     1      46.346   7.006  11.402  0.00  0.00    +0.000 C 
ATOM     21  O   UNL     1      45.691   7.963  11.802  0.00  0.00    +0.000 OA
ATOM     22  H   UNL     1      48.220   6.229  11.026  0.00  0.00    +0.000 HD
BRANCH  20  23
ATOM     23  C   UNL     1      45.702   5.831  10.802  0.00  0.00    +0.000 A 
ATOM     24  C   UNL     1      45.884   5.554   9.455  0.00  0.00    +0.000 A 
ATOM     25  S   UNL     1      45.062   4.155   8.934  0.00  0.00    +0.000 S 
ATOM     26  C   UNL     1      44.475   3.857  10.500  0.00  0.00    +0.000 A 
ATOM     27  N   UNL     1      43.715   2.774  10.743  0.00  0.00    +0.000 NA
ATOM     28  C   UNL     1      43.340   2.682  12.021  0.00  0.00    +0.000 A 
ATOM     29  N   UNL     1      43.627   3.530  13.017  0.00  0.00    +0.000 NA
ATOM     30  C   UNL     1      44.383   4.585  12.707  0.00  0.00    +0.000 A 
ATOM     31  C   UNL     1      44.864   4.820  11.419  0.00  0.00    +0.000 A 
BRANCH  30  32
ATOM     32  O   UNL     1      44.625   5.416  13.762  0.00  0.00    +0.000 OA
ATOM     33  H   UNL     1      45.320   5.988  13.385  0.00  0.00    +0.000 HD
ENDBRANCH  30  32
ENDBRANCH  20  23
ENDBRANCH  18  19
ENDBRANCH   4  18
TORSDOF 8
ENDMDL
