MODEL 1
REMARK VINA RESULT:    -8.832      0.000      0.000
REMARK INTER + INTRA:         -13.090
REMARK INTER:                 -11.930
REMARK INTRA:                  -1.161
REMARK UNBOUND:                -1.161
REMARK  Name = 
REMARK  6 active torsions:
REMARK  status: ('A' for Active; 'I' for Inactive)
REMARK    1  A    between atoms: C_2  and  C_19
REMARK    2  A    between atoms: N_3  and  C_4
REMARK    3  A    between atoms: C_4  and  C_5
REMARK    4  A    between atoms: C_8  and  C_9
REMARK    5  A    between atoms: C_9  and  C_10
REMARK    6  A    between atoms: C_10  and  C_11
REMARK                            x       y       z     vdW  Elec       q    Type
REMARK                         _______ _______ _______ _____ _____    ______ ____
ROOT
ATOM      1  O   UNL     1      48.870   6.434  13.064  0.00  0.00    +0.000 OA
ATOM      2  C   UNL     1      48.155   6.492  14.062  0.00  0.00    +0.000 C 
ATOM      3  N   UNL     1      46.839   6.879  13.988  0.00  0.00    +0.000 N 
ATOM      4  H   UNL     1      46.342   7.125  14.840  0.00  0.00    +0.000 HD
ENDROOT
BRANCH   2   5
ATOM      5  C   UNL     1      48.663   6.112  15.382  0.00  0.00    +0.000 A 
ATOM      6  C   UNL     1      49.630   6.894  16.000  0.00  0.00    +0.000 A 
ATOM      7  S   UNL     1      50.107   6.310  17.529  0.00  0.00    +0.000 S 
ATOM      8  C   UNL     1      49.001   5.022  17.443  0.00  0.00    +0.000 A 
ATOM      9  N   UNL     1      48.870   4.141  18.471  0.00  0.00    +0.000 NA
ATOM     10  C   UNL     1      47.969   3.236  18.286  0.00  0.00    +0.000 A 
ATOM     11  N   UNL     1      47.198   3.119  17.159  0.00  0.00    +0.000 N 
ATOM     12  C   UNL     1      47.326   3.958  16.077  0.00  0.00    +0.000 A 
ATOM     13  O   UNL     1      46.666   3.788  15.057  0.00  0.00    +0.000 OA
ATOM     14  C   UNL     1      48.304   5.016  16.248  0.00  0.00    +0.000 A 
ATOM     15  H   UNL     1      46.523   2.375  17.069  0.00  0.00    +0.000 HD
ENDBRANCH   2   5
BRANCH   3  16
ATOM     16  C   UNL     1      46.300   7.367  12.745  0.00  0.00    +0.000 C 
BRANCH  16  17
ATOM     17  C   UNL     1      45.849   6.251  11.841  0.00  0.00    +0.000 A 
ATOM     18  C   UNL     1      45.100   5.188  12.357  0.00  0.00    +0.000 A 
ATOM     19  C   UNL     1      44.626   4.174  11.518  0.00  0.00    +0.000 A 
ATOM     20  C   UNL     1      44.883   4.199  10.142  0.00  0.00    +0.000 A 
ATOM     21  C   UNL     1      45.688   5.232   9.640  0.00  0.00    +0.000 A 
ATOM     22  C   UNL     1      46.167   6.246  10.480  0.00  0.00    +0.000 A 
BRANCH  20  23
ATOM     23  C   UNL     1      44.372   3.125   9.197  0.00  0.00    +0.000 C 
BRANCH  23  24
ATOM     24  C   UNL     1      45.342   1.955   8.968  0.00  0.00    +0.000 C 
BRANCH  24  25
ATOM     25  C   UNL     1      46.217   2.131   7.758  0.00  0.00    +0.000 A 
ATOM     26  C   UNL     1      46.015   3.180   6.857  0.00  0.00    +0.000 A 
ATOM     27  C   UNL     1      46.821   3.282   5.726  0.00  0.00    +0.000 A 
ATOM     28  C   UNL     1      47.812   2.334   5.536  0.00  0.00    +0.000 A 
ATOM     29  N   UNL     1      48.049   1.316   6.391  0.00  0.00    +0.000 NA
ATOM     30  C   UNL     1      47.248   1.238   7.478  0.00  0.00    +0.000 A 
ENDBRANCH  24  25
ENDBRANCH  23  24
ENDBRANCH  20  23
ENDBRANCH  16  17
ENDBRANCH   3  16
TORSDOF 6
ENDMDL
MODEL 2
REMARK VINA RESULT:    -8.323      1.164      1.414
REMARK INTER + INTRA:         -12.403
REMARK INTER:                 -11.195
REMARK INTRA:                  -1.208
REMARK UNBOUND:                -1.161
REMARK  Name = 
REMARK  6 active torsions:
REMARK  status: ('A' for Active; 'I' for Inactive)
REMARK    1  A    between atoms: C_2  and  C_19
REMARK    2  A    between atoms: N_3  and  C_4
REMARK    3  A    between atoms: C_4  and  C_5
REMARK    4  A    between atoms: C_8  and  C_9
REMARK    5  A    between atoms: C_9  and  C_10
REMARK    6  A    between atoms: C_10  and  C_11
REMARK                            x       y       z     vdW  Elec       q    Type
REMARK                         _______ _______ _______ _____ _____    ______ ____
ROOT
ATOM      1  O   UNL     1      49.981   6.960  14.537  0.00  0.00    +0.000 OA
ATOM      2  C   UNL     1      48.991   6.796  15.246  0.00  0.00    +0.000 C 
ATOM      3  N   UNL     1      47.716   6.927  14.752  0.00  0.00    +0.000 N 
ATOM      4  H   UNL     1      46.935   7.000  15.398  0.00  0.00    +0.000 HD
ENDROOT
BRANCH   2   5
ATOM      5  C   UNL     1      49.121   6.410  16.654  0.00  0.00    +0.000 A 
ATOM      6  C   UNL     1      49.609   7.326  17.576  0.00  0.00    +0.000 A 
ATOM      7  S   UNL     1      49.695   6.715  19.166  0.00  0.00    +0.000 S 
ATOM      8  C   UNL     1      49.034   5.223  18.687  0.00  0.00    +0.000 A 
ATOM      9  N   UNL     1      48.800   4.238  19.594  0.00  0.00    +0.000 NA
ATOM     10  C   UNL     1      48.263   3.174  19.098  0.00  0.00    +0.000 A 
ATOM     11  N   UNL     1      47.953   2.998  17.775  0.00  0.00    +0.000 N 
ATOM     12  C   UNL     1      48.211   3.950  16.816  0.00  0.00    +0.000 A 
ATOM     13  O   UNL     1      47.981   3.737  15.629  0.00  0.00    +0.000 OA
ATOM     14  C   UNL     1      48.785   5.180  17.327  0.00  0.00    +0.000 A 
ATOM     15  H   UNL     1      47.550   2.133  17.448  0.00  0.00    +0.000 HD
ENDBRANCH   2   5
BRANCH   3  16
ATOM     16  C   UNL     1      47.509   7.405  13.409  0.00  0.00    +0.000 C 
BRANCH  16  17
ATOM     17  C   UNL     1      46.714   6.436  12.575  0.00  0.00    +0.000 A 
ATOM     18  C   UNL     1      46.142   5.304  13.165  0.00  0.00    +0.000 A 
ATOM     19  C   UNL     1      45.354   4.427  12.413  0.00  0.00    +0.000 A 
ATOM     20  C   UNL     1      45.112   4.661  11.054  0.00  0.00    +0.000 A 
ATOM     21  C   UNL     1      45.740   5.763  10.452  0.00  0.00    +0.000 A 
ATOM     22  C   UNL     1      46.533   6.640  11.204  0.00  0.00    +0.000 A 
BRANCH  20  23
ATOM     23  C   UNL     1      44.249   3.741  10.209  0.00  0.00    +0.000 C 
BRANCH  23  24
ATOM     24  C   UNL     1      44.447   3.886   8.692  0.00  0.00    +0.000 C 
BRANCH  24  25
ATOM     25  C   UNL     1      45.529   2.998   8.142  0.00  0.00    +0.000 A 
ATOM     26  C   UNL     1      46.467   3.474   7.222  0.00  0.00    +0.000 A 
ATOM     27  C   UNL     1      47.427   2.607   6.705  0.00  0.00    +0.000 A 
ATOM     28  C   UNL     1      47.423   1.290   7.133  0.00  0.00    +0.000 A 
ATOM     29  N   UNL     1      46.545   0.797   8.031  0.00  0.00    +0.000 NA
ATOM     30  C   UNL     1      45.621   1.659   8.513  0.00  0.00    +0.000 A 
ENDBRANCH  24  25
ENDBRANCH  23  24
ENDBRANCH  20  23
ENDBRANCH  16  17
ENDBRANCH   3  16
TORSDOF 6
ENDMDL
MODEL 3
REMARK VINA RESULT:    -8.113      1.924      2.345
REMARK INTER + INTRA:         -12.119
REMARK INTER:                 -11.097
REMARK INTRA:                  -1.022
REMARK UNBOUND:                -1.161
REMARK  Name = 
REMARK  6 active torsions:
REMARK  status: ('A' for Active; 'I' for Inactive)
REMARK    1  A    between atoms: C_2  and  C_19
REMARK    2  A    between atoms: N_3  and  C_4
REMARK    3  A    between atoms: C_4  and  C_5
REMARK    4  A    between atoms: C_8  and  C_9
REMARK    5  A    between atoms: C_9  and  C_10
REMARK    6  A    between atoms: C_10  and  C_11
REMARK                            x       y       z     vdW  Elec       q    Type
REMARK                         _______ _______ _______ _____ _____    ______ ____
ROOT
ATOM      1  O   UNL     1      49.488   6.423  15.192  0.00  0.00    +0.000 OA
ATOM      2  C   UNL     1      48.465   5.888  15.615  0.00  0.00    +0.000 C 
ATOM      3  N   UNL     1      47.316   5.825  14.865  0.00  0.00    +0.000 N 
ATOM      4  H   UNL     1      46.439   5.577  15.315  0.00  0.00    +0.000 HD
ENDROOT
BRANCH   2   5
ATOM      5  C   UNL     1      48.432   5.251  16.934  0.00  0.00    +0.000 A 
ATOM      6  C   UNL     1      48.521   3.869  17.034  0.00  0.00    +0.000 A 
ATOM      7  S   UNL     1      48.469   3.294  18.639  0.00  0.00    +0.000 S 
ATOM      8  C   UNL     1      48.378   4.875  19.259  0.00  0.00    +0.000 A 
ATOM      9  N   UNL     1      48.345   5.099  20.600  0.00  0.00    +0.000 NA
ATOM     10  C   UNL     1      48.313   6.346  20.931  0.00  0.00    +0.000 A 
ATOM     11  N   UNL     1      48.294   7.390  20.043  0.00  0.00    +0.000 N 
ATOM     12  C   UNL     1      48.282   7.210  18.679  0.00  0.00    +0.000 A 
ATOM     13  O   UNL     1      48.201   8.163  17.911  0.00  0.00    +0.000 OA
ATOM     14  C   UNL     1      48.352   5.825  18.254  0.00  0.00    +0.000 A 
ATOM     15  H   UNL     1      48.250   8.345  20.367  0.00  0.00    +0.000 HD
ENDBRANCH   2   5
BRANCH   3  16
ATOM     16  C   UNL     1      47.240   6.518  13.605  0.00  0.00    +0.000 C 
BRANCH  16  17
ATOM     17  C   UNL     1      46.519   5.716  12.555  0.00  0.00    +0.000 A 
ATOM     18  C   UNL     1      46.038   4.437  12.855  0.00  0.00    +0.000 A 
ATOM     19  C   UNL     1      45.317   3.704  11.907  0.00  0.00    +0.000 A 
ATOM     20  C   UNL     1      45.053   4.232  10.637  0.00  0.00    +0.000 A 
ATOM     21  C   UNL     1      45.592   5.489  10.319  0.00  0.00    +0.000 A 
ATOM     22  C   UNL     1      46.318   6.222  11.267  0.00  0.00    +0.000 A 
BRANCH  20  23
ATOM     23  C   UNL     1      44.260   3.474   9.587  0.00  0.00    +0.000 C 
BRANCH  23  24
ATOM     24  C   UNL     1      44.854   2.112   9.191  0.00  0.00    +0.000 C 
BRANCH  24  25
ATOM     25  C   UNL     1      45.863   2.200   8.079  0.00  0.00    +0.000 A 
ATOM     26  C   UNL     1      45.955   3.331   7.264  0.00  0.00    +0.000 A 
ATOM     27  C   UNL     1      46.875   3.354   6.219  0.00  0.00    +0.000 A 
ATOM     28  C   UNL     1      47.682   2.245   6.027  0.00  0.00    +0.000 A 
ATOM     29  N   UNL     1      47.635   1.142   6.803  0.00  0.00    +0.000 NA
ATOM     30  C   UNL     1      46.729   1.144   7.807  0.00  0.00    +0.000 A 
ENDBRANCH  24  25
ENDBRANCH  23  24
ENDBRANCH  20  23
ENDBRANCH  16  17
ENDBRANCH   3  16
TORSDOF 6
ENDMDL
MODEL 4
REMARK VINA RESULT:    -7.148      3.159      4.185
REMARK INTER + INTRA:         -10.816
REMARK INTER:                  -9.663
REMARK INTRA:                  -1.153
REMARK UNBOUND:                -1.161
REMARK  Name = 
REMARK  6 active torsions:
REMARK  status: ('A' for Active; 'I' for Inactive)
REMARK    1  A    between atoms: C_2  and  C_19
REMARK    2  A    between atoms: N_3  and  C_4
REMARK    3  A    between atoms: C_4  and  C_5
REMARK    4  A    between atoms: C_8  and  C_9
REMARK    5  A    between atoms: C_9  and  C_10
REMARK    6  A    between atoms: C_10  and  C_11
REMARK                            x       y       z     vdW  Elec       q    Type
REMARK                         _______ _______ _______ _____ _____    ______ ____
ROOT
ATOM      1  O   UNL     1      47.995   8.800  11.856  0.00  0.00    +0.000 OA
ATOM      2  C   UNL     1      48.740   7.950  12.340  0.00  0.00    +0.000 C 
ATOM      3  N   UNL     1      48.251   6.849  12.999  0.00  0.00    +0.000 N 
ATOM      4  H   UNL     1      48.879   6.287  13.568  0.00  0.00    +0.000 HD
ENDROOT
BRANCH   2   5
ATOM      5  C   UNL     1      50.195   8.049  12.202  0.00  0.00    +0.000 A 
ATOM      6  C   UNL     1      50.778   7.926  10.948  0.00  0.00    +0.000 A 
ATOM      7  S   UNL     1      52.477   8.068  10.967  0.00  0.00    +0.000 S 
ATOM      8  C   UNL     1      52.490   8.351  12.644  0.00  0.00    +0.000 A 
ATOM      9  N   UNL     1      53.653   8.595  13.304  0.00  0.00    +0.000 NA
ATOM     10  C   UNL     1      53.511   8.827  14.565  0.00  0.00    +0.000 A 
ATOM     11  N   UNL     1      52.313   8.821  15.232  0.00  0.00    +0.000 N 
ATOM     12  C   UNL     1      51.118   8.537  14.614  0.00  0.00    +0.000 A 
ATOM     13  O   UNL     1      50.070   8.477  15.251  0.00  0.00    +0.000 OA
ATOM     14  C   UNL     1      51.218   8.301  13.187  0.00  0.00    +0.000 A 
ATOM     15  H   UNL     1      52.273   8.994  16.225  0.00  0.00    +0.000 HD
ENDBRANCH   2   5
BRANCH   3  16
ATOM     16  C   UNL     1      46.840   6.735  13.265  0.00  0.00    +0.000 C 
BRANCH  16  17
ATOM     17  C   UNL     1      46.148   5.817  12.295  0.00  0.00    +0.000 A 
ATOM     18  C   UNL     1      45.845   6.258  11.002  0.00  0.00    +0.000 A 
ATOM     19  C   UNL     1      45.255   5.397  10.072  0.00  0.00    +0.000 A 
ATOM     20  C   UNL     1      44.956   4.070  10.408  0.00  0.00    +0.000 A 
ATOM     21  C   UNL     1      45.203   3.651  11.724  0.00  0.00    +0.000 A 
ATOM     22  C   UNL     1      45.791   4.515  12.657  0.00  0.00    +0.000 A 
BRANCH  20  23
ATOM     23  C   UNL     1      44.330   3.101   9.421  0.00  0.00    +0.000 C 
BRANCH  23  24
ATOM     24  C   UNL     1      45.188   1.868   9.097  0.00  0.00    +0.000 C 
BRANCH  24  25
ATOM     25  C   UNL     1      46.105   2.067   7.922  0.00  0.00    +0.000 A 
ATOM     26  C   UNL     1      46.036   3.217   7.129  0.00  0.00    +0.000 A 
ATOM     27  C   UNL     1      46.874   3.343   6.025  0.00  0.00    +0.000 A 
ATOM     28  C   UNL     1      47.764   2.317   5.752  0.00  0.00    +0.000 A 
ATOM     29  N   UNL     1      47.872   1.200   6.503  0.00  0.00    +0.000 NA
ATOM     30  C   UNL     1      47.042   1.101   7.566  0.00  0.00    +0.000 A 
ENDBRANCH  24  25
ENDBRANCH  23  24
ENDBRANCH  20  23
ENDBRANCH  16  17
ENDBRANCH   3  16
TORSDOF 6
ENDMDL
MODEL 5
REMARK VINA RESULT:    -7.106      3.532      5.329
REMARK INTER + INTRA:         -10.759
REMARK INTER:                  -9.754
REMARK INTRA:                  -1.005
REMARK UNBOUND:                -1.161
REMARK  Name = 
REMARK  6 active torsions:
REMARK  status: ('A' for Active; 'I' for Inactive)
REMARK    1  A    between atoms: C_2  and  C_19
REMARK    2  A    between atoms: N_3  and  C_4
REMARK    3  A    between atoms: C_4  and  C_5
REMARK    4  A    between atoms: C_8  and  C_9
REMARK    5  A    between atoms: C_9  and  C_10
REMARK    6  A    between atoms: C_10  and  C_11
REMARK                            x       y       z     vdW  Elec       q    Type
REMARK                         _______ _______ _______ _____ _____    ______ ____
ROOT
ATOM      1  O   UNL     1      45.648   9.117  13.127  0.00  0.00    +0.000 OA
ATOM      2  C   UNL     1      46.775   9.040  12.642  0.00  0.00    +0.000 C 
ATOM      3  N   UNL     1      47.460   7.850  12.587  0.00  0.00    +0.000 N 
ATOM      4  H   UNL     1      48.456   7.856  12.385  0.00  0.00    +0.000 HD
ENDROOT
BRANCH   2   5
ATOM      5  C   UNL     1      47.432  10.212  12.058  0.00  0.00    +0.000 A 
ATOM      6  C   UNL     1      46.687  11.125  11.325  0.00  0.00    +0.000 A 
ATOM      7  S   UNL     1      47.606  12.428  10.719  0.00  0.00    +0.000 S 
ATOM      8  C   UNL     1      49.021  11.845  11.460  0.00  0.00    +0.000 A 
ATOM      9  N   UNL     1      50.193  12.528  11.366  0.00  0.00    +0.000 NA
ATOM     10  C   UNL     1      51.176  11.991  12.005  0.00  0.00    +0.000 A 
ATOM     11  N   UNL     1      51.100  10.822  12.717  0.00  0.00    +0.000 N 
ATOM     12  C   UNL     1      49.949  10.075  12.804  0.00  0.00    +0.000 A 
ATOM     13  O   UNL     1      49.929   9.001  13.396  0.00  0.00    +0.000 OA
ATOM     14  C   UNL     1      48.803  10.654  12.129  0.00  0.00    +0.000 A 
ATOM     15  H   UNL     1      51.913  10.445  13.181  0.00  0.00    +0.000 HD
ENDBRANCH   2   5
BRANCH   3  16
ATOM     16  C   UNL     1      46.924   6.680  13.232  0.00  0.00    +0.000 C 
BRANCH  16  17
ATOM     17  C   UNL     1      46.188   5.785  12.272  0.00  0.00    +0.000 A 
ATOM     18  C   UNL     1      46.039   6.162  10.933  0.00  0.00    +0.000 A 
ATOM     19  C   UNL     1      45.407   5.314  10.017  0.00  0.00    +0.000 A 
ATOM     20  C   UNL     1      44.913   4.065  10.414  0.00  0.00    +0.000 A 
ATOM     21  C   UNL     1      45.008   3.719  11.771  0.00  0.00    +0.000 A 
ATOM     22  C   UNL     1      45.637   4.570  12.690  0.00  0.00    +0.000 A 
BRANCH  20  23
ATOM     23  C   UNL     1      44.236   3.111   9.446  0.00  0.00    +0.000 C 
BRANCH  23  24
ATOM     24  C   UNL     1      45.049   1.849   9.113  0.00  0.00    +0.000 C 
BRANCH  24  25
ATOM     25  C   UNL     1      45.997   2.035   7.960  0.00  0.00    +0.000 A 
ATOM     26  C   UNL     1      45.962   3.183   7.164  0.00  0.00    +0.000 A 
ATOM     27  C   UNL     1      46.829   3.297   6.081  0.00  0.00    +0.000 A 
ATOM     28  C   UNL     1      47.712   2.259   5.832  0.00  0.00    +0.000 A 
ATOM     29  N   UNL     1      47.787   1.142   6.587  0.00  0.00    +0.000 NA
ATOM     30  C   UNL     1      46.930   1.056   7.629  0.00  0.00    +0.000 A 
ENDBRANCH  24  25
ENDBRANCH  23  24
ENDBRANCH  20  23
ENDBRANCH  16  17
ENDBRANCH   3  16
TORSDOF 6
ENDMDL
MODEL 6
REMARK VINA RESULT:    -7.044      4.451      8.986
REMARK INTER + INTRA:         -10.676
REMARK INTER:                  -9.712
REMARK INTRA:                  -0.964
REMARK UNBOUND:                -1.161
REMARK  Name = 
REMARK  6 active torsions:
REMARK  status: ('A' for Active; 'I' for Inactive)
REMARK    1  A    between atoms: C_2  and  C_19
REMARK    2  A    between atoms: N_3  and  C_4
REMARK    3  A    between atoms: C_4  and  C_5
REMARK    4  A    between atoms: C_8  and  C_9
REMARK    5  A    between atoms: C_9  and  C_10
REMARK    6  A    between atoms: C_10  and  C_11
REMARK                            x       y       z     vdW  Elec       q    Type
REMARK                         _______ _______ _______ _____ _____    ______ ____
ROOT
ATOM      1  O   UNL     1      47.248   3.146  14.118  0.00  0.00    +0.000 OA
ATOM      2  C   UNL     1      46.885   4.230  14.569  0.00  0.00    +0.000 C 
ATOM      3  N   UNL     1      46.926   4.505  15.914  0.00  0.00    +0.000 N 
ATOM      4  H   UNL     1      46.425   5.313  16.275  0.00  0.00    +0.000 HD
ENDROOT
BRANCH   2   5
ATOM      5  C   UNL     1      46.426   5.305  13.686  0.00  0.00    +0.000 A 
ATOM      6  C   UNL     1      47.266   6.376  13.410  0.00  0.00    +0.000 A 
ATOM      7  S   UNL     1      46.576   7.534  12.366  0.00  0.00    +0.000 S 
ATOM      8  C   UNL     1      45.151   6.619  12.203  0.00  0.00    +0.000 A 
ATOM      9  N   UNL     1      44.139   7.036  11.396  0.00  0.00    +0.000 NA
ATOM     10  C   UNL     1      43.135   6.228  11.339  0.00  0.00    +0.000 A 
ATOM     11  N   UNL     1      43.042   5.048  12.030  0.00  0.00    +0.000 N 
ATOM     12  C   UNL     1      44.020   4.607  12.890  0.00  0.00    +0.000 A 
ATOM     13  O   UNL     1      43.879   3.577  13.542  0.00  0.00    +0.000 OA
ATOM     14  C   UNL     1      45.188   5.465  12.964  0.00  0.00    +0.000 A 
ATOM     15  H   UNL     1      42.219   4.469  11.955  0.00  0.00    +0.000 HD
ENDBRANCH   2   5
BRANCH   3  16
ATOM     16  C   UNL     1      47.266   3.466  16.852  0.00  0.00    +0.000 C 
BRANCH  16  17
ATOM     17  C   UNL     1      48.752   3.343  17.055  0.00  0.00    +0.000 A 
ATOM     18  C   UNL     1      49.502   4.455  17.452  0.00  0.00    +0.000 A 
ATOM     19  C   UNL     1      50.874   4.342  17.700  0.00  0.00    +0.000 A 
ATOM     20  C   UNL     1      51.531   3.113  17.561  0.00  0.00    +0.000 A 
ATOM     21  C   UNL     1      50.788   2.015  17.101  0.00  0.00    +0.000 A 
ATOM     22  C   UNL     1      49.414   2.129  16.849  0.00  0.00    +0.000 A 
BRANCH  20  23
ATOM     23  C   UNL     1      53.015   2.946  17.836  0.00  0.00    +0.000 C 
BRANCH  23  24
ATOM     24  C   UNL     1      53.372   1.758  18.743  0.00  0.00    +0.000 C 
BRANCH  24  25
ATOM     25  C   UNL     1      54.055   0.633  18.014  0.00  0.00    +0.000 A 
ATOM     26  C   UNL     1      54.511   0.784  16.702  0.00  0.00    +0.000 A 
ATOM     27  C   UNL     1      55.100  -0.296  16.048  0.00  0.00    +0.000 A 
ATOM     28  C   UNL     1      55.221  -1.494  16.734  0.00  0.00    +0.000 A 
ATOM     29  N   UNL     1      54.808  -1.674  18.006  0.00  0.00    +0.000 NA
ATOM     30  C   UNL     1      54.236  -0.610  18.614  0.00  0.00    +0.000 A 
ENDBRANCH  24  25
ENDBRANCH  23  24
ENDBRANCH  20  23
ENDBRANCH  16  17
ENDBRANCH   3  16
TORSDOF 6
ENDMDL
MODEL 7
REMARK VINA RESULT:    -6.895      3.410      8.288
REMARK INTER + INTRA:         -10.474
REMARK INTER:                  -9.335
REMARK INTRA:                  -1.138
REMARK UNBOUND:                -1.161
REMARK  Name = 
REMARK  6 active torsions:
REMARK  status: ('A' for Active; 'I' for Inactive)
REMARK    1  A    between atoms: C_2  and  C_19
REMARK    2  A    between atoms: N_3  and  C_4
REMARK    3  A    between atoms: C_4  and  C_5
REMARK    4  A    between atoms: C_8  and  C_9
REMARK    5  A    between atoms: C_9  and  C_10
REMARK    6  A    between atoms: C_10  and  C_11
REMARK                            x       y       z     vdW  Elec       q    Type
REMARK                         _______ _______ _______ _____ _____    ______ ____
ROOT
ATOM      1  O   UNL     1      45.800   7.809  11.970  0.00  0.00    +0.000 OA
ATOM      2  C   UNL     1      46.395   6.793  11.618  0.00  0.00    +0.000 C 
ATOM      3  N   UNL     1      47.726   6.598  11.900  0.00  0.00    +0.000 N 
ATOM      4  H   UNL     1      48.236   5.865  11.417  0.00  0.00    +0.000 HD
ENDROOT
BRANCH   2   5
ATOM      5  C   UNL     1      45.702   5.713  10.911  0.00  0.00    +0.000 A 
ATOM      6  C   UNL     1      45.854   5.581   9.537  0.00  0.00    +0.000 A 
ATOM      7  S   UNL     1      44.980   4.275   8.875  0.00  0.00    +0.000 S 
ATOM      8  C   UNL     1      44.410   3.809  10.408  0.00  0.00    +0.000 A 
ATOM      9  N   UNL     1      43.620   2.712  10.557  0.00  0.00    +0.000 NA
ATOM     10  C   UNL     1      43.291   2.454  11.778  0.00  0.00    +0.000 A 
ATOM     11  N   UNL     1      43.664   3.204  12.863  0.00  0.00    +0.000 N 
ATOM     12  C   UNL     1      44.425   4.345  12.756  0.00  0.00    +0.000 A 
ATOM     13  O   UNL     1      44.689   5.029  13.739  0.00  0.00    +0.000 OA
ATOM     14  C   UNL     1      44.851   4.660  11.405  0.00  0.00    +0.000 A 
ATOM     15  H   UNL     1      43.357   2.958  13.792  0.00  0.00    +0.000 HD
ENDBRANCH   2   5
BRANCH   3  16
ATOM     16  C   UNL     1      48.498   7.657  12.498  0.00  0.00    +0.000 C 
BRANCH  16  17
ATOM     17  C   UNL     1      49.062   7.266  13.837  0.00  0.00    +0.000 A 
ATOM     18  C   UNL     1      50.347   7.676  14.206  0.00  0.00    +0.000 A 
ATOM     19  C   UNL     1      50.861   7.368  15.470  0.00  0.00    +0.000 A 
ATOM     20  C   UNL     1      50.102   6.647  16.400  0.00  0.00    +0.000 A 
ATOM     21  C   UNL     1      48.838   6.184  16.003  0.00  0.00    +0.000 A 
ATOM     22  C   UNL     1      48.324   6.488  14.736  0.00  0.00    +0.000 A 
BRANCH  20  23
ATOM     23  C   UNL     1      50.619   6.308  17.787  0.00  0.00    +0.000 C 
BRANCH  23  24
ATOM     24  C   UNL     1      49.973   5.071  18.430  0.00  0.00    +0.000 C 
BRANCH  24  25
ATOM     25  C   UNL     1      50.669   3.783  18.084  0.00  0.00    +0.000 A 
ATOM     26  C   UNL     1      52.008   3.564  18.421  0.00  0.00    +0.000 A 
ATOM     27  C   UNL     1      52.627   2.375  18.044  0.00  0.00    +0.000 A 
ATOM     28  C   UNL     1      51.883   1.437  17.349  0.00  0.00    +0.000 A 
ATOM     29  N   UNL     1      50.585   1.604  17.021  0.00  0.00    +0.000 NA
ATOM     30  C   UNL     1      50.010   2.770  17.394  0.00  0.00    +0.000 A 
ENDBRANCH  24  25
ENDBRANCH  23  24
ENDBRANCH  20  23
ENDBRANCH  16  17
ENDBRANCH   3  16
TORSDOF 6
ENDMDL
MODEL 8
REMARK VINA RESULT:    -6.840      4.601      7.091
REMARK INTER + INTRA:         -10.400
REMARK INTER:                  -9.297
REMARK INTRA:                  -1.103
REMARK UNBOUND:                -1.161
REMARK  Name = 
REMARK  6 active torsions:
REMARK  status: ('A' for Active; 'I' for Inactive)
REMARK    1  A    between atoms: C_2  and  C_19
REMARK    2  A    between atoms: N_3  and  C_4
REMARK    3  A    between atoms: C_4  and  C_5
REMARK    4  A    between atoms: C_8  and  C_9
REMARK    5  A    between atoms: C_9  and  C_10
REMARK    6  A    between atoms: C_10  and  C_11
REMARK                            x       y       z     vdW  Elec       q    Type
REMARK                         _______ _______ _______ _____ _____    ______ ____
ROOT
ATOM      1  O   UNL     1      44.870   7.685  11.290  0.00  0.00    +0.000 OA
ATOM      2  C   UNL     1      45.224   6.743  11.996  0.00  0.00    +0.000 C 
ATOM      3  N   UNL     1      46.060   6.918  13.072  0.00  0.00    +0.000 N 
ATOM      4  H   UNL     1      46.503   6.109  13.498  0.00  0.00    +0.000 HD
ENDROOT
BRANCH   2   5
ATOM      5  C   UNL     1      44.738   5.383  11.748  0.00  0.00    +0.000 A 
ATOM      6  C   UNL     1      43.999   4.728  12.724  0.00  0.00    +0.000 A 
ATOM      7  S   UNL     1      43.511   3.157  12.272  0.00  0.00    +0.000 S 
ATOM      8  C   UNL     1      44.226   3.318  10.738  0.00  0.00    +0.000 A 
ATOM      9  N   UNL     1      44.139   2.321   9.817  0.00  0.00    +0.000 NA
ATOM     10  C   UNL     1      44.695   2.591   8.684  0.00  0.00    +0.000 A 
ATOM     11  N   UNL     1      45.346   3.762   8.392  0.00  0.00    +0.000 N 
ATOM     12  C   UNL     1      45.496   4.780   9.305  0.00  0.00    +0.000 A 
ATOM     13  O   UNL     1      46.138   5.789   9.034  0.00  0.00    +0.000 OA
ATOM     14  C   UNL     1      44.859   4.539  10.586  0.00  0.00    +0.000 A 
ATOM     15  H   UNL     1      45.776   3.904   7.491  0.00  0.00    +0.000 HD
ENDBRANCH   2   5
BRANCH   3  16
ATOM     16  C   UNL     1      46.661   8.204  13.316  0.00  0.00    +0.000 C 
BRANCH  16  17
ATOM     17  C   UNL     1      47.967   8.371  12.586  0.00  0.00    +0.000 A 
ATOM     18  C   UNL     1      48.306   9.607  12.026  0.00  0.00    +0.000 A 
ATOM     19  C   UNL     1      49.541   9.792  11.396  0.00  0.00    +0.000 A 
ATOM     20  C   UNL     1      50.471   8.749  11.315  0.00  0.00    +0.000 A 
ATOM     21  C   UNL     1      50.101   7.494  11.822  0.00  0.00    +0.000 A 
ATOM     22  C   UNL     1      48.862   7.307  12.450  0.00  0.00    +0.000 A 
BRANCH  20  23
ATOM     23  C   UNL     1      51.828   8.916  10.653  0.00  0.00    +0.000 C 
BRANCH  23  24
ATOM     24  C   UNL     1      52.795   7.740  10.864  0.00  0.00    +0.000 C 
BRANCH  24  25
ATOM     25  C   UNL     1      53.048   6.941   9.614  0.00  0.00    +0.000 A 
ATOM     26  C   UNL     1      52.475   7.299   8.391  0.00  0.00    +0.000 A 
ATOM     27  C   UNL     1      52.700   6.508   7.267  0.00  0.00    +0.000 A 
ATOM     28  C   UNL     1      53.500   5.386   7.401  0.00  0.00    +0.000 A 
ATOM     29  N   UNL     1      54.084   5.017   8.561  0.00  0.00    +0.000 NA
ATOM     30  C   UNL     1      53.845   5.800   9.637  0.00  0.00    +0.000 A 
ENDBRANCH  24  25
ENDBRANCH  23  24
ENDBRANCH  20  23
ENDBRANCH  16  17
ENDBRANCH   3  16
TORSDOF 6
ENDMDL
MODEL 9
REMARK VINA RESULT:    -6.761      3.831      7.939
REMARK INTER + INTRA:         -10.294
REMARK INTER:                  -8.548
REMARK INTRA:                  -1.745
REMARK UNBOUND:                -1.161
REMARK  Name = 
REMARK  6 active torsions:
REMARK  status: ('A' for Active; 'I' for Inactive)
REMARK    1  A    between atoms: C_2  and  C_19
REMARK    2  A    between atoms: N_3  and  C_4
REMARK    3  A    between atoms: C_4  and  C_5
REMARK    4  A    between atoms: C_8  and  C_9
REMARK    5  A    between atoms: C_9  and  C_10
REMARK    6  A    between atoms: C_10  and  C_11
REMARK                            x       y       z     vdW  Elec       q    Type
REMARK                         _______ _______ _______ _____ _____    ______ ____
ROOT
ATOM      1  O   UNL     1      48.580   8.139  12.851  0.00  0.00    +0.000 OA
ATOM      2  C   UNL     1      47.484   8.050  13.400  0.00  0.00    +0.000 C 
ATOM      3  N   UNL     1      47.208   8.703  14.577  0.00  0.00    +0.000 N 
ATOM      4  H   UNL     1      46.384   8.442  15.111  0.00  0.00    +0.000 HD
ENDROOT
BRANCH   2   5
ATOM      5  C   UNL     1      46.397   7.271  12.803  0.00  0.00    +0.000 A 
ATOM      6  C   UNL     1      45.444   7.907  12.019  0.00  0.00    +0.000 A 
ATOM      7  S   UNL     1      44.253   6.854  11.402  0.00  0.00    +0.000 S 
ATOM      8  C   UNL     1      44.999   5.503  12.117  0.00  0.00    +0.000 A 
ATOM      9  N   UNL     1      44.496   4.251  11.943  0.00  0.00    +0.000 NA
ATOM     10  C   UNL     1      45.182   3.318  12.511  0.00  0.00    +0.000 A 
ATOM     11  N   UNL     1      46.316   3.522  13.253  0.00  0.00    +0.000 N 
ATOM     12  C   UNL     1      46.836   4.773  13.492  0.00  0.00    +0.000 A 
ATOM     13  O   UNL     1      47.816   4.928  14.213  0.00  0.00    +0.000 OA
ATOM     14  C   UNL     1      46.120   5.856  12.846  0.00  0.00    +0.000 A 
ATOM     15  H   UNL     1      46.797   2.749  13.687  0.00  0.00    +0.000 HD
ENDBRANCH   2   5
BRANCH   3  16
ATOM     16  C   UNL     1      48.255   9.402  15.276  0.00  0.00    +0.000 C 
BRANCH  16  17
ATOM     17  C   UNL     1      48.913   8.544  16.324  0.00  0.00    +0.000 A 
ATOM     18  C   UNL     1      48.421   8.533  17.633  0.00  0.00    +0.000 A 
ATOM     19  C   UNL     1      48.986   7.697  18.602  0.00  0.00    +0.000 A 
ATOM     20  C   UNL     1      50.053   6.848  18.287  0.00  0.00    +0.000 A 
ATOM     21  C   UNL     1      50.584   6.909  16.989  0.00  0.00    +0.000 A 
ATOM     22  C   UNL     1      50.021   7.749  16.019  0.00  0.00    +0.000 A 
BRANCH  20  23
ATOM     23  C   UNL     1      50.683   5.915  19.307  0.00  0.00    +0.000 C 
BRANCH  23  24
ATOM     24  C   UNL     1      49.805   4.721  19.714  0.00  0.00    +0.000 C 
BRANCH  24  25
ATOM     25  C   UNL     1      49.296   3.925  18.543  0.00  0.00    +0.000 A 
ATOM     26  C   UNL     1      47.937   3.892  18.219  0.00  0.00    +0.000 A 
ATOM     27  C   UNL     1      47.503   3.109  17.152  0.00  0.00    +0.000 A 
ATOM     28  C   UNL     1      48.445   2.390  16.436  0.00  0.00    +0.000 A 
ATOM     29  N   UNL     1      49.767   2.409  16.708  0.00  0.00    +0.000 NA
ATOM     30  C   UNL     1      50.161   3.173  17.752  0.00  0.00    +0.000 A 
ENDBRANCH  24  25
ENDBRANCH  23  24
ENDBRANCH  20  23
ENDBRANCH  16  17
ENDBRANCH   3  16
TORSDOF 6
ENDMDL
