MODEL 1
REMARK VINA RESULT:    -6.915      0.000      0.000
REMARK INTER + INTRA:         -10.339
REMARK INTER:                  -8.936
REMARK INTRA:                  -1.403
REMARK UNBOUND:                -1.403
REMARK  Name = 
REMARK  5 active torsions:
REMARK  status: ('A' for Active; 'I' for Inactive)
REMARK    1  A    between atoms: C_2  and  C_19
REMARK    2  A    between atoms: N_3  and  C_4
REMARK    3  A    between atoms: C_4  and  C_5
REMARK    4  A    between atoms: C_8  and  C_9
REMARK    5  A    between atoms: C_9  and  N_10
REMARK                            x       y       z     vdW  Elec       q    Type
REMARK                         _______ _______ _______ _____ _____    ______ ____
ROOT
ATOM      1  O   UNL     1      48.574   8.676  16.018  0.00  0.00    +0.000 OA
ATOM      2  C   UNL     1      48.969   7.555  15.704  0.00  0.00    +0.000 C 
ATOM      3  N   UNL     1      49.259   7.223  14.405  0.00  0.00    +0.000 N 
ATOM      4  H   UNL     1      49.427   6.251  14.166  0.00  0.00    +0.000 HD
ENDROOT
BRANCH   2   5
ATOM      5  C   UNL     1      49.164   6.508  16.717  0.00  0.00    +0.000 A 
ATOM      6  C   UNL     1      50.028   6.726  17.783  0.00  0.00    +0.000 A 
ATOM      7  S   UNL     1      50.088   5.431  18.891  0.00  0.00    +0.000 S 
ATOM      8  C   UNL     1      48.936   4.549  18.005  0.00  0.00    +0.000 A 
ATOM      9  N   UNL     1      48.486   3.343  18.448  0.00  0.00    +0.000 NA
ATOM     10  C   UNL     1      47.581   2.805  17.699  0.00  0.00    +0.000 A 
ATOM     11  N   UNL     1      47.100   3.354  16.540  0.00  0.00    +0.000 N 
ATOM     12  C   UNL     1      47.561   4.542  16.027  0.00  0.00    +0.000 A 
ATOM     13  O   UNL     1      47.171   4.962  14.942  0.00  0.00    +0.000 OA
ATOM     14  C   UNL     1      48.543   5.213  16.857  0.00  0.00    +0.000 A 
ATOM     15  H   UNL     1      46.412   2.866  15.984  0.00  0.00    +0.000 HD
ENDBRANCH   2   5
BRANCH   3  16
ATOM     16  C   UNL     1      48.934   8.116  13.315  0.00  0.00    +0.000 C 
BRANCH  16  17
ATOM     17  C   UNL     1      47.585   7.792  12.730  0.00  0.00    +0.000 A 
ATOM     18  C   UNL     1      46.387   8.336  13.241  0.00  0.00    +0.000 A 
ATOM     19  C   UNL     1      45.143   7.974  12.691  0.00  0.00    +0.000 A 
ATOM     20  C   UNL     1      45.061   7.055  11.630  0.00  0.00    +0.000 A 
ATOM     21  C   UNL     1      46.261   6.549  11.121  0.00  0.00    +0.000 A 
ATOM     22  F   UNL     1      46.242   5.726  10.060  0.00  0.00    +0.000 F 
ATOM     23  C   UNL     1      47.495   6.896  11.660  0.00  0.00    +0.000 A 
BRANCH  20  24
ATOM     24  C   UNL     1      43.757   6.685  10.968  0.00  0.00    +0.000 C 
BRANCH  24  25
ATOM     25  N   UNL     1      43.111   5.419  11.303  0.00  0.00    +0.000 NA
ATOM     26  C   UNL     1      42.863   5.143  12.715  0.00  0.00    +0.000 C 
ATOM     27  C   UNL     1      43.976   4.328  13.379  0.00  0.00    +0.000 C 
ATOM     28  O   UNL     1      44.164   3.081  12.703  0.00  0.00    +0.000 OA
ATOM     29  C   UNL     1      44.510   3.285  11.326  0.00  0.00    +0.000 C 
ATOM     30  C   UNL     1      43.527   4.213  10.583  0.00  0.00    +0.000 C 
ENDBRANCH  24  25
ENDBRANCH  20  24
ENDBRANCH  16  17
ENDBRANCH   3  16
TORSDOF 5
ENDMDL
MODEL 2
REMARK VINA RESULT:    -6.548      3.929      8.851
REMARK INTER + INTRA:          -9.866
REMARK INTER:                  -9.233
REMARK INTRA:                  -0.633
REMARK UNBOUND:                -1.403
REMARK  Name = 
REMARK  5 active torsions:
REMARK  status: ('A' for Active; 'I' for Inactive)
REMARK    1  A    between atoms: C_2  and  C_19
REMARK    2  A    between atoms: N_3  and  C_4
REMARK    3  A    between atoms: C_4  and  C_5
REMARK    4  A    between atoms: C_8  and  C_9
REMARK    5  A    between atoms: C_9  and  N_10
REMARK                            x       y       z     vdW  Elec       q    Type
REMARK                         _______ _______ _______ _____ _____    ______ ____
ROOT
ATOM      1  O   UNL     1      47.221   3.154  13.940  0.00  0.00    +0.000 OA
ATOM      2  C   UNL     1      46.784   4.199  14.416  0.00  0.00    +0.000 C 
ATOM      3  N   UNL     1      46.817   4.455  15.764  0.00  0.00    +0.000 N 
ATOM      4  H   UNL     1      46.307   5.252  16.131  0.00  0.00    +0.000 HD
ENDROOT
BRANCH   2   5
ATOM      5  C   UNL     1      46.212   5.244  13.555  0.00  0.00    +0.000 A 
ATOM      6  C   UNL     1      46.951   6.382  13.259  0.00  0.00    +0.000 A 
ATOM      7  S   UNL     1      46.156   7.459  12.201  0.00  0.00    +0.000 S 
ATOM      8  C   UNL     1      44.812   6.426  12.075  0.00  0.00    +0.000 A 
ATOM      9  N   UNL     1      43.768   6.734  11.256  0.00  0.00    +0.000 NA
ATOM     10  C   UNL     1      42.836   5.840  11.224  0.00  0.00    +0.000 A 
ATOM     11  N   UNL     1      42.845   4.677  11.948  0.00  0.00    +0.000 N 
ATOM     12  C   UNL     1      43.850   4.349  12.825  0.00  0.00    +0.000 A 
ATOM     13  O   UNL     1      43.784   3.343  13.523  0.00  0.00    +0.000 OA
ATOM     14  C   UNL     1      44.947   5.296  12.861  0.00  0.00    +0.000 A 
ATOM     15  H   UNL     1      42.068   4.033  11.900  0.00  0.00    +0.000 HD
ENDBRANCH   2   5
BRANCH   3  16
ATOM     16  C   UNL     1      47.192   3.429  16.710  0.00  0.00    +0.000 C 
BRANCH  16  17
ATOM     17  C   UNL     1      48.653   3.523  17.063  0.00  0.00    +0.000 A 
ATOM     18  C   UNL     1      49.302   4.757  17.281  0.00  0.00    +0.000 A 
ATOM     19  C   UNL     1      50.680   4.802  17.567  0.00  0.00    +0.000 A 
ATOM     20  C   UNL     1      51.444   3.623  17.632  0.00  0.00    +0.000 A 
ATOM     21  C   UNL     1      50.776   2.410  17.440  0.00  0.00    +0.000 A 
ATOM     22  F   UNL     1      51.445   1.253  17.566  0.00  0.00    +0.000 F 
ATOM     23  C   UNL     1      49.416   2.355  17.152  0.00  0.00    +0.000 A 
BRANCH  20  24
ATOM     24  C   UNL     1      52.908   3.618  17.998  0.00  0.00    +0.000 C 
BRANCH  24  25
ATOM     25  N   UNL     1      53.300   3.613  19.405  0.00  0.00    +0.000 NA
ATOM     26  C   UNL     1      52.441   4.327  20.344  0.00  0.00    +0.000 C 
ATOM     27  C   UNL     1      52.890   5.768  20.605  0.00  0.00    +0.000 C 
ATOM     28  O   UNL     1      54.230   5.797  21.107  0.00  0.00    +0.000 OA
ATOM     29  C   UNL     1      55.145   5.196  20.180  0.00  0.00    +0.000 C 
ATOM     30  C   UNL     1      54.718   3.783  19.733  0.00  0.00    +0.000 C 
ENDBRANCH  24  25
ENDBRANCH  20  24
ENDBRANCH  16  17
ENDBRANCH   3  16
TORSDOF 5
ENDMDL
MODEL 3
REMARK VINA RESULT:    -6.253      4.031      8.166
REMARK INTER + INTRA:          -9.484
REMARK INTER:                  -8.503
REMARK INTRA:                  -0.981
REMARK UNBOUND:                -1.403
REMARK  Name = 
REMARK  5 active torsions:
REMARK  status: ('A' for Active; 'I' for Inactive)
REMARK    1  A    between atoms: C_2  and  C_19
REMARK    2  A    between atoms: N_3  and  C_4
REMARK    3  A    between atoms: C_4  and  C_5
REMARK    4  A    between atoms: C_8  and  C_9
REMARK    5  A    between atoms: C_9  and  N_10
REMARK                            x       y       z     vdW  Elec       q    Type
REMARK                         _______ _______ _______ _____ _____    ______ ____
ROOT
ATOM      1  O   UNL     1      48.469   5.888  13.796  0.00  0.00    +0.000 OA
ATOM      2  C   UNL     1      47.307   5.560  14.026  0.00  0.00    +0.000 C 
ATOM      3  N   UNL     1      46.946   4.926  15.188  0.00  0.00    +0.000 N 
ATOM      4  H   UNL     1      46.014   4.532  15.270  0.00  0.00    +0.000 HD
ENDROOT
BRANCH   2   5
ATOM      5  C   UNL     1      46.234   5.846  13.063  0.00  0.00    +0.000 A 
ATOM      6  C   UNL     1      45.941   7.160  12.720  0.00  0.00    +0.000 A 
ATOM      7  S   UNL     1      44.710   7.304  11.548  0.00  0.00    +0.000 S 
ATOM      8  C   UNL     1      44.551   5.615  11.432  0.00  0.00    +0.000 A 
ATOM      9  N   UNL     1      43.686   5.053  10.543  0.00  0.00    +0.000 NA
ATOM     10  C   UNL     1      43.698   3.762  10.531  0.00  0.00    +0.000 A 
ATOM     11  N   UNL     1      44.484   2.982  11.339  0.00  0.00    +0.000 N 
ATOM     12  C   UNL     1      45.332   3.503  12.286  0.00  0.00    +0.000 A 
ATOM     13  O   UNL     1      45.955   2.775  13.052  0.00  0.00    +0.000 OA
ATOM     14  C   UNL     1      45.393   4.951  12.305  0.00  0.00    +0.000 A 
ATOM     15  H   UNL     1      44.423   1.974  11.300  0.00  0.00    +0.000 HD
ENDBRANCH   2   5
BRANCH   3  16
ATOM     16  C   UNL     1      47.942   4.442  16.116  0.00  0.00    +0.000 C 
BRANCH  16  17
ATOM     17  C   UNL     1      48.128   5.399  17.264  0.00  0.00    +0.000 A 
ATOM     18  C   UNL     1      49.079   6.441  17.235  0.00  0.00    +0.000 A 
ATOM     19  C   UNL     1      49.249   7.288  18.346  0.00  0.00    +0.000 A 
ATOM     20  C   UNL     1      48.486   7.111  19.514  0.00  0.00    +0.000 A 
ATOM     21  C   UNL     1      47.530   6.090  19.511  0.00  0.00    +0.000 A 
ATOM     22  F   UNL     1      46.725   5.927  20.573  0.00  0.00    +0.000 F 
ATOM     23  C   UNL     1      47.357   5.245  18.420  0.00  0.00    +0.000 A 
BRANCH  20  24
ATOM     24  C   UNL     1      48.589   8.032  20.705  0.00  0.00    +0.000 C 
BRANCH  24  25
ATOM     25  N   UNL     1      47.567   9.054  20.917  0.00  0.00    +0.000 NA
ATOM     26  C   UNL     1      46.955   9.648  19.733  0.00  0.00    +0.000 C 
ATOM     27  C   UNL     1      47.634  10.946  19.284  0.00  0.00    +0.000 C 
ATOM     28  O   UNL     1      47.617  11.916  20.335  0.00  0.00    +0.000 OA
ATOM     29  C   UNL     1      48.295  11.428  21.502  0.00  0.00    +0.000 C 
ATOM     30  C   UNL     1      47.785  10.049  21.969  0.00  0.00    +0.000 C 
ENDBRANCH  24  25
ENDBRANCH  20  24
ENDBRANCH  16  17
ENDBRANCH   3  16
TORSDOF 5
ENDMDL
MODEL 4
REMARK VINA RESULT:    -6.250      3.448      7.713
REMARK INTER + INTRA:          -9.480
REMARK INTER:                  -8.531
REMARK INTRA:                  -0.949
REMARK UNBOUND:                -1.403
REMARK  Name = 
REMARK  5 active torsions:
REMARK  status: ('A' for Active; 'I' for Inactive)
REMARK    1  A    between atoms: C_2  and  C_19
REMARK    2  A    between atoms: N_3  and  C_4
REMARK    3  A    between atoms: C_4  and  C_5
REMARK    4  A    between atoms: C_8  and  C_9
REMARK    5  A    between atoms: C_9  and  N_10
REMARK                            x       y       z     vdW  Elec       q    Type
REMARK                         _______ _______ _______ _____ _____    ______ ____
ROOT
ATOM      1  O   UNL     1      47.579   7.367  11.964  0.00  0.00    +0.000 OA
ATOM      2  C   UNL     1      46.834   6.716  12.693  0.00  0.00    +0.000 C 
ATOM      3  N   UNL     1      47.173   6.400  13.985  0.00  0.00    +0.000 N 
ATOM      4  H   UNL     1      46.606   5.732  14.498  0.00  0.00    +0.000 HD
ENDROOT
BRANCH   2   5
ATOM      5  C   UNL     1      45.524   6.251  12.216  0.00  0.00    +0.000 A 
ATOM      6  C   UNL     1      44.647   7.145  11.614  0.00  0.00    +0.000 A 
ATOM      7  S   UNL     1      43.200   6.424  11.071  0.00  0.00    +0.000 S 
ATOM      8  C   UNL     1      43.710   4.887  11.589  0.00  0.00    +0.000 A 
ATOM      9  N   UNL     1      42.942   3.784  11.368  0.00  0.00    +0.000 NA
ATOM     10  C   UNL     1      43.470   2.678  11.775  0.00  0.00    +0.000 A 
ATOM     11  N   UNL     1      44.686   2.577  12.398  0.00  0.00    +0.000 N 
ATOM     12  C   UNL     1      45.471   3.666  12.688  0.00  0.00    +0.000 A 
ATOM     13  O   UNL     1      46.513   3.549  13.326  0.00  0.00    +0.000 OA
ATOM     14  C   UNL     1      44.946   4.929  12.207  0.00  0.00    +0.000 A 
ATOM     15  H   UNL     1      45.028   1.682  12.719  0.00  0.00    +0.000 HD
ENDBRANCH   2   5
BRANCH   3  16
ATOM     16  C   UNL     1      48.502   6.653  14.492  0.00  0.00    +0.000 C 
BRANCH  16  17
ATOM     17  C   UNL     1      48.668   6.099  15.883  0.00  0.00    +0.000 A 
ATOM     18  C   UNL     1      49.689   6.535  16.755  0.00  0.00    +0.000 A 
ATOM     19  C   UNL     1      49.834   5.961  18.031  0.00  0.00    +0.000 A 
ATOM     20  C   UNL     1      48.977   4.934  18.465  0.00  0.00    +0.000 A 
ATOM     21  C   UNL     1      47.956   4.537  17.596  0.00  0.00    +0.000 A 
ATOM     22  F   UNL     1      47.066   3.613  17.992  0.00  0.00    +0.000 F 
ATOM     23  C   UNL     1      47.806   5.094  16.331  0.00  0.00    +0.000 A 
BRANCH  20  24
ATOM     24  C   UNL     1      49.055   4.333  19.847  0.00  0.00    +0.000 C 
BRANCH  24  25
ATOM     25  N   UNL     1      48.651   5.129  21.003  0.00  0.00    +0.000 NA
ATOM     26  C   UNL     1      47.422   5.906  20.889  0.00  0.00    +0.000 C 
ATOM     27  C   UNL     1      47.656   7.352  20.439  0.00  0.00    +0.000 C 
ATOM     28  O   UNL     1      48.533   8.028  21.345  0.00  0.00    +0.000 OA
ATOM     29  C   UNL     1      49.803   7.366  21.428  0.00  0.00    +0.000 C 
ATOM     30  C   UNL     1      49.685   5.860  21.741  0.00  0.00    +0.000 C 
ENDBRANCH  24  25
ENDBRANCH  20  24
ENDBRANCH  16  17
ENDBRANCH   3  16
TORSDOF 5
ENDMDL
MODEL 5
REMARK VINA RESULT:    -6.165      3.438      8.442
REMARK INTER + INTRA:          -9.371
REMARK INTER:                  -8.553
REMARK INTRA:                  -0.818
REMARK UNBOUND:                -1.403
REMARK  Name = 
REMARK  5 active torsions:
REMARK  status: ('A' for Active; 'I' for Inactive)
REMARK    1  A    between atoms: C_2  and  C_19
REMARK    2  A    between atoms: N_3  and  C_4
REMARK    3  A    between atoms: C_4  and  C_5
REMARK    4  A    between atoms: C_8  and  C_9
REMARK    5  A    between atoms: C_9  and  N_10
REMARK                            x       y       z     vdW  Elec       q    Type
REMARK                         _______ _______ _______ _____ _____    ______ ____
ROOT
ATOM      1  O   UNL     1      46.948   3.162  13.766  0.00  0.00    +0.000 OA
ATOM      2  C   UNL     1      46.696   4.273  14.227  0.00  0.00    +0.000 C 
ATOM      3  N   UNL     1      46.988   4.606  15.525  0.00  0.00    +0.000 N 
ATOM      4  H   UNL     1      46.623   5.472  15.910  0.00  0.00    +0.000 HD
ENDROOT
BRANCH   2   5
ATOM      5  C   UNL     1      46.077   5.316  13.396  0.00  0.00    +0.000 A 
ATOM      6  C   UNL     1      46.819   6.422  13.002  0.00  0.00    +0.000 A 
ATOM      7  S   UNL     1      45.961   7.500  11.996  0.00  0.00    +0.000 S 
ATOM      8  C   UNL     1      44.580   6.508  12.023  0.00  0.00    +0.000 A 
ATOM      9  N   UNL     1      43.474   6.831  11.298  0.00  0.00    +0.000 NA
ATOM     10  C   UNL     1      42.515   5.968  11.377  0.00  0.00    +0.000 A 
ATOM     11  N   UNL     1      42.558   4.822  12.127  0.00  0.00    +0.000 N 
ATOM     12  C   UNL     1      43.631   4.482  12.914  0.00  0.00    +0.000 A 
ATOM     13  O   UNL     1      43.600   3.494  13.641  0.00  0.00    +0.000 OA
ATOM     14  C   UNL     1      44.754   5.393  12.822  0.00  0.00    +0.000 A 
ATOM     15  H   UNL     1      41.760   4.203  12.168  0.00  0.00    +0.000 HD
ENDBRANCH   2   5
BRANCH   3  16
ATOM     16  C   UNL     1      47.430   3.607  16.472  0.00  0.00    +0.000 C 
BRANCH  16  17
ATOM     17  C   UNL     1      47.765   4.229  17.802  0.00  0.00    +0.000 A 
ATOM     18  C   UNL     1      48.586   3.586  18.753  0.00  0.00    +0.000 A 
ATOM     19  C   UNL     1      48.839   4.184  20.002  0.00  0.00    +0.000 A 
ATOM     20  C   UNL     1      48.274   5.427  20.337  0.00  0.00    +0.000 A 
ATOM     21  C   UNL     1      47.486   6.059  19.370  0.00  0.00    +0.000 A 
ATOM     22  F   UNL     1      46.985   7.281  19.612  0.00  0.00    +0.000 F 
ATOM     23  C   UNL     1      47.226   5.475  18.135  0.00  0.00    +0.000 A 
BRANCH  20  24
ATOM     24  C   UNL     1      48.567   6.135  21.637  0.00  0.00    +0.000 C 
BRANCH  24  25
ATOM     25  N   UNL     1      49.669   7.092  21.704  0.00  0.00    +0.000 NA
ATOM     26  C   UNL     1      49.342   8.472  22.046  0.00  0.00    +0.000 C 
ATOM     27  C   UNL     1      49.126   9.366  20.822  0.00  0.00    +0.000 C 
ATOM     28  O   UNL     1      50.290   9.373  19.989  0.00  0.00    +0.000 OA
ATOM     29  C   UNL     1      50.610   8.050  19.535  0.00  0.00    +0.000 C 
ATOM     30  C   UNL     1      50.715   7.023  20.681  0.00  0.00    +0.000 C 
ENDBRANCH  24  25
ENDBRANCH  20  24
ENDBRANCH  16  17
ENDBRANCH   3  16
TORSDOF 5
ENDMDL
MODEL 6
REMARK VINA RESULT:    -6.142      3.351      6.944
REMARK INTER + INTRA:          -9.341
REMARK INTER:                  -8.308
REMARK INTRA:                  -1.033
REMARK UNBOUND:                -1.403
REMARK  Name = 
REMARK  5 active torsions:
REMARK  status: ('A' for Active; 'I' for Inactive)
REMARK    1  A    between atoms: C_2  and  C_19
REMARK    2  A    between atoms: N_3  and  C_4
REMARK    3  A    between atoms: C_4  and  C_5
REMARK    4  A    between atoms: C_8  and  C_9
REMARK    5  A    between atoms: C_9  and  N_10
REMARK                            x       y       z     vdW  Elec       q    Type
REMARK                         _______ _______ _______ _____ _____    ______ ____
ROOT
ATOM      1  O   UNL     1      45.347   7.986  11.556  0.00  0.00    +0.000 OA
ATOM      2  C   UNL     1      46.043   6.987  11.391  0.00  0.00    +0.000 C 
ATOM      3  N   UNL     1      47.354   6.938  11.792  0.00  0.00    +0.000 N 
ATOM      4  H   UNL     1      47.935   6.159  11.498  0.00  0.00    +0.000 HD
ENDROOT
BRANCH   2   5
ATOM      5  C   UNL     1      45.494   5.777  10.760  0.00  0.00    +0.000 A 
ATOM      6  C   UNL     1      45.791   5.491   9.434  0.00  0.00    +0.000 A 
ATOM      7  S   UNL     1      45.119   4.022   8.884  0.00  0.00    +0.000 S 
ATOM      8  C   UNL     1      44.440   3.701  10.409  0.00  0.00    +0.000 A 
ATOM      9  N   UNL     1      43.763   2.543  10.644  0.00  0.00    +0.000 NA
ATOM     10  C   UNL     1      43.338   2.411  11.856  0.00  0.00    +0.000 A 
ATOM     11  N   UNL     1      43.513   3.338  12.850  0.00  0.00    +0.000 N 
ATOM     12  C   UNL     1      44.143   4.542  12.646  0.00  0.00    +0.000 A 
ATOM     13  O   UNL     1      44.204   5.387  13.534  0.00  0.00    +0.000 OA
ATOM     14  C   UNL     1      44.683   4.719  11.313  0.00  0.00    +0.000 A 
ATOM     15  H   UNL     1      43.128   3.186  13.771  0.00  0.00    +0.000 HD
ENDBRANCH   2   5
BRANCH   3  16
ATOM     16  C   UNL     1      48.038   8.123  12.257  0.00  0.00    +0.000 C 
BRANCH  16  17
ATOM     17  C   UNL     1      48.452   7.982  13.698  0.00  0.00    +0.000 A 
ATOM     18  C   UNL     1      49.397   7.025  14.125  0.00  0.00    +0.000 A 
ATOM     19  C   UNL     1      49.723   6.899  15.488  0.00  0.00    +0.000 A 
ATOM     20  C   UNL     1      49.111   7.713  16.457  0.00  0.00    +0.000 A 
ATOM     21  C   UNL     1      48.198   8.673  16.010  0.00  0.00    +0.000 A 
ATOM     22  F   UNL     1      47.641   9.524  16.886  0.00  0.00    +0.000 F 
ATOM     23  C   UNL     1      47.864   8.803  14.666  0.00  0.00    +0.000 A 
BRANCH  20  24
ATOM     24  C   UNL     1      49.475   7.657  17.921  0.00  0.00    +0.000 C 
BRANCH  24  25
ATOM     25  N   UNL     1      49.017   6.535  18.736  0.00  0.00    +0.000 NA
ATOM     26  C   UNL     1      49.966   5.456  18.989  0.00  0.00    +0.000 C 
ATOM     27  C   UNL     1      49.851   4.299  17.991  0.00  0.00    +0.000 C 
ATOM     28  O   UNL     1      48.530   3.750  18.003  0.00  0.00    +0.000 OA
ATOM     29  C   UNL     1      47.552   4.743  17.662  0.00  0.00    +0.000 C 
ATOM     30  C   UNL     1      47.662   6.022  18.517  0.00  0.00    +0.000 C 
ENDBRANCH  24  25
ENDBRANCH  20  24
ENDBRANCH  16  17
ENDBRANCH   3  16
TORSDOF 5
ENDMDL
MODEL 7
REMARK VINA RESULT:    -6.053      3.597      7.203
REMARK INTER + INTRA:          -9.225
REMARK INTER:                  -8.305
REMARK INTRA:                  -0.921
REMARK UNBOUND:                -1.403
REMARK  Name = 
REMARK  5 active torsions:
REMARK  status: ('A' for Active; 'I' for Inactive)
REMARK    1  A    between atoms: C_2  and  C_19
REMARK    2  A    between atoms: N_3  and  C_4
REMARK    3  A    between atoms: C_4  and  C_5
REMARK    4  A    between atoms: C_8  and  C_9
REMARK    5  A    between atoms: C_9  and  N_10
REMARK                            x       y       z     vdW  Elec       q    Type
REMARK                         _______ _______ _______ _____ _____    ______ ____
ROOT
ATOM      1  O   UNL     1      45.604   7.908  11.728  0.00  0.00    +0.000 OA
ATOM      2  C   UNL     1      46.259   6.903  11.461  0.00  0.00    +0.000 C 
ATOM      3  N   UNL     1      47.592   6.800  11.770  0.00  0.00    +0.000 N 
ATOM      4  H   UNL     1      48.131   6.025  11.394  0.00  0.00    +0.000 HD
ENDROOT
BRANCH   2   5
ATOM      5  C   UNL     1      45.637   5.745  10.804  0.00  0.00    +0.000 A 
ATOM      6  C   UNL     1      45.886   5.492   9.461  0.00  0.00    +0.000 A 
ATOM      7  S   UNL     1      45.130   4.078   8.879  0.00  0.00    +0.000 S 
ATOM      8  C   UNL     1      44.473   3.736  10.410  0.00  0.00    +0.000 A 
ATOM      9  N   UNL     1      43.747   2.604  10.622  0.00  0.00    +0.000 NA
ATOM     10  C   UNL     1      43.346   2.449  11.840  0.00  0.00    +0.000 A 
ATOM     11  N   UNL     1      43.591   3.331  12.859  0.00  0.00    +0.000 N 
ATOM     12  C   UNL     1      44.273   4.510  12.682  0.00  0.00    +0.000 A 
ATOM     13  O   UNL     1      44.398   5.318  13.596  0.00  0.00    +0.000 OA
ATOM     14  C   UNL     1      44.789   4.708  11.341  0.00  0.00    +0.000 A 
ATOM     15  H   UNL     1      43.222   3.165  13.785  0.00  0.00    +0.000 HD
ENDBRANCH   2   5
BRANCH   3  16
ATOM     16  C   UNL     1      48.339   7.940  12.251  0.00  0.00    +0.000 C 
BRANCH  16  17
ATOM     17  C   UNL     1      48.449   7.923  13.753  0.00  0.00    +0.000 A 
ATOM     18  C   UNL     1      48.451   9.103  14.526  0.00  0.00    +0.000 A 
ATOM     19  C   UNL     1      48.600   9.044  15.925  0.00  0.00    +0.000 A 
ATOM     20  C   UNL     1      48.760   7.812  16.584  0.00  0.00    +0.000 A 
ATOM     21  C   UNL     1      48.728   6.654  15.802  0.00  0.00    +0.000 A 
ATOM     22  F   UNL     1      48.802   5.449  16.390  0.00  0.00    +0.000 F 
ATOM     23  C   UNL     1      48.587   6.701  14.419  0.00  0.00    +0.000 A 
BRANCH  20  24
ATOM     24  C   UNL     1      48.859   7.695  18.085  0.00  0.00    +0.000 C 
BRANCH  24  25
ATOM     25  N   UNL     1      47.639   7.622  18.885  0.00  0.00    +0.000 NA
ATOM     26  C   UNL     1      47.380   8.712  19.819  0.00  0.00    +0.000 C 
ATOM     27  C   UNL     1      47.887   8.430  21.237  0.00  0.00    +0.000 C 
ATOM     28  O   UNL     1      47.292   7.239  21.759  0.00  0.00    +0.000 OA
ATOM     29  C   UNL     1      47.593   6.104  20.935  0.00  0.00    +0.000 C 
ATOM     30  C   UNL     1      47.252   6.325  19.447  0.00  0.00    +0.000 C 
ENDBRANCH  24  25
ENDBRANCH  20  24
ENDBRANCH  16  17
ENDBRANCH   3  16
TORSDOF 5
ENDMDL
MODEL 8
REMARK VINA RESULT:    -6.020      3.567      8.465
REMARK INTER + INTRA:          -9.183
REMARK INTER:                  -8.448
REMARK INTRA:                  -0.735
REMARK UNBOUND:                -1.403
REMARK  Name = 
REMARK  5 active torsions:
REMARK  status: ('A' for Active; 'I' for Inactive)
REMARK    1  A    between atoms: C_2  and  C_19
REMARK    2  A    between atoms: N_3  and  C_4
REMARK    3  A    between atoms: C_4  and  C_5
REMARK    4  A    between atoms: C_8  and  C_9
REMARK    5  A    between atoms: C_9  and  N_10
REMARK                            x       y       z     vdW  Elec       q    Type
REMARK                         _______ _______ _______ _____ _____    ______ ____
ROOT
ATOM      1  O   UNL     1      47.179   3.234  13.849  0.00  0.00    +0.000 OA
ATOM      2  C   UNL     1      46.870   4.311  14.353  0.00  0.00    +0.000 C 
ATOM      3  N   UNL     1      47.059   4.573  15.686  0.00  0.00    +0.000 N 
ATOM      4  H   UNL     1      46.648   5.408  16.092  0.00  0.00    +0.000 HD
ENDROOT
BRANCH   2   5
ATOM      5  C   UNL     1      46.289   5.389  13.539  0.00  0.00    +0.000 A 
ATOM      6  C   UNL     1      47.029   6.535  13.275  0.00  0.00    +0.000 A 
ATOM      7  S   UNL     1      46.223   7.653  12.270  0.00  0.00    +0.000 S 
ATOM      8  C   UNL     1      44.872   6.630  12.125  0.00  0.00    +0.000 A 
ATOM      9  N   UNL     1      43.818   6.972  11.335  0.00  0.00    +0.000 NA
ATOM     10  C   UNL     1      42.881   6.084  11.283  0.00  0.00    +0.000 A 
ATOM     11  N   UNL     1      42.897   4.894  11.963  0.00  0.00    +0.000 N 
ATOM     12  C   UNL     1      43.914   4.530  12.812  0.00  0.00    +0.000 A 
ATOM     13  O   UNL     1      43.854   3.499  13.473  0.00  0.00    +0.000 OA
ATOM     14  C   UNL     1      45.014   5.472  12.867  0.00  0.00    +0.000 A 
ATOM     15  H   UNL     1      42.116   4.255  11.903  0.00  0.00    +0.000 HD
ENDBRANCH   2   5
BRANCH   3  16
ATOM     16  C   UNL     1      47.455   3.529  16.604  0.00  0.00    +0.000 C 
BRANCH  16  17
ATOM     17  C   UNL     1      48.690   3.919  17.372  0.00  0.00    +0.000 A 
ATOM     18  C   UNL     1      49.896   3.191  17.288  0.00  0.00    +0.000 A 
ATOM     19  C   UNL     1      51.014   3.566  18.056  0.00  0.00    +0.000 A 
ATOM     20  C   UNL     1      50.956   4.664  18.931  0.00  0.00    +0.000 A 
ATOM     21  C   UNL     1      49.760   5.387  18.979  0.00  0.00    +0.000 A 
ATOM     22  F   UNL     1      49.677   6.488  19.743  0.00  0.00    +0.000 F 
ATOM     23  C   UNL     1      48.648   5.023  18.228  0.00  0.00    +0.000 A 
BRANCH  20  24
ATOM     24  C   UNL     1      52.147   5.140  19.726  0.00  0.00    +0.000 C 
BRANCH  24  25
ATOM     25  N   UNL     1      53.207   5.890  19.057  0.00  0.00    +0.000 NA
ATOM     26  C   UNL     1      52.805   6.906  18.090  0.00  0.00    +0.000 C 
ATOM     27  C   UNL     1      52.765   6.392  16.648  0.00  0.00    +0.000 C 
ATOM     28  O   UNL     1      54.042   5.879  16.258  0.00  0.00    +0.000 OA
ATOM     29  C   UNL     1      54.453   4.803  17.114  0.00  0.00    +0.000 C 
ATOM     30  C   UNL     1      54.400   5.164  18.612  0.00  0.00    +0.000 C 
ENDBRANCH  24  25
ENDBRANCH  20  24
ENDBRANCH  16  17
ENDBRANCH   3  16
TORSDOF 5
ENDMDL
MODEL 9
REMARK VINA RESULT:    -5.755      2.099      2.669
REMARK INTER + INTRA:          -8.840
REMARK INTER:                  -7.996
REMARK INTRA:                  -0.844
REMARK UNBOUND:                -1.403
REMARK  Name = 
REMARK  5 active torsions:
REMARK  status: ('A' for Active; 'I' for Inactive)
REMARK    1  A    between atoms: C_2  and  C_19
REMARK    2  A    between atoms: N_3  and  C_4
REMARK    3  A    between atoms: C_4  and  C_5
REMARK    4  A    between atoms: C_8  and  C_9
REMARK    5  A    between atoms: C_9  and  N_10
REMARK                            x       y       z     vdW  Elec       q    Type
REMARK                         _______ _______ _______ _____ _____    ______ ____
ROOT
ATOM      1  O   UNL     1      50.154   8.008  16.611  0.00  0.00    +0.000 OA
ATOM      2  C   UNL     1      48.994   8.059  17.016  0.00  0.00    +0.000 C 
ATOM      3  N   UNL     1      47.959   8.460  16.210  0.00  0.00    +0.000 N 
ATOM      4  H   UNL     1      47.049   8.639  16.623  0.00  0.00    +0.000 HD
ENDROOT
BRANCH   2   5
ATOM      5  C   UNL     1      48.655   7.675  18.393  0.00  0.00    +0.000 A 
ATOM      6  C   UNL     1      48.049   8.594  19.241  0.00  0.00    +0.000 A 
ATOM      7  S   UNL     1      47.674   7.962  20.780  0.00  0.00    +0.000 S 
ATOM      8  C   UNL     1      48.276   6.430  20.356  0.00  0.00    +0.000 A 
ATOM      9  N   UNL     1      48.202   5.385  21.226  0.00  0.00    +0.000 NA
ATOM     10  C   UNL     1      48.658   4.270  20.758  0.00  0.00    +0.000 A 
ATOM     11  N   UNL     1      49.195   4.111  19.508  0.00  0.00    +0.000 N 
ATOM     12  C   UNL     1      49.338   5.147  18.617  0.00  0.00    +0.000 A 
ATOM     13  O   UNL     1      49.904   4.988  17.540  0.00  0.00    +0.000 OA
ATOM     14  C   UNL     1      48.795   6.410  19.075  0.00  0.00    +0.000 A 
ATOM     15  H   UNL     1      49.562   3.216  19.214  0.00  0.00    +0.000 HD
ENDBRANCH   2   5
BRANCH   3  16
ATOM     16  C   UNL     1      48.205   9.025  14.903  0.00  0.00    +0.000 C 
BRANCH  16  17
ATOM     17  C   UNL     1      47.603   8.170  13.819  0.00  0.00    +0.000 A 
ATOM     18  C   UNL     1      48.241   7.012  13.324  0.00  0.00    +0.000 A 
ATOM     19  C   UNL     1      47.663   6.266  12.280  0.00  0.00    +0.000 A 
ATOM     20  C   UNL     1      46.445   6.658  11.699  0.00  0.00    +0.000 A 
ATOM     21  C   UNL     1      45.816   7.792  12.222  0.00  0.00    +0.000 A 
ATOM     22  F   UNL     1      44.615   8.166  11.752  0.00  0.00    +0.000 F 
ATOM     23  C   UNL     1      46.380   8.540  13.250  0.00  0.00    +0.000 A 
BRANCH  20  24
ATOM     24  C   UNL     1      45.757   5.855  10.622  0.00  0.00    +0.000 C 
BRANCH  24  25
ATOM     25  N   UNL     1      44.833   4.788  10.998  0.00  0.00    +0.000 NA
ATOM     26  C   UNL     1      43.434   4.942  10.611  0.00  0.00    +0.000 C 
ATOM     27  C   UNL     1      42.567   5.574  11.704  0.00  0.00    +0.000 C 
ATOM     28  O   UNL     1      42.620   4.798  12.905  0.00  0.00    +0.000 OA
ATOM     29  C   UNL     1      43.964   4.691  13.395  0.00  0.00    +0.000 C 
ATOM     30  C   UNL     1      44.962   4.192  12.330  0.00  0.00    +0.000 C 
ENDBRANCH  24  25
ENDBRANCH  20  24
ENDBRANCH  16  17
ENDBRANCH   3  16
TORSDOF 5
ENDMDL
