MODEL 1
REMARK VINA RESULT:    -7.997      0.000      0.000
REMARK INTER + INTRA:         -11.001
REMARK INTER:                 -10.334
REMARK INTRA:                  -0.667
REMARK UNBOUND:                -0.667
REMARK  Name = 
REMARK  6 active torsions:
REMARK  status: ('A' for Active; 'I' for Inactive)
REMARK    1  A    between atoms: C_1  and  C_2
REMARK    2  A    between atoms: C_4  and  C_5
REMARK    3  A    between atoms: C_10  and  N_11
REMARK    4  A    between atoms: N_11  and  C_12
REMARK    5  A    between atoms: C_12  and  C_13
REMARK    6  A    between atoms: C_17  and  N_18
REMARK                            x       y       z     vdW  Elec       q    Type
REMARK                         _______ _______ _______ _____ _____    ______ ____
ROOT
ATOM      1  N   UNL     1      44.172   5.049  10.033  0.00  0.00    +0.000 N 
ATOM      2  H   UNL     1      43.251   5.276   9.684  0.00  0.00    +0.000 HD
ENDROOT
BRANCH   1   9
ATOM      3  C   UNL     1      44.014   2.136  10.314  0.00  0.00    +0.000 C 
ATOM      4  C   UNL     1      44.897   2.841   9.324  0.00  0.00    +0.000 A 
ATOM      5  C   UNL     1      45.734   2.067   8.499  0.00  0.00    +0.000 A 
ATOM      6  C   UNL     1      46.592   2.675   7.585  0.00  0.00    +0.000 A 
ATOM      7  C   UNL     1      46.570   4.055   7.543  0.00  0.00    +0.000 A 
ATOM      8  N   UNL     1      45.771   4.829   8.318  0.00  0.00    +0.000 NA
ATOM      9  C   UNL     1      44.931   4.239   9.194  0.00  0.00    +0.000 A 
BRANCH   6  10
ATOM     10  C   UNL     1      47.460   1.832   6.727  0.00  0.00    +0.000 C 
ATOM     11  N   UNL     1      48.444   2.426   5.986  0.00  0.00    +0.000 N 
ATOM     12  O   UNL     1      47.305   0.612   6.674  0.00  0.00    +0.000 OA
ATOM     13  H   UNL     1      48.661   3.407   5.961  0.00  0.00    +0.000 HD
ATOM     14  H   UNL     1      49.009   1.809   5.414  0.00  0.00    +0.000 HD
ENDBRANCH   6  10
ENDBRANCH   1   9
BRANCH   1  15
ATOM     15  C   UNL     1      44.833   6.141  10.743  0.00  0.00    +0.000 C 
BRANCH  15  16
ATOM     16  C   UNL     1      45.533   5.776  12.033  0.00  0.00    +0.000 A 
ATOM     17  C   UNL     1      45.185   4.579  12.657  0.00  0.00    +0.000 A 
ATOM     18  N   UNL     1      45.800   4.073  13.745  0.00  0.00    +0.000 NA
ATOM     19  C   UNL     1      46.851   4.782  14.220  0.00  0.00    +0.000 A 
ATOM     20  C   UNL     1      47.341   5.979  13.686  0.00  0.00    +0.000 A 
ATOM     21  C   UNL     1      46.631   6.468  12.575  0.00  0.00    +0.000 A 
BRANCH  20  22
ATOM     22  N   UNL     1      48.465   6.602  14.181  0.00  0.00    +0.000 N 
ATOM     23  C   UNL     1      48.836   6.608  15.603  0.00  0.00    +0.000 C 
ATOM     24  C   UNL     1      49.124   8.045  16.067  0.00  0.00    +0.000 C 
ATOM     25  O   UNL     1      50.093   8.697  15.226  0.00  0.00    +0.000 OA
ATOM     26  C   UNL     1      49.623   8.740  13.868  0.00  0.00    +0.000 C 
ATOM     27  C   UNL     1      49.401   7.326  13.305  0.00  0.00    +0.000 C 
ENDBRANCH  20  22
ENDBRANCH  15  16
ENDBRANCH   1  15
TORSDOF 5
ENDMDL
MODEL 2
REMARK VINA RESULT:    -7.337      1.507      2.245
REMARK INTER + INTRA:         -10.148
REMARK INTER:                  -9.675
REMARK INTRA:                  -0.473
REMARK UNBOUND:                -0.667
REMARK  Name = 
REMARK  6 active torsions:
REMARK  status: ('A' for Active; 'I' for Inactive)
REMARK    1  A    between atoms: C_1  and  C_2
REMARK    2  A    between atoms: C_4  and  C_5
REMARK    3  A    between atoms: C_10  and  N_11
REMARK    4  A    between atoms: N_11  and  C_12
REMARK    5  A    between atoms: C_12  and  C_13
REMARK    6  A    between atoms: C_17  and  N_18
REMARK                            x       y       z     vdW  Elec       q    Type
REMARK                         _______ _______ _______ _____ _____    ______ ____
ROOT
ATOM      1  N   UNL     1      44.313   5.180  10.044  0.00  0.00    +0.000 N 
ATOM      2  H   UNL     1      43.920   5.990   9.584  0.00  0.00    +0.000 HD
ENDROOT
BRANCH   1   9
ATOM      3  C   UNL     1      44.049   2.277  10.357  0.00  0.00    +0.000 C 
ATOM      4  C   UNL     1      44.956   2.938   9.358  0.00  0.00    +0.000 A 
ATOM      5  C   UNL     1      45.762   2.126   8.541  0.00  0.00    +0.000 A 
ATOM      6  C   UNL     1      46.641   2.692   7.619  0.00  0.00    +0.000 A 
ATOM      7  C   UNL     1      46.670   4.071   7.562  0.00  0.00    +0.000 A 
ATOM      8  N   UNL     1      45.900   4.882   8.330  0.00  0.00    +0.000 NA
ATOM      9  C   UNL     1      45.041   4.333   9.213  0.00  0.00    +0.000 A 
BRANCH   6  10
ATOM     10  C   UNL     1      47.476   1.808   6.770  0.00  0.00    +0.000 C 
ATOM     11  N   UNL     1      48.577   2.328   6.147  0.00  0.00    +0.000 N 
ATOM     12  O   UNL     1      47.190   0.620   6.618  0.00  0.00    +0.000 OA
ATOM     13  H   UNL     1      48.903   3.277   6.208  0.00  0.00    +0.000 HD
ATOM     14  H   UNL     1      49.114   1.686   5.576  0.00  0.00    +0.000 HD
ENDBRANCH   6  10
ENDBRANCH   1   9
BRANCH   1  15
ATOM     15  C   UNL     1      44.806   5.434  11.395  0.00  0.00    +0.000 C 
BRANCH  15  16
ATOM     16  C   UNL     1      45.407   6.799  11.644  0.00  0.00    +0.000 A 
ATOM     17  C   UNL     1      44.608   7.921  11.423  0.00  0.00    +0.000 A 
ATOM     18  N   UNL     1      44.970   9.188  11.706  0.00  0.00    +0.000 NA
ATOM     19  C   UNL     1      46.185   9.348  12.281  0.00  0.00    +0.000 A 
ATOM     20  C   UNL     1      47.085   8.323  12.596  0.00  0.00    +0.000 A 
ATOM     21  C   UNL     1      46.659   7.031  12.240  0.00  0.00    +0.000 A 
BRANCH  20  22
ATOM     22  N   UNL     1      48.272   8.559  13.252  0.00  0.00    +0.000 N 
ATOM     23  C   UNL     1      49.384   9.329  12.675  0.00  0.00    +0.000 C 
ATOM     24  C   UNL     1      50.694   8.534  12.796  0.00  0.00    +0.000 C 
ATOM     25  O   UNL     1      50.941   8.107  14.148  0.00  0.00    +0.000 OA
ATOM     26  C   UNL     1      49.861   7.281  14.613  0.00  0.00    +0.000 C 
ATOM     27  C   UNL     1      48.525   8.046  14.608  0.00  0.00    +0.000 C 
ENDBRANCH  20  22
ENDBRANCH  15  16
ENDBRANCH   1  15
TORSDOF 5
ENDMDL
MODEL 3
REMARK VINA RESULT:    -6.981      2.102      6.855
REMARK INTER + INTRA:          -9.688
REMARK INTER:                  -8.683
REMARK INTRA:                  -1.005
REMARK UNBOUND:                -0.667
REMARK  Name = 
REMARK  6 active torsions:
REMARK  status: ('A' for Active; 'I' for Inactive)
REMARK    1  A    between atoms: C_1  and  C_2
REMARK    2  A    between atoms: C_4  and  C_5
REMARK    3  A    between atoms: C_10  and  N_11
REMARK    4  A    between atoms: N_11  and  C_12
REMARK    5  A    between atoms: C_12  and  C_13
REMARK    6  A    between atoms: C_17  and  N_18
REMARK                            x       y       z     vdW  Elec       q    Type
REMARK                         _______ _______ _______ _____ _____    ______ ____
ROOT
ATOM      1  N   UNL     1      45.163   7.087  13.274  0.00  0.00    +0.000 N 
ATOM      2  H   UNL     1      45.071   6.647  14.179  0.00  0.00    +0.000 HD
ENDROOT
BRANCH   1   9
ATOM      3  C   UNL     1      47.243   5.154  13.997  0.00  0.00    +0.000 C 
ATOM      4  C   UNL     1      47.497   6.412  13.217  0.00  0.00    +0.000 A 
ATOM      5  C   UNL     1      48.817   6.712  12.836  0.00  0.00    +0.000 A 
ATOM      6  C   UNL     1      49.108   7.881  12.135  0.00  0.00    +0.000 A 
ATOM      7  C   UNL     1      48.040   8.709  11.848  0.00  0.00    +0.000 A 
ATOM      8  N   UNL     1      46.756   8.445  12.194  0.00  0.00    +0.000 NA
ATOM      9  C   UNL     1      46.474   7.306  12.861  0.00  0.00    +0.000 A 
BRANCH   6  10
ATOM     10  C   UNL     1      50.510   8.169  11.745  0.00  0.00    +0.000 C 
ATOM     11  N   UNL     1      51.222   7.218  11.068  0.00  0.00    +0.000 N 
ATOM     12  O   UNL     1      51.036   9.246  12.024  0.00  0.00    +0.000 OA
ATOM     13  H   UNL     1      50.888   6.313  10.785  0.00  0.00    +0.000 HD
ATOM     14  H   UNL     1      52.175   7.461  10.825  0.00  0.00    +0.000 HD
ENDBRANCH   6  10
ENDBRANCH   1   9
BRANCH   1  15
ATOM     15  C   UNL     1      44.180   6.647  12.287  0.00  0.00    +0.000 C 
BRANCH  15  16
ATOM     16  C   UNL     1      44.244   5.193  11.878  0.00  0.00    +0.000 A 
ATOM     17  C   UNL     1      43.663   4.245  12.719  0.00  0.00    +0.000 A 
ATOM     18  N   UNL     1      43.547   2.933  12.432  0.00  0.00    +0.000 NA
ATOM     19  C   UNL     1      44.003   2.545  11.218  0.00  0.00    +0.000 A 
ATOM     20  C   UNL     1      44.580   3.379  10.254  0.00  0.00    +0.000 A 
ATOM     21  C   UNL     1      44.703   4.727  10.634  0.00  0.00    +0.000 A 
BRANCH  20  22
ATOM     22  N   UNL     1      44.951   2.922   9.009  0.00  0.00    +0.000 N 
ATOM     23  C   UNL     1      45.150   1.501   8.687  0.00  0.00    +0.000 C 
ATOM     24  C   UNL     1      46.512   1.303   8.003  0.00  0.00    +0.000 C 
ATOM     25  O   UNL     1      46.674   2.170   6.865  0.00  0.00    +0.000 OA
ATOM     26  C   UNL     1      46.562   3.544   7.269  0.00  0.00    +0.000 C 
ATOM     27  C   UNL     1      45.182   3.840   7.882  0.00  0.00    +0.000 C 
ENDBRANCH  20  22
ENDBRANCH  15  16
ENDBRANCH   1  15
TORSDOF 5
ENDMDL
MODEL 4
REMARK VINA RESULT:    -6.894      3.750      8.179
REMARK INTER + INTRA:          -9.576
REMARK INTER:                  -8.797
REMARK INTRA:                  -0.778
REMARK UNBOUND:                -0.667
REMARK  Name = 
REMARK  6 active torsions:
REMARK  status: ('A' for Active; 'I' for Inactive)
REMARK    1  A    between atoms: C_1  and  C_2
REMARK    2  A    between atoms: C_4  and  C_5
REMARK    3  A    between atoms: C_10  and  N_11
REMARK    4  A    between atoms: N_11  and  C_12
REMARK    5  A    between atoms: C_12  and  C_13
REMARK    6  A    between atoms: C_17  and  N_18
REMARK                            x       y       z     vdW  Elec       q    Type
REMARK                         _______ _______ _______ _____ _____    ______ ____
ROOT
ATOM      1  N   UNL     1      48.467   6.023  16.425  0.00  0.00    +0.000 N 
ATOM      2  H   UNL     1      47.479   5.821  16.499  0.00  0.00    +0.000 HD
ENDROOT
BRANCH   1   9
ATOM      3  C   UNL     1      47.328   3.361  16.882  0.00  0.00    +0.000 C 
ATOM      4  C   UNL     1      48.786   3.691  17.034  0.00  0.00    +0.000 A 
ATOM      5  C   UNL     1      49.664   2.678  17.457  0.00  0.00    +0.000 A 
ATOM      6  C   UNL     1      51.021   2.942  17.640  0.00  0.00    +0.000 A 
ATOM      7  C   UNL     1      51.437   4.234  17.385  0.00  0.00    +0.000 A 
ATOM      8  N   UNL     1      50.617   5.231  16.969  0.00  0.00    +0.000 NA
ATOM      9  C   UNL     1      49.307   4.971  16.781  0.00  0.00    +0.000 A 
BRANCH   6  10
ATOM     10  C   UNL     1      51.923   1.851  18.084  0.00  0.00    +0.000 C 
ATOM     11  N   UNL     1      51.527   0.552  17.927  0.00  0.00    +0.000 N 
ATOM     12  O   UNL     1      53.016   2.102  18.592  0.00  0.00    +0.000 OA
ATOM     13  H   UNL     1      50.663   0.238  17.520  0.00  0.00    +0.000 HD
ATOM     14  H   UNL     1      52.177  -0.156  18.247  0.00  0.00    +0.000 HD
ENDBRANCH   6  10
ENDBRANCH   1   9
BRANCH   1  15
ATOM     15  C   UNL     1      48.828   6.854  15.280  0.00  0.00    +0.000 C 
BRANCH  15  16
ATOM     16  C   UNL     1      47.956   6.720  14.052  0.00  0.00    +0.000 A 
ATOM     17  C   UNL     1      48.367   7.350  12.878  0.00  0.00    +0.000 A 
ATOM     18  N   UNL     1      47.752   7.227  11.685  0.00  0.00    +0.000 NA
ATOM     19  C   UNL     1      46.685   6.396  11.646  0.00  0.00    +0.000 A 
ATOM     20  C   UNL     1      46.171   5.669  12.727  0.00  0.00    +0.000 A 
ATOM     21  C   UNL     1      46.838   5.873  13.948  0.00  0.00    +0.000 A 
BRANCH  20  22
ATOM     22  N   UNL     1      45.127   4.783  12.591  0.00  0.00    +0.000 N 
ATOM     23  C   UNL     1      45.293   3.384  12.171  0.00  0.00    +0.000 C 
ATOM     24  C   UNL     1      44.329   3.063  11.016  0.00  0.00    +0.000 C 
ATOM     25  O   UNL     1      42.969   3.399  11.343  0.00  0.00    +0.000 OA
ATOM     26  C   UNL     1      42.863   4.799  11.650  0.00  0.00    +0.000 C 
ATOM     27  C   UNL     1      43.735   5.176  12.861  0.00  0.00    +0.000 C 
ENDBRANCH  20  22
ENDBRANCH  15  16
ENDBRANCH   1  15
TORSDOF 5
ENDMDL
MODEL 5
REMARK VINA RESULT:    -6.411      1.796      2.652
REMARK INTER + INTRA:          -8.951
REMARK INTER:                  -8.201
REMARK INTRA:                  -0.750
REMARK UNBOUND:                -0.667
REMARK  Name = 
REMARK  6 active torsions:
REMARK  status: ('A' for Active; 'I' for Inactive)
REMARK    1  A    between atoms: C_1  and  C_2
REMARK    2  A    between atoms: C_4  and  C_5
REMARK    3  A    between atoms: C_10  and  N_11
REMARK    4  A    between atoms: N_11  and  C_12
REMARK    5  A    between atoms: C_12  and  C_13
REMARK    6  A    between atoms: C_17  and  N_18
REMARK                            x       y       z     vdW  Elec       q    Type
REMARK                         _______ _______ _______ _____ _____    ______ ____
ROOT
ATOM      1  N   UNL     1      44.010   5.693  11.268  0.00  0.00    +0.000 N 
ATOM      2  H   UNL     1      43.007   5.667  11.393  0.00  0.00    +0.000 HD
ENDROOT
BRANCH   1   9
ATOM      3  C   UNL     1      43.519   2.870  11.885  0.00  0.00    +0.000 C 
ATOM      4  C   UNL     1      44.323   3.348  10.709  0.00  0.00    +0.000 A 
ATOM      5  C   UNL     1      44.914   2.392   9.865  0.00  0.00    +0.000 A 
ATOM      6  C   UNL     1      45.693   2.785   8.778  0.00  0.00    +0.000 A 
ATOM      7  C   UNL     1      45.844   4.145   8.588  0.00  0.00    +0.000 A 
ATOM      8  N   UNL     1      45.282   5.092   9.380  0.00  0.00    +0.000 NA
ATOM      9  C   UNL     1      44.518   4.710  10.424  0.00  0.00    +0.000 A 
BRANCH   6  10
ATOM     10  C   UNL     1      46.301   1.753   7.903  0.00  0.00    +0.000 C 
ATOM     11  N   UNL     1      46.929   2.139   6.752  0.00  0.00    +0.000 N 
ATOM     12  O   UNL     1      46.244   0.559   8.199  0.00  0.00    +0.000 OA
ATOM     13  H   UNL     1      47.039   3.082   6.421  0.00  0.00    +0.000 HD
ATOM     14  H   UNL     1      47.327   1.398   6.188  0.00  0.00    +0.000 HD
ENDBRANCH   6  10
ENDBRANCH   1   9
BRANCH   1  15
ATOM     15  C   UNL     1      44.575   7.038  11.202  0.00  0.00    +0.000 C 
BRANCH  15  16
ATOM     16  C   UNL     1      45.763   7.312  12.096  0.00  0.00    +0.000 A 
ATOM     17  C   UNL     1      46.230   8.622  12.190  0.00  0.00    +0.000 A 
ATOM     18  N   UNL     1      47.203   9.032  13.027  0.00  0.00    +0.000 NA
ATOM     19  C   UNL     1      47.720   8.089  13.849  0.00  0.00    +0.000 A 
ATOM     20  C   UNL     1      47.337   6.743  13.897  0.00  0.00    +0.000 A 
ATOM     21  C   UNL     1      46.342   6.377  12.973  0.00  0.00    +0.000 A 
BRANCH  20  22
ATOM     22  N   UNL     1      47.857   5.860  14.816  0.00  0.00    +0.000 N 
ATOM     23  C   UNL     1      47.404   4.468  14.957  0.00  0.00    +0.000 C 
ATOM     24  C   UNL     1      47.076   4.168  16.429  0.00  0.00    +0.000 C 
ATOM     25  O   UNL     1      48.172   4.498  17.301  0.00  0.00    +0.000 OA
ATOM     26  C   UNL     1      48.499   5.892  17.181  0.00  0.00    +0.000 C 
ATOM     27  C   UNL     1      48.928   6.249  15.748  0.00  0.00    +0.000 C 
ENDBRANCH  20  22
ENDBRANCH  15  16
ENDBRANCH   1  15
TORSDOF 5
ENDMDL
MODEL 6
REMARK VINA RESULT:    -6.242      3.243      8.594
REMARK INTER + INTRA:          -8.733
REMARK INTER:                  -8.079
REMARK INTRA:                  -0.654
REMARK UNBOUND:                -0.667
REMARK  Name = 
REMARK  6 active torsions:
REMARK  status: ('A' for Active; 'I' for Inactive)
REMARK    1  A    between atoms: C_1  and  C_2
REMARK    2  A    between atoms: C_4  and  C_5
REMARK    3  A    between atoms: C_10  and  N_11
REMARK    4  A    between atoms: N_11  and  C_12
REMARK    5  A    between atoms: C_12  and  C_13
REMARK    6  A    between atoms: C_17  and  N_18
REMARK                            x       y       z     vdW  Elec       q    Type
REMARK                         _______ _______ _______ _____ _____    ______ ____
ROOT
ATOM      1  N   UNL     1      48.912   7.382  14.748  0.00  0.00    +0.000 N 
ATOM      2  H   UNL     1      48.617   8.348  14.787  0.00  0.00    +0.000 HD
ENDROOT
BRANCH   1   9
ATOM      3  C   UNL     1      48.874   8.849  17.284  0.00  0.00    +0.000 C 
ATOM      4  C   UNL     1      48.782   7.354  17.174  0.00  0.00    +0.000 A 
ATOM      5  C   UNL     1      48.709   6.596  18.357  0.00  0.00    +0.000 A 
ATOM      6  C   UNL     1      48.651   5.204  18.308  0.00  0.00    +0.000 A 
ATOM      7  C   UNL     1      48.669   4.630  17.052  0.00  0.00    +0.000 A 
ATOM      8  N   UNL     1      48.731   5.333  15.894  0.00  0.00    +0.000 NA
ATOM      9  C   UNL     1      48.775   6.681  15.942  0.00  0.00    +0.000 A 
BRANCH   6  10
ATOM     10  C   UNL     1      48.572   4.432  19.572  0.00  0.00    +0.000 C 
ATOM     11  N   UNL     1      48.367   3.082  19.517  0.00  0.00    +0.000 N 
ATOM     12  O   UNL     1      48.686   4.991  20.663  0.00  0.00    +0.000 OA
ATOM     13  H   UNL     1      48.268   2.528  18.684  0.00  0.00    +0.000 HD
ATOM     14  H   UNL     1      48.319   2.599  20.407  0.00  0.00    +0.000 HD
ENDBRANCH   6  10
ENDBRANCH   1   9
BRANCH   1  15
ATOM     15  C   UNL     1      48.593   6.705  13.493  0.00  0.00    +0.000 C 
BRANCH  15  16
ATOM     16  C   UNL     1      47.199   6.921  12.950  0.00  0.00    +0.000 A 
ATOM     17  C   UNL     1      46.850   8.200  12.518  0.00  0.00    +0.000 A 
ATOM     18  N   UNL     1      45.687   8.514  11.912  0.00  0.00    +0.000 NA
ATOM     19  C   UNL     1      44.834   7.488  11.687  0.00  0.00    +0.000 A 
ATOM     20  C   UNL     1      45.053   6.149  12.031  0.00  0.00    +0.000 A 
ATOM     21  C   UNL     1      46.269   5.898  12.692  0.00  0.00    +0.000 A 
BRANCH  20  22
ATOM     22  N   UNL     1      44.169   5.147  11.699  0.00  0.00    +0.000 N 
ATOM     23  C   UNL     1      43.376   4.399  12.686  0.00  0.00    +0.000 C 
ATOM     24  C   UNL     1      43.537   2.888  12.455  0.00  0.00    +0.000 C 
ATOM     25  O   UNL     1      43.245   2.518  11.095  0.00  0.00    +0.000 OA
ATOM     26  C   UNL     1      44.120   3.214  10.193  0.00  0.00    +0.000 C 
ATOM     27  C   UNL     1      43.946   4.739  10.303  0.00  0.00    +0.000 C 
ENDBRANCH  20  22
ENDBRANCH  15  16
ENDBRANCH   1  15
TORSDOF 5
ENDMDL
MODEL 7
REMARK VINA RESULT:    -6.236      3.702      8.498
REMARK INTER + INTRA:          -8.725
REMARK INTER:                  -8.120
REMARK INTRA:                  -0.605
REMARK UNBOUND:                -0.667
REMARK  Name = 
REMARK  6 active torsions:
REMARK  status: ('A' for Active; 'I' for Inactive)
REMARK    1  A    between atoms: C_1  and  C_2
REMARK    2  A    between atoms: C_4  and  C_5
REMARK    3  A    between atoms: C_10  and  N_11
REMARK    4  A    between atoms: N_11  and  C_12
REMARK    5  A    between atoms: C_12  and  C_13
REMARK    6  A    between atoms: C_17  and  N_18
REMARK                            x       y       z     vdW  Elec       q    Type
REMARK                         _______ _______ _______ _____ _____    ______ ____
ROOT
ATOM      1  N   UNL     1      47.712   4.171  16.458  0.00  0.00    +0.000 N 
ATOM      2  H   UNL     1      47.029   4.343  17.184  0.00  0.00    +0.000 HD
ENDROOT
BRANCH   1   9
ATOM      3  C   UNL     1      49.604   6.135  17.532  0.00  0.00    +0.000 C 
ATOM      4  C   UNL     1      49.893   4.665  17.409  0.00  0.00    +0.000 A 
ATOM      5  C   UNL     1      51.160   4.195  17.795  0.00  0.00    +0.000 A 
ATOM      6  C   UNL     1      51.487   2.845  17.674  0.00  0.00    +0.000 A 
ATOM      7  C   UNL     1      50.507   2.018  17.160  0.00  0.00    +0.000 A 
ATOM      8  N   UNL     1      49.273   2.439  16.786  0.00  0.00    +0.000 NA
ATOM      9  C   UNL     1      48.955   3.744  16.915  0.00  0.00    +0.000 A 
BRANCH   6  10
ATOM     10  C   UNL     1      52.831   2.379  18.092  0.00  0.00    +0.000 C 
ATOM     11  N   UNL     1      53.881   3.253  18.058  0.00  0.00    +0.000 N 
ATOM     12  O   UNL     1      53.011   1.219  18.465  0.00  0.00    +0.000 OA
ATOM     13  H   UNL     1      53.844   4.219  17.780  0.00  0.00    +0.000 HD
ATOM     14  H   UNL     1      54.779   2.887  18.352  0.00  0.00    +0.000 HD
ENDBRANCH   6  10
ENDBRANCH   1   9
BRANCH   1  15
ATOM     15  C   UNL     1      47.163   3.569  15.246  0.00  0.00    +0.000 C 
BRANCH  15  16
ATOM     16  C   UNL     1      46.818   4.519  14.122  0.00  0.00    +0.000 A 
ATOM     17  C   UNL     1      47.444   5.765  14.095  0.00  0.00    +0.000 A 
ATOM     18  N   UNL     1      47.319   6.666  13.100  0.00  0.00    +0.000 NA
ATOM     19  C   UNL     1      46.554   6.291  12.048  0.00  0.00    +0.000 A 
ATOM     20  C   UNL     1      45.889   5.067  11.912  0.00  0.00    +0.000 A 
ATOM     21  C   UNL     1      46.033   4.190  13.002  0.00  0.00    +0.000 A 
BRANCH  20  22
ATOM     22  N   UNL     1      45.191   4.728  10.775  0.00  0.00    +0.000 N 
ATOM     23  C   UNL     1      44.078   3.767  10.756  0.00  0.00    +0.000 C 
ATOM     24  C   UNL     1      44.307   2.718   9.656  0.00  0.00    +0.000 C 
ATOM     25  O   UNL     1      44.551   3.327   8.375  0.00  0.00    +0.000 OA
ATOM     26  C   UNL     1      45.707   4.178   8.442  0.00  0.00    +0.000 C 
ATOM     27  C   UNL     1      45.512   5.313   9.463  0.00  0.00    +0.000 C 
ENDBRANCH  20  22
ENDBRANCH  15  16
ENDBRANCH   1  15
TORSDOF 5
ENDMDL
MODEL 8
REMARK VINA RESULT:    -6.150      3.145      5.091
REMARK INTER + INTRA:          -8.614
REMARK INTER:                  -8.017
REMARK INTRA:                  -0.597
REMARK UNBOUND:                -0.667
REMARK  Name = 
REMARK  6 active torsions:
REMARK  status: ('A' for Active; 'I' for Inactive)
REMARK    1  A    between atoms: C_1  and  C_2
REMARK    2  A    between atoms: C_4  and  C_5
REMARK    3  A    between atoms: C_10  and  N_11
REMARK    4  A    between atoms: N_11  and  C_12
REMARK    5  A    between atoms: C_12  and  C_13
REMARK    6  A    between atoms: C_17  and  N_18
REMARK                            x       y       z     vdW  Elec       q    Type
REMARK                         _______ _______ _______ _____ _____    ______ ____
ROOT
ATOM      1  N   UNL     1      46.221   4.634  14.812  0.00  0.00    +0.000 N 
ATOM      2  H   UNL     1      46.066   5.515  15.285  0.00  0.00    +0.000 HD
ENDROOT
BRANCH   1   9
ATOM      3  C   UNL     1      46.945   7.041  13.305  0.00  0.00    +0.000 C 
ATOM      4  C   UNL     1      46.327   5.816  12.692  0.00  0.00    +0.000 A 
ATOM      5  C   UNL     1      46.039   5.826  11.315  0.00  0.00    +0.000 A 
ATOM      6  C   UNL     1      45.441   4.725  10.705  0.00  0.00    +0.000 A 
ATOM      7  C   UNL     1      45.154   3.648  11.521  0.00  0.00    +0.000 A 
ATOM      8  N   UNL     1      45.426   3.605  12.849  0.00  0.00    +0.000 NA
ATOM      9  C   UNL     1      46.017   4.667  13.436  0.00  0.00    +0.000 A 
BRANCH   6  10
ATOM     10  C   UNL     1      45.152   4.764   9.251  0.00  0.00    +0.000 C 
ATOM     11  N   UNL     1      43.917   4.384   8.806  0.00  0.00    +0.000 N 
ATOM     12  O   UNL     1      46.008   5.129   8.445  0.00  0.00    +0.000 OA
ATOM     13  H   UNL     1      43.147   4.077   9.375  0.00  0.00    +0.000 HD
ATOM     14  H   UNL     1      43.768   4.426   7.804  0.00  0.00    +0.000 HD
ENDBRANCH   6  10
ENDBRANCH   1   9
BRANCH   1  15
ATOM     15  C   UNL     1      47.338   3.856  15.340  0.00  0.00    +0.000 C 
BRANCH  15  16
ATOM     16  C   UNL     1      47.721   4.121  16.779  0.00  0.00    +0.000 A 
ATOM     17  C   UNL     1      48.044   3.032  17.587  0.00  0.00    +0.000 A 
ATOM     18  N   UNL     1      48.508   3.123  18.849  0.00  0.00    +0.000 NA
ATOM     19  C   UNL     1      48.698   4.376  19.326  0.00  0.00    +0.000 A 
ATOM     20  C   UNL     1      48.453   5.565  18.629  0.00  0.00    +0.000 A 
ATOM     21  C   UNL     1      47.936   5.395  17.332  0.00  0.00    +0.000 A 
BRANCH  20  22
ATOM     22  N   UNL     1      48.744   6.803  19.155  0.00  0.00    +0.000 N 
ATOM     23  C   UNL     1      48.381   7.216  20.519  0.00  0.00    +0.000 C 
ATOM     24  C   UNL     1      47.656   8.571  20.483  0.00  0.00    +0.000 C 
ATOM     25  O   UNL     1      48.413   9.567  19.772  0.00  0.00    +0.000 OA
ATOM     26  C   UNL     1      48.649   9.139  18.420  0.00  0.00    +0.000 C 
ATOM     27  C   UNL     1      49.456   7.830  18.377  0.00  0.00    +0.000 C 
ENDBRANCH  20  22
ENDBRANCH  15  16
ENDBRANCH   1  15
TORSDOF 5
ENDMDL
MODEL 9
REMARK VINA RESULT:    -6.040      3.210      5.136
REMARK INTER + INTRA:          -8.471
REMARK INTER:                  -7.823
REMARK INTRA:                  -0.649
REMARK UNBOUND:                -0.667
REMARK  Name = 
REMARK  6 active torsions:
REMARK  status: ('A' for Active; 'I' for Inactive)
REMARK    1  A    between atoms: C_1  and  C_2
REMARK    2  A    between atoms: C_4  and  C_5
REMARK    3  A    between atoms: C_10  and  N_11
REMARK    4  A    between atoms: N_11  and  C_12
REMARK    5  A    between atoms: C_12  and  C_13
REMARK    6  A    between atoms: C_17  and  N_18
REMARK                            x       y       z     vdW  Elec       q    Type
REMARK                         _______ _______ _______ _____ _____    ______ ____
ROOT
ATOM      1  N   UNL     1      46.525   7.607  13.470  0.00  0.00    +0.000 N 
ATOM      2  H   UNL     1      45.893   8.376  13.646  0.00  0.00    +0.000 HD
ENDROOT
BRANCH   1   9
ATOM      3  C   UNL     1      44.545   8.052  11.355  0.00  0.00    +0.000 C 
ATOM      4  C   UNL     1      44.977   6.695  11.833  0.00  0.00    +0.000 A 
ATOM      5  C   UNL     1      44.374   5.558  11.265  0.00  0.00    +0.000 A 
ATOM      6  C   UNL     1      44.720   4.279  11.694  0.00  0.00    +0.000 A 
ATOM      7  C   UNL     1      45.671   4.199  12.693  0.00  0.00    +0.000 A 
ATOM      8  N   UNL     1      46.276   5.275  13.256  0.00  0.00    +0.000 NA
ATOM      9  C   UNL     1      45.949   6.513  12.831  0.00  0.00    +0.000 A 
BRANCH   6  10
ATOM     10  C   UNL     1      44.068   3.099  11.074  0.00  0.00    +0.000 C 
ATOM     11  N   UNL     1      44.743   2.390  10.119  0.00  0.00    +0.000 N 
ATOM     12  O   UNL     1      42.933   2.756  11.404  0.00  0.00    +0.000 OA
ATOM     13  H   UNL     1      45.672   2.578   9.782  0.00  0.00    +0.000 HD
ATOM     14  H   UNL     1      44.256   1.594   9.724  0.00  0.00    +0.000 HD
ENDBRANCH   6  10
ENDBRANCH   1   9
BRANCH   1  15
ATOM     15  C   UNL     1      47.876   8.012  13.091  0.00  0.00    +0.000 C 
BRANCH  15  16
ATOM     16  C   UNL     1      48.987   7.606  14.033  0.00  0.00    +0.000 A 
ATOM     17  C   UNL     1      50.230   8.222  13.891  0.00  0.00    +0.000 A 
ATOM     18  N   UNL     1      51.275   8.043  14.724  0.00  0.00    +0.000 NA
ATOM     19  C   UNL     1      51.060   7.231  15.785  0.00  0.00    +0.000 A 
ATOM     20  C   UNL     1      49.863   6.568  16.082  0.00  0.00    +0.000 A 
ATOM     21  C   UNL     1      48.827   6.771  15.153  0.00  0.00    +0.000 A 
BRANCH  20  22
ATOM     22  N   UNL     1      49.698   5.818  17.225  0.00  0.00    +0.000 N 
ATOM     23  C   UNL     1      50.456   4.592  17.513  0.00  0.00    +0.000 C 
ATOM     24  C   UNL     1      49.494   3.455  17.895  0.00  0.00    +0.000 C 
ATOM     25  O   UNL     1      48.608   3.837  18.962  0.00  0.00    +0.000 OA
ATOM     26  C   UNL     1      47.831   4.984  18.576  0.00  0.00    +0.000 C 
ATOM     27  C   UNL     1      48.729   6.194  18.267  0.00  0.00    +0.000 C 
ENDBRANCH  20  22
ENDBRANCH  15  16
ENDBRANCH   1  15
TORSDOF 5
ENDMDL
