MODEL 1
REMARK VINA RESULT:    -7.923      0.000      0.000
REMARK INTER + INTRA:         -13.260
REMARK INTER:                 -12.092
REMARK INTRA:                  -1.168
REMARK UNBOUND:                -1.168
REMARK  Name = 
REMARK  9 active torsions:
REMARK  status: ('A' for Active; 'I' for Inactive)
REMARK    1  A    between atoms: C_2  and  C_3
REMARK    2  A    between atoms: C_3  and  C_4
REMARK    3  A    between atoms: C_3  and  N_11
REMARK    4  A    between atoms: C_4  and  C_5
REMARK    5  A    between atoms: N_11  and  C_12
REMARK    6  A    between atoms: C_12  and  C_13
REMARK    7  A    between atoms: C_16  and  C_17
REMARK    8  A    between atoms: C_17  and  N_18
REMARK    9  A    between atoms: C_19  and  C_21
REMARK                            x       y       z     vdW  Elec       q    Type
REMARK                         _______ _______ _______ _____ _____    ______ ____
ROOT
ATOM      1  C   UNL     1      44.205   6.242  11.695  0.00  0.00    +0.000 A 
ATOM      2  C   UNL     1      44.417   7.593  11.390  0.00  0.00    +0.000 A 
ATOM      3  C   UNL     1      45.452   8.304  11.997  0.00  0.00    +0.000 A 
ATOM      4  C   UNL     1      46.288   7.678  12.930  0.00  0.00    +0.000 A 
ATOM      5  C   UNL     1      46.025   6.352  13.297  0.00  0.00    +0.000 A 
ATOM      6  C   UNL     1      45.002   5.635  12.676  0.00  0.00    +0.000 A 
ENDROOT
BRANCH   1   7
ATOM      7  C   UNL     1      43.152   5.448  10.965  0.00  0.00    +0.000 C 
BRANCH   7   8
ATOM      8  N   UNL     1      43.673   4.944   9.691  0.00  0.00    +0.000 NA
ATOM      9  H   UNL     1      42.977   5.083   8.961  0.00  0.00    +0.000 HD
BRANCH   8  10
ATOM     10  C   UNL     1      44.046   3.516   9.757  0.00  0.00    +0.000 C 
BRANCH  10  12
ATOM     11  N   UNL     1      43.103   2.229  11.867  0.00  0.00    +0.000 NA
ATOM     12  C   UNL     1      43.507   2.815  10.945  0.00  0.00    +0.000 C 
ENDBRANCH  10  12
BRANCH  10  13
ATOM     13  C   UNL     1      45.578   3.314   9.687  0.00  0.00    +0.000 C 
BRANCH  13  14
ATOM     14  C   UNL     1      46.131   2.871   8.349  0.00  0.00    +0.000 A 
ATOM     15  C   UNL     1      46.452   1.526   8.114  0.00  0.00    +0.000 A 
ATOM     16  C   UNL     1      46.941   1.122   6.871  0.00  0.00    +0.000 A 
ATOM     17  C   UNL     1      47.114   2.055   5.851  0.00  0.00    +0.000 A 
ATOM     18  C   UNL     1      46.817   3.397   6.079  0.00  0.00    +0.000 A 
ATOM     19  C   UNL     1      46.335   3.804   7.324  0.00  0.00    +0.000 A 
ENDBRANCH  13  14
ENDBRANCH  10  13
ENDBRANCH   8  10
ENDBRANCH   7   8
ENDBRANCH   1   7
BRANCH   4  20
ATOM     20  C   UNL     1      47.446   8.416  13.546  0.00  0.00    +0.000 C 
BRANCH  20  21
ATOM     21  N   UNL     1      47.782   7.877  14.834  0.00  0.00    +0.000 N 
ATOM     22  C   UNL     1      48.862   7.049  15.000  0.00  0.00    +0.000 C 
ATOM     23  O   UNL     1      49.610   6.753  14.073  0.00  0.00    +0.000 OA
ATOM     24  H   UNL     1      47.053   7.891  15.540  0.00  0.00    +0.000 HD
BRANCH  22  25
ATOM     25  C   UNL     1      49.116   6.592  16.370  0.00  0.00    +0.000 A 
ATOM     26  C   UNL     1      49.782   7.420  17.262  0.00  0.00    +0.000 A 
ATOM     27  S   UNL     1      49.961   6.744  18.817  0.00  0.00    +0.000 S 
ATOM     28  C   UNL     1      49.192   5.304  18.339  0.00  0.00    +0.000 A 
ATOM     29  N   UNL     1      49.042   4.267  19.206  0.00  0.00    +0.000 NA
ATOM     30  C   UNL     1      48.463   3.227  18.703  0.00  0.00    +0.000 A 
ATOM     31  N   UNL     1      48.013   3.134  17.412  0.00  0.00    +0.000 N 
ATOM     32  C   UNL     1      48.109   4.166  16.512  0.00  0.00    +0.000 A 
ATOM     33  O   UNL     1      47.629   4.075  15.387  0.00  0.00    +0.000 OA
ATOM     34  C   UNL     1      48.779   5.349  17.018  0.00  0.00    +0.000 A 
ATOM     35  H   UNL     1      47.547   2.299  17.086  0.00  0.00    +0.000 HD
ENDBRANCH  22  25
ENDBRANCH  20  21
ENDBRANCH   4  20
TORSDOF 9
ENDMDL
MODEL 2
REMARK VINA RESULT:    -7.912      2.634      3.242
REMARK INTER + INTRA:         -13.243
REMARK INTER:                 -12.105
REMARK INTRA:                  -1.137
REMARK UNBOUND:                -1.168
REMARK  Name = 
REMARK  9 active torsions:
REMARK  status: ('A' for Active; 'I' for Inactive)
REMARK    1  A    between atoms: C_2  and  C_3
REMARK    2  A    between atoms: C_3  and  C_4
REMARK    3  A    between atoms: C_3  and  N_11
REMARK    4  A    between atoms: C_4  and  C_5
REMARK    5  A    between atoms: N_11  and  C_12
REMARK    6  A    between atoms: C_12  and  C_13
REMARK    7  A    between atoms: C_16  and  C_17
REMARK    8  A    between atoms: C_17  and  N_18
REMARK    9  A    between atoms: C_19  and  C_21
REMARK                            x       y       z     vdW  Elec       q    Type
REMARK                         _______ _______ _______ _____ _____    ______ ____
ROOT
ATOM      1  C   UNL     1      46.619   4.964  13.333  0.00  0.00    +0.000 A 
ATOM      2  C   UNL     1      47.291   6.152  13.015  0.00  0.00    +0.000 A 
ATOM      3  C   UNL     1      48.134   6.761  13.944  0.00  0.00    +0.000 A 
ATOM      4  C   UNL     1      48.311   6.198  15.215  0.00  0.00    +0.000 A 
ATOM      5  C   UNL     1      47.575   5.057  15.561  0.00  0.00    +0.000 A 
ATOM      6  C   UNL     1      46.747   4.437  14.625  0.00  0.00    +0.000 A 
ENDROOT
BRANCH   1   7
ATOM      7  C   UNL     1      45.789   4.253  12.294  0.00  0.00    +0.000 C 
BRANCH   7   8
ATOM      8  N   UNL     1      45.663   5.067  11.082  0.00  0.00    +0.000 NA
ATOM      9  H   UNL     1      45.752   6.052  11.324  0.00  0.00    +0.000 HD
BRANCH   8  10
ATOM     10  C   UNL     1      44.384   4.841  10.379  0.00  0.00    +0.000 C 
BRANCH  10  12
ATOM     11  N   UNL     1      42.236   5.427  11.807  0.00  0.00    +0.000 NA
ATOM     12  C   UNL     1      43.192   5.189  11.186  0.00  0.00    +0.000 C 
ENDBRANCH  10  12
BRANCH  10  13
ATOM     13  C   UNL     1      44.255   3.389   9.864  0.00  0.00    +0.000 C 
BRANCH  13  14
ATOM     14  C   UNL     1      45.235   2.974   8.787  0.00  0.00    +0.000 A 
ATOM     15  C   UNL     1      45.712   1.656   8.718  0.00  0.00    +0.000 A 
ATOM     16  C   UNL     1      46.598   1.276   7.709  0.00  0.00    +0.000 A 
ATOM     17  C   UNL     1      47.015   2.205   6.759  0.00  0.00    +0.000 A 
ATOM     18  C   UNL     1      46.563   3.521   6.828  0.00  0.00    +0.000 A 
ATOM     19  C   UNL     1      45.683   3.905   7.841  0.00  0.00    +0.000 A 
ENDBRANCH  13  14
ENDBRANCH  10  13
ENDBRANCH   8  10
ENDBRANCH   7   8
ENDBRANCH   1   7
BRANCH   4  20
ATOM     20  C   UNL     1      49.264   6.811  16.205  0.00  0.00    +0.000 C 
BRANCH  20  21
ATOM     21  N   UNL     1      50.266   5.868  16.615  0.00  0.00    +0.000 N 
ATOM     22  C   UNL     1      50.660   5.770  17.925  0.00  0.00    +0.000 C 
ATOM     23  O   UNL     1      50.159   6.456  18.812  0.00  0.00    +0.000 OA
ATOM     24  H   UNL     1      50.864   5.489  15.888  0.00  0.00    +0.000 HD
BRANCH  22  25
ATOM     25  C   UNL     1      51.668   4.747  18.218  0.00  0.00    +0.000 A 
ATOM     26  C   UNL     1      52.853   5.105  18.846  0.00  0.00    +0.000 A 
ATOM     27  S   UNL     1      53.893   3.787  19.140  0.00  0.00    +0.000 S 
ATOM     28  C   UNL     1      52.815   2.699  18.401  0.00  0.00    +0.000 A 
ATOM     29  N   UNL     1      53.119   1.379  18.286  0.00  0.00    +0.000 NA
ATOM     30  C   UNL     1      52.220   0.673  17.681  0.00  0.00    +0.000 A 
ATOM     31  N   UNL     1      51.042   1.168  17.189  0.00  0.00    +0.000 N 
ATOM     32  C   UNL     1      50.675   2.485  17.314  0.00  0.00    +0.000 A 
ATOM     33  O   UNL     1      49.580   2.880  16.927  0.00  0.00    +0.000 OA
ATOM     34  C   UNL     1      51.663   3.329  17.961  0.00  0.00    +0.000 A 
ATOM     35  H   UNL     1      50.369   0.558  16.745  0.00  0.00    +0.000 HD
ENDBRANCH  22  25
ENDBRANCH  20  21
ENDBRANCH   4  20
TORSDOF 9
ENDMDL
MODEL 3
REMARK VINA RESULT:    -7.793      1.128      1.737
REMARK INTER + INTRA:         -13.062
REMARK INTER:                 -12.054
REMARK INTRA:                  -1.008
REMARK UNBOUND:                -1.168
REMARK  Name = 
REMARK  9 active torsions:
REMARK  status: ('A' for Active; 'I' for Inactive)
REMARK    1  A    between atoms: C_2  and  C_3
REMARK    2  A    between atoms: C_3  and  C_4
REMARK    3  A    between atoms: C_3  and  N_11
REMARK    4  A    between atoms: C_4  and  C_5
REMARK    5  A    between atoms: N_11  and  C_12
REMARK    6  A    between atoms: C_12  and  C_13
REMARK    7  A    between atoms: C_16  and  C_17
REMARK    8  A    between atoms: C_17  and  N_18
REMARK    9  A    between atoms: C_19  and  C_21
REMARK                            x       y       z     vdW  Elec       q    Type
REMARK                         _______ _______ _______ _____ _____    ______ ____
ROOT
ATOM      1  C   UNL     1      44.697   5.831  11.744  0.00  0.00    +0.000 A 
ATOM      2  C   UNL     1      45.139   5.245  12.937  0.00  0.00    +0.000 A 
ATOM      3  C   UNL     1      46.304   5.694  13.559  0.00  0.00    +0.000 A 
ATOM      4  C   UNL     1      47.056   6.731  12.990  0.00  0.00    +0.000 A 
ATOM      5  C   UNL     1      46.659   7.260  11.755  0.00  0.00    +0.000 A 
ATOM      6  C   UNL     1      45.483   6.824  11.143  0.00  0.00    +0.000 A 
ENDROOT
BRANCH   1   7
ATOM      7  C   UNL     1      43.386   5.416  11.127  0.00  0.00    +0.000 C 
BRANCH   7   8
ATOM      8  N   UNL     1      43.592   4.878   9.779  0.00  0.00    +0.000 NA
ATOM      9  H   UNL     1      42.738   4.985   9.236  0.00  0.00    +0.000 HD
BRANCH   8  10
ATOM     10  C   UNL     1      43.998   3.457   9.793  0.00  0.00    +0.000 C 
BRANCH  10  12
ATOM     11  N   UNL     1      43.060   2.142  11.886  0.00  0.00    +0.000 NA
ATOM     12  C   UNL     1      43.489   2.704  10.961  0.00  0.00    +0.000 C 
ENDBRANCH  10  12
BRANCH  10  13
ATOM     13  C   UNL     1      45.533   3.293   9.699  0.00  0.00    +0.000 C 
BRANCH  13  14
ATOM     14  C   UNL     1      46.078   2.868   8.353  0.00  0.00    +0.000 A 
ATOM     15  C   UNL     1      46.270   3.804   7.326  0.00  0.00    +0.000 A 
ATOM     16  C   UNL     1      46.794   3.406   6.095  0.00  0.00    +0.000 A 
ATOM     17  C   UNL     1      47.133   2.073   5.877  0.00  0.00    +0.000 A 
ATOM     18  C   UNL     1      46.929   1.131   6.883  0.00  0.00    +0.000 A 
ATOM     19  C   UNL     1      46.398   1.525   8.112  0.00  0.00    +0.000 A 
ENDBRANCH  13  14
ENDBRANCH  10  13
ENDBRANCH   8  10
ENDBRANCH   7   8
ENDBRANCH   1   7
BRANCH   4  20
ATOM     20  C   UNL     1      48.280   7.265  13.682  0.00  0.00    +0.000 C 
BRANCH  20  21
ATOM     21  N   UNL     1      48.125   7.239  15.109  0.00  0.00    +0.000 N 
ATOM     22  C   UNL     1      49.160   6.877  15.932  0.00  0.00    +0.000 C 
ATOM     23  O   UNL     1      50.272   6.586  15.499  0.00  0.00    +0.000 OA
ATOM     24  H   UNL     1      47.176   7.219  15.467  0.00  0.00    +0.000 HD
BRANCH  22  25
ATOM     25  C   UNL     1      48.883   6.922  17.371  0.00  0.00    +0.000 A 
ATOM     26  C   UNL     1      48.577   8.133  17.977  0.00  0.00    +0.000 A 
ATOM     27  S   UNL     1      48.251   7.996  19.645  0.00  0.00    +0.000 S 
ATOM     28  C   UNL     1      48.549   6.322  19.623  0.00  0.00    +0.000 A 
ATOM     29  N   UNL     1      48.472   5.581  20.760  0.00  0.00    +0.000 NA
ATOM     30  C   UNL     1      48.746   4.328  20.602  0.00  0.00    +0.000 A 
ATOM     31  N   UNL     1      49.083   3.748  19.407  0.00  0.00    +0.000 N 
ATOM     32  C   UNL     1      49.137   4.448  18.227  0.00  0.00    +0.000 A 
ATOM     33  O   UNL     1      49.369   3.884  17.163  0.00  0.00    +0.000 OA
ATOM     34  C   UNL     1      48.865   5.868  18.354  0.00  0.00    +0.000 A 
ATOM     35  H   UNL     1      49.264   2.756  19.346  0.00  0.00    +0.000 HD
ENDBRANCH  22  25
ENDBRANCH  20  21
ENDBRANCH   4  20
TORSDOF 9
ENDMDL
MODEL 4
REMARK VINA RESULT:    -7.503      3.791     10.110
REMARK INTER + INTRA:         -12.618
REMARK INTER:                  -9.935
REMARK INTRA:                  -2.684
REMARK UNBOUND:                -1.168
REMARK  Name = 
REMARK  9 active torsions:
REMARK  status: ('A' for Active; 'I' for Inactive)
REMARK    1  A    between atoms: C_2  and  C_3
REMARK    2  A    between atoms: C_3  and  C_4
REMARK    3  A    between atoms: C_3  and  N_11
REMARK    4  A    between atoms: C_4  and  C_5
REMARK    5  A    between atoms: N_11  and  C_12
REMARK    6  A    between atoms: C_12  and  C_13
REMARK    7  A    between atoms: C_16  and  C_17
REMARK    8  A    between atoms: C_17  and  N_18
REMARK    9  A    between atoms: C_19  and  C_21
REMARK                            x       y       z     vdW  Elec       q    Type
REMARK                         _______ _______ _______ _____ _____    ______ ____
ROOT
ATOM      1  C   UNL     1      51.411   4.389  17.741  0.00  0.00    +0.000 A 
ATOM      2  C   UNL     1      50.585   5.427  17.289  0.00  0.00    +0.000 A 
ATOM      3  C   UNL     1      49.260   5.176  16.936  0.00  0.00    +0.000 A 
ATOM      4  C   UNL     1      48.739   3.877  17.017  0.00  0.00    +0.000 A 
ATOM      5  C   UNL     1      49.588   2.827  17.389  0.00  0.00    +0.000 A 
ATOM      6  C   UNL     1      50.909   3.081  17.761  0.00  0.00    +0.000 A 
ENDROOT
BRANCH   1   7
ATOM      7  C   UNL     1      52.811   4.679  18.219  0.00  0.00    +0.000 C 
BRANCH   7   8
ATOM      8  N   UNL     1      52.846   5.915  19.006  0.00  0.00    +0.000 NA
ATOM      9  H   UNL     1      53.495   6.572  18.578  0.00  0.00    +0.000 HD
BRANCH   8  10
ATOM     10  C   UNL     1      53.233   5.679  20.413  0.00  0.00    +0.000 C 
BRANCH  10  12
ATOM     11  N   UNL     1      53.762   3.156  21.000  0.00  0.00    +0.000 NA
ATOM     12  C   UNL     1      53.528   4.261  20.719  0.00  0.00    +0.000 C 
ENDBRANCH  10  12
BRANCH  10  13
ATOM     13  C   UNL     1      52.170   6.213  21.402  0.00  0.00    +0.000 C 
BRANCH  13  14
ATOM     14  C   UNL     1      50.725   6.021  20.995  0.00  0.00    +0.000 A 
ATOM     15  C   UNL     1      50.105   4.768  21.112  0.00  0.00    +0.000 A 
ATOM     16  C   UNL     1      48.766   4.605  20.755  0.00  0.00    +0.000 A 
ATOM     17  C   UNL     1      48.031   5.690  20.282  0.00  0.00    +0.000 A 
ATOM     18  C   UNL     1      48.641   6.934  20.144  0.00  0.00    +0.000 A 
ATOM     19  C   UNL     1      49.982   7.098  20.492  0.00  0.00    +0.000 A 
ENDBRANCH  13  14
ENDBRANCH  10  13
ENDBRANCH   8  10
ENDBRANCH   7   8
ENDBRANCH   1   7
BRANCH   4  20
ATOM     20  C   UNL     1      47.295   3.603  16.697  0.00  0.00    +0.000 C 
BRANCH  20  21
ATOM     21  N   UNL     1      46.789   4.536  15.729  0.00  0.00    +0.000 N 
ATOM     22  C   UNL     1      46.776   4.238  14.391  0.00  0.00    +0.000 C 
ATOM     23  O   UNL     1      47.163   3.157  13.956  0.00  0.00    +0.000 OA
ATOM     24  H   UNL     1      46.713   5.504  16.023  0.00  0.00    +0.000 HD
BRANCH  22  25
ATOM     25  C   UNL     1      46.205   5.262  13.510  0.00  0.00    +0.000 A 
ATOM     26  C   UNL     1      46.927   6.414  13.233  0.00  0.00    +0.000 A 
ATOM     27  S   UNL     1      46.128   7.479  12.167  0.00  0.00    +0.000 S 
ATOM     28  C   UNL     1      44.773   6.455  12.072  0.00  0.00    +0.000 A 
ATOM     29  N   UNL     1      43.686   6.797  11.330  0.00  0.00    +0.000 NA
ATOM     30  C   UNL     1      42.721   5.938  11.368  0.00  0.00    +0.000 A 
ATOM     31  N   UNL     1      42.748   4.765  12.074  0.00  0.00    +0.000 N 
ATOM     32  C   UNL     1      43.837   4.360  12.806  0.00  0.00    +0.000 A 
ATOM     33  O   UNL     1      43.856   3.269  13.366  0.00  0.00    +0.000 OA
ATOM     34  C   UNL     1      44.940   5.303  12.821  0.00  0.00    +0.000 A 
ATOM     35  H   UNL     1      41.968   4.124  12.044  0.00  0.00    +0.000 HD
ENDBRANCH  22  25
ENDBRANCH  20  21
ENDBRANCH   4  20
TORSDOF 9
ENDMDL
MODEL 5
REMARK VINA RESULT:    -7.452      3.738      9.458
REMARK INTER + INTRA:         -12.541
REMARK INTER:                  -9.278
REMARK INTRA:                  -3.263
REMARK UNBOUND:                -1.168
REMARK  Name = 
REMARK  9 active torsions:
REMARK  status: ('A' for Active; 'I' for Inactive)
REMARK    1  A    between atoms: C_2  and  C_3
REMARK    2  A    between atoms: C_3  and  C_4
REMARK    3  A    between atoms: C_3  and  N_11
REMARK    4  A    between atoms: C_4  and  C_5
REMARK    5  A    between atoms: N_11  and  C_12
REMARK    6  A    between atoms: C_12  and  C_13
REMARK    7  A    between atoms: C_16  and  C_17
REMARK    8  A    between atoms: C_17  and  N_18
REMARK    9  A    between atoms: C_19  and  C_21
REMARK                            x       y       z     vdW  Elec       q    Type
REMARK                         _______ _______ _______ _____ _____    ______ ____
ROOT
ATOM      1  C   UNL     1      48.831   5.530  20.193  0.00  0.00    +0.000 A 
ATOM      2  C   UNL     1      47.612   5.925  19.625  0.00  0.00    +0.000 A 
ATOM      3  C   UNL     1      47.144   5.319  18.459  0.00  0.00    +0.000 A 
ATOM      4  C   UNL     1      47.892   4.313  17.834  0.00  0.00    +0.000 A 
ATOM      5  C   UNL     1      49.147   3.976  18.356  0.00  0.00    +0.000 A 
ATOM      6  C   UNL     1      49.608   4.569  19.532  0.00  0.00    +0.000 A 
ENDROOT
BRANCH   1   7
ATOM      7  C   UNL     1      49.287   6.113  21.506  0.00  0.00    +0.000 C 
BRANCH   7   8
ATOM      8  N   UNL     1      49.434   7.568  21.406  0.00  0.00    +0.000 NA
ATOM      9  H   UNL     1      48.607   7.963  20.964  0.00  0.00    +0.000 HD
BRANCH   8  10
ATOM     10  C   UNL     1      50.640   7.964  20.650  0.00  0.00    +0.000 C 
BRANCH  10  12
ATOM     11  N   UNL     1      52.504   9.106  22.139  0.00  0.00    +0.000 NA
ATOM     12  C   UNL     1      51.673   8.624  21.481  0.00  0.00    +0.000 C 
ENDBRANCH  10  12
BRANCH  10  13
ATOM     13  C   UNL     1      50.294   8.865  19.441  0.00  0.00    +0.000 C 
BRANCH  13  14
ATOM     14  C   UNL     1      50.113   8.159  18.114  0.00  0.00    +0.000 A 
ATOM     15  C   UNL     1      51.072   7.248  17.647  0.00  0.00    +0.000 A 
ATOM     16  C   UNL     1      50.887   6.586  16.433  0.00  0.00    +0.000 A 
ATOM     17  C   UNL     1      49.743   6.823  15.674  0.00  0.00    +0.000 A 
ATOM     18  C   UNL     1      48.793   7.740  16.118  0.00  0.00    +0.000 A 
ATOM     19  C   UNL     1      48.980   8.410  17.328  0.00  0.00    +0.000 A 
ENDBRANCH  13  14
ENDBRANCH  10  13
ENDBRANCH   8  10
ENDBRANCH   7   8
ENDBRANCH   1   7
BRANCH   4  20
ATOM     20  C   UNL     1      47.369   3.609  16.612  0.00  0.00    +0.000 C 
BRANCH  20  21
ATOM     21  N   UNL     1      46.825   4.542  15.666  0.00  0.00    +0.000 N 
ATOM     22  C   UNL     1      46.791   4.260  14.325  0.00  0.00    +0.000 C 
ATOM     23  O   UNL     1      47.193   3.193  13.869  0.00  0.00    +0.000 OA
ATOM     24  H   UNL     1      46.733   5.505  15.973  0.00  0.00    +0.000 HD
BRANCH  22  25
ATOM     25  C   UNL     1      46.182   5.282  13.468  0.00  0.00    +0.000 A 
ATOM     26  C   UNL     1      46.869   6.457  13.199  0.00  0.00    +0.000 A 
ATOM     27  S   UNL     1      46.028   7.517  12.161  0.00  0.00    +0.000 S 
ATOM     28  C   UNL     1      44.698   6.460  12.069  0.00  0.00    +0.000 A 
ATOM     29  N   UNL     1      43.592   6.784  11.348  0.00  0.00    +0.000 NA
ATOM     30  C   UNL     1      42.650   5.901  11.386  0.00  0.00    +0.000 A 
ATOM     31  N   UNL     1      42.718   4.717  12.073  0.00  0.00    +0.000 N 
ATOM     32  C   UNL     1      43.827   4.330  12.783  0.00  0.00    +0.000 A 
ATOM     33  O   UNL     1      43.883   3.231  13.326  0.00  0.00    +0.000 OA
ATOM     34  C   UNL     1      44.906   5.301  12.798  0.00  0.00    +0.000 A 
ATOM     35  H   UNL     1      41.954   4.057  12.044  0.00  0.00    +0.000 HD
ENDBRANCH  22  25
ENDBRANCH  20  21
ENDBRANCH   4  20
TORSDOF 9
ENDMDL
MODEL 6
REMARK VINA RESULT:    -7.436      2.315      3.282
REMARK INTER + INTRA:         -12.517
REMARK INTER:                 -11.871
REMARK INTRA:                  -0.646
REMARK UNBOUND:                -1.168
REMARK  Name = 
REMARK  9 active torsions:
REMARK  status: ('A' for Active; 'I' for Inactive)
REMARK    1  A    between atoms: C_2  and  C_3
REMARK    2  A    between atoms: C_3  and  C_4
REMARK    3  A    between atoms: C_3  and  N_11
REMARK    4  A    between atoms: C_4  and  C_5
REMARK    5  A    between atoms: N_11  and  C_12
REMARK    6  A    between atoms: C_12  and  C_13
REMARK    7  A    between atoms: C_16  and  C_17
REMARK    8  A    between atoms: C_17  and  N_18
REMARK    9  A    between atoms: C_19  and  C_21
REMARK                            x       y       z     vdW  Elec       q    Type
REMARK                         _______ _______ _______ _____ _____    ______ ____
ROOT
ATOM      1  C   UNL     1      46.209   5.986  11.763  0.00  0.00    +0.000 A 
ATOM      2  C   UNL     1      46.319   5.340  13.002  0.00  0.00    +0.000 A 
ATOM      3  C   UNL     1      47.314   5.709  13.907  0.00  0.00    +0.000 A 
ATOM      4  C   UNL     1      48.224   6.724  13.584  0.00  0.00    +0.000 A 
ATOM      5  C   UNL     1      48.165   7.311  12.314  0.00  0.00    +0.000 A 
ATOM      6  C   UNL     1      47.158   6.956  11.416  0.00  0.00    +0.000 A 
ENDROOT
BRANCH   1   7
ATOM      7  C   UNL     1      45.072   5.657  10.828  0.00  0.00    +0.000 C 
BRANCH   7   8
ATOM      8  N   UNL     1      45.331   4.403  10.116  0.00  0.00    +0.000 NA
ATOM      9  H   UNL     1      45.548   4.604   9.142  0.00  0.00    +0.000 HD
BRANCH   8  10
ATOM     10  C   UNL     1      44.191   3.466  10.187  0.00  0.00    +0.000 C 
BRANCH  10  12
ATOM     11  N   UNL     1      43.507   2.820  12.659  0.00  0.00    +0.000 NA
ATOM     12  C   UNL     1      43.820   3.084  11.569  0.00  0.00    +0.000 C 
ENDBRANCH  10  12
BRANCH  10  13
ATOM     13  C   UNL     1      44.436   2.191   9.346  0.00  0.00    +0.000 C 
BRANCH  13  14
ATOM     14  C   UNL     1      45.501   2.293   8.275  0.00  0.00    +0.000 A 
ATOM     15  C   UNL     1      45.578   3.421   7.444  0.00  0.00    +0.000 A 
ATOM     16  C   UNL     1      46.576   3.517   6.473  0.00  0.00    +0.000 A 
ATOM     17  C   UNL     1      47.507   2.492   6.323  0.00  0.00    +0.000 A 
ATOM     18  C   UNL     1      47.428   1.359   7.130  0.00  0.00    +0.000 A 
ATOM     19  C   UNL     1      46.427   1.257   8.096  0.00  0.00    +0.000 A 
ENDBRANCH  13  14
ENDBRANCH  10  13
ENDBRANCH   8  10
ENDBRANCH   7   8
ENDBRANCH   1   7
BRANCH   4  20
ATOM     20  C   UNL     1      49.263   7.173  14.576  0.00  0.00    +0.000 C 
BRANCH  20  21
ATOM     21  N   UNL     1      48.715   7.261  15.901  0.00  0.00    +0.000 N 
ATOM     22  C   UNL     1      49.098   6.393  16.890  0.00  0.00    +0.000 C 
ATOM     23  O   UNL     1      49.943   5.522  16.706  0.00  0.00    +0.000 OA
ATOM     24  H   UNL     1      47.851   7.783  16.005  0.00  0.00    +0.000 HD
BRANCH  22  25
ATOM     25  C   UNL     1      48.489   6.609  18.206  0.00  0.00    +0.000 A 
ATOM     26  C   UNL     1      47.943   5.538  18.898  0.00  0.00    +0.000 A 
ATOM     27  S   UNL     1      47.310   5.964  20.423  0.00  0.00    +0.000 S 
ATOM     28  C   UNL     1      47.705   7.601  20.192  0.00  0.00    +0.000 A 
ATOM     29  N   UNL     1      47.399   8.536  21.130  0.00  0.00    +0.000 NA
ATOM     30  C   UNL     1      47.735   9.743  20.813  0.00  0.00    +0.000 A 
ATOM     31  N   UNL     1      48.357  10.098  19.645  0.00  0.00    +0.000 N 
ATOM     32  C   UNL     1      48.719   9.185  18.685  0.00  0.00    +0.000 A 
ATOM     33  O   UNL     1      49.341   9.528  17.685  0.00  0.00    +0.000 OA
ATOM     34  C   UNL     1      48.338   7.816  18.979  0.00  0.00    +0.000 A 
ATOM     35  H   UNL     1      48.614  11.059  19.466  0.00  0.00    +0.000 HD
ENDBRANCH  22  25
ENDBRANCH  20  21
ENDBRANCH   4  20
TORSDOF 9
ENDMDL
MODEL 7
REMARK VINA RESULT:    -7.164      2.097      2.804
REMARK INTER + INTRA:         -12.102
REMARK INTER:                 -11.095
REMARK INTRA:                  -1.007
REMARK UNBOUND:                -1.168
REMARK  Name = 
REMARK  9 active torsions:
REMARK  status: ('A' for Active; 'I' for Inactive)
REMARK    1  A    between atoms: C_2  and  C_3
REMARK    2  A    between atoms: C_3  and  C_4
REMARK    3  A    between atoms: C_3  and  N_11
REMARK    4  A    between atoms: C_4  and  C_5
REMARK    5  A    between atoms: N_11  and  C_12
REMARK    6  A    between atoms: C_12  and  C_13
REMARK    7  A    between atoms: C_16  and  C_17
REMARK    8  A    between atoms: C_17  and  N_18
REMARK    9  A    between atoms: C_19  and  C_21
REMARK                            x       y       z     vdW  Elec       q    Type
REMARK                         _______ _______ _______ _____ _____    ______ ____
ROOT
ATOM      1  C   UNL     1      46.897   6.507  12.053  0.00  0.00    +0.000 A 
ATOM      2  C   UNL     1      46.855   5.770  13.244  0.00  0.00    +0.000 A 
ATOM      3  C   UNL     1      47.803   5.985  14.245  0.00  0.00    +0.000 A 
ATOM      4  C   UNL     1      48.817   6.935  14.067  0.00  0.00    +0.000 A 
ATOM      5  C   UNL     1      48.907   7.613  12.844  0.00  0.00    +0.000 A 
ATOM      6  C   UNL     1      47.949   7.411  11.851  0.00  0.00    +0.000 A 
ENDROOT
BRANCH   1   7
ATOM      7  C   UNL     1      45.815   6.347  11.016  0.00  0.00    +0.000 C 
BRANCH   7   8
ATOM      8  N   UNL     1      45.725   4.954  10.569  0.00  0.00    +0.000 NA
ATOM      9  H   UNL     1      46.456   4.769   9.885  0.00  0.00    +0.000 HD
BRANCH   8  10
ATOM     10  C   UNL     1      44.406   4.630   9.988  0.00  0.00    +0.000 C 
BRANCH  10  12
ATOM     11  N   UNL     1      42.407   5.110  11.652  0.00  0.00    +0.000 NA
ATOM     12  C   UNL     1      43.272   4.888  10.905  0.00  0.00    +0.000 C 
ENDBRANCH  10  12
BRANCH  10  13
ATOM     13  C   UNL     1      44.340   3.170   9.481  0.00  0.00    +0.000 C 
BRANCH  13  14
ATOM     14  C   UNL     1      45.377   2.774   8.452  0.00  0.00    +0.000 A 
ATOM     15  C   UNL     1      45.941   1.490   8.457  0.00  0.00    +0.000 A 
ATOM     16  C   UNL     1      46.880   1.125   7.491  0.00  0.00    +0.000 A 
ATOM     17  C   UNL     1      47.263   2.037   6.509  0.00  0.00    +0.000 A 
ATOM     18  C   UNL     1      46.723   3.321   6.505  0.00  0.00    +0.000 A 
ATOM     19  C   UNL     1      45.790   3.690   7.475  0.00  0.00    +0.000 A 
ENDBRANCH  13  14
ENDBRANCH  10  13
ENDBRANCH   8  10
ENDBRANCH   7   8
ENDBRANCH   1   7
BRANCH   4  20
ATOM     20  C   UNL     1      49.808   7.220  15.163  0.00  0.00    +0.000 C 
BRANCH  20  21
ATOM     21  N   UNL     1      49.169   7.248  16.449  0.00  0.00    +0.000 N 
ATOM     22  C   UNL     1      49.661   8.015  17.473  0.00  0.00    +0.000 C 
ATOM     23  O   UNL     1      50.646   8.736  17.338  0.00  0.00    +0.000 OA
ATOM     24  H   UNL     1      48.533   6.486  16.660  0.00  0.00    +0.000 HD
BRANCH  22  25
ATOM     25  C   UNL     1      48.899   7.980  18.725  0.00  0.00    +0.000 A 
ATOM     26  C   UNL     1      48.374   9.154  19.246  0.00  0.00    +0.000 A 
ATOM     27  S   UNL     1      47.490   8.924  20.687  0.00  0.00    +0.000 S 
ATOM     28  C   UNL     1      47.816   7.255  20.686  0.00  0.00    +0.000 A 
ATOM     29  N   UNL     1      47.365   6.451  21.685  0.00  0.00    +0.000 NA
ATOM     30  C   UNL     1      47.706   5.210  21.570  0.00  0.00    +0.000 A 
ATOM     31  N   UNL     1      48.451   4.699  20.540  0.00  0.00    +0.000 N 
ATOM     32  C   UNL     1      48.896   5.463  19.490  0.00  0.00    +0.000 A 
ATOM     33  O   UNL     1      49.497   4.959  18.547  0.00  0.00    +0.000 OA
ATOM     34  C   UNL     1      48.565   6.873  19.585  0.00  0.00    +0.000 A 
ATOM     35  H   UNL     1      48.665   3.713  20.496  0.00  0.00    +0.000 HD
ENDBRANCH  22  25
ENDBRANCH  20  21
ENDBRANCH   4  20
TORSDOF 9
ENDMDL
MODEL 8
REMARK VINA RESULT:    -7.125      2.960      8.527
REMARK INTER + INTRA:         -12.042
REMARK INTER:                 -10.009
REMARK INTRA:                  -2.032
REMARK UNBOUND:                -1.168
REMARK  Name = 
REMARK  9 active torsions:
REMARK  status: ('A' for Active; 'I' for Inactive)
REMARK    1  A    between atoms: C_2  and  C_3
REMARK    2  A    between atoms: C_3  and  C_4
REMARK    3  A    between atoms: C_3  and  N_11
REMARK    4  A    between atoms: C_4  and  C_5
REMARK    5  A    between atoms: N_11  and  C_12
REMARK    6  A    between atoms: C_12  and  C_13
REMARK    7  A    between atoms: C_16  and  C_17
REMARK    8  A    between atoms: C_17  and  N_18
REMARK    9  A    between atoms: C_19  and  C_21
REMARK                            x       y       z     vdW  Elec       q    Type
REMARK                         _______ _______ _______ _____ _____    ______ ____
ROOT
ATOM      1  C   UNL     1      49.253   8.080  16.164  0.00  0.00    +0.000 A 
ATOM      2  C   UNL     1      49.443   6.904  15.426  0.00  0.00    +0.000 A 
ATOM      3  C   UNL     1      48.941   6.791  14.130  0.00  0.00    +0.000 A 
ATOM      4  C   UNL     1      48.229   7.850  13.552  0.00  0.00    +0.000 A 
ATOM      5  C   UNL     1      47.968   8.993  14.319  0.00  0.00    +0.000 A 
ATOM      6  C   UNL     1      48.486   9.113  15.608  0.00  0.00    +0.000 A 
ENDROOT
BRANCH   1   7
ATOM      7  C   UNL     1      49.882   8.240  17.524  0.00  0.00    +0.000 C 
BRANCH   7   8
ATOM      8  N   UNL     1      49.439   7.177  18.431  0.00  0.00    +0.000 NA
ATOM      9  H   UNL     1      49.672   6.271  18.030  0.00  0.00    +0.000 HD
BRANCH   8  10
ATOM     10  C   UNL     1      47.990   7.239  18.710  0.00  0.00    +0.000 C 
BRANCH  10  12
ATOM     11  N   UNL     1      47.317   8.930  20.629  0.00  0.00    +0.000 NA
ATOM     12  C   UNL     1      47.633   8.181  19.796  0.00  0.00    +0.000 C 
ENDBRANCH  10  12
BRANCH  10  13
ATOM     13  C   UNL     1      47.400   5.843  19.020  0.00  0.00    +0.000 C 
BRANCH  13  14
ATOM     14  C   UNL     1      47.877   4.707  18.141  0.00  0.00    +0.000 A 
ATOM     15  C   UNL     1      48.968   3.912  18.523  0.00  0.00    +0.000 A 
ATOM     16  C   UNL     1      49.388   2.853  17.718  0.00  0.00    +0.000 A 
ATOM     17  C   UNL     1      48.724   2.574  16.526  0.00  0.00    +0.000 A 
ATOM     18  C   UNL     1      47.651   3.368  16.128  0.00  0.00    +0.000 A 
ATOM     19  C   UNL     1      47.234   4.433  16.927  0.00  0.00    +0.000 A 
ENDBRANCH  13  14
ENDBRANCH  10  13
ENDBRANCH   8  10
ENDBRANCH   7   8
ENDBRANCH   1   7
BRANCH   4  20
ATOM     20  C   UNL     1      47.735   7.764  12.133  0.00  0.00    +0.000 C 
BRANCH  20  21
ATOM     21  N   UNL     1      46.997   6.552  11.911  0.00  0.00    +0.000 N 
ATOM     22  C   UNL     1      45.639   6.502  12.090  0.00  0.00    +0.000 C 
ATOM     23  O   UNL     1      44.983   7.487  12.418  0.00  0.00    +0.000 OA
ATOM     24  H   UNL     1      47.528   5.688  11.898  0.00  0.00    +0.000 HD
BRANCH  22  25
ATOM     25  C   UNL     1      44.999   5.215  11.799  0.00  0.00    +0.000 A 
ATOM     26  C   UNL     1      44.303   4.549  12.798  0.00  0.00    +0.000 A 
ATOM     27  S   UNL     1      43.597   3.087  12.278  0.00  0.00    +0.000 S 
ATOM     28  C   UNL     1      44.233   3.272  10.711  0.00  0.00    +0.000 A 
ATOM     29  N   UNL     1      44.024   2.331   9.753  0.00  0.00    +0.000 NA
ATOM     30  C   UNL     1      44.586   2.589   8.618  0.00  0.00    +0.000 A 
ATOM     31  N   UNL     1      45.330   3.709   8.352  0.00  0.00    +0.000 N 
ATOM     32  C   UNL     1      45.537   4.703   9.276  0.00  0.00    +0.000 A 
ATOM     33  O   UNL     1      46.146   5.727   8.982  0.00  0.00    +0.000 OA
ATOM     34  C   UNL     1      44.951   4.449  10.579  0.00  0.00    +0.000 A 
ATOM     35  H   UNL     1      45.724   3.863   7.435  0.00  0.00    +0.000 HD
ENDBRANCH  22  25
ENDBRANCH  20  21
ENDBRANCH   4  20
TORSDOF 9
ENDMDL
MODEL 9
REMARK VINA RESULT:    -6.933      3.523      8.593
REMARK INTER + INTRA:         -11.750
REMARK INTER:                  -8.507
REMARK INTRA:                  -3.243
REMARK UNBOUND:                -1.168
REMARK  Name = 
REMARK  9 active torsions:
REMARK  status: ('A' for Active; 'I' for Inactive)
REMARK    1  A    between atoms: C_2  and  C_3
REMARK    2  A    between atoms: C_3  and  C_4
REMARK    3  A    between atoms: C_3  and  N_11
REMARK    4  A    between atoms: C_4  and  C_5
REMARK    5  A    between atoms: N_11  and  C_12
REMARK    6  A    between atoms: C_12  and  C_13
REMARK    7  A    between atoms: C_16  and  C_17
REMARK    8  A    between atoms: C_17  and  N_18
REMARK    9  A    between atoms: C_19  and  C_21
REMARK                            x       y       z     vdW  Elec       q    Type
REMARK                         _______ _______ _______ _____ _____    ______ ____
ROOT
ATOM      1  C   UNL     1      51.121   6.920  17.270  0.00  0.00    +0.000 A 
ATOM      2  C   UNL     1      51.062   6.794  15.876  0.00  0.00    +0.000 A 
ATOM      3  C   UNL     1      50.087   7.470  15.144  0.00  0.00    +0.000 A 
ATOM      4  C   UNL     1      49.145   8.277  15.795  0.00  0.00    +0.000 A 
ATOM      5  C   UNL     1      49.153   8.337  17.195  0.00  0.00    +0.000 A 
ATOM      6  C   UNL     1      50.140   7.676  17.926  0.00  0.00    +0.000 A 
ENDROOT
BRANCH   1   7
ATOM      7  C   UNL     1      52.236   6.271  18.051  0.00  0.00    +0.000 C 
BRANCH   7   8
ATOM      8  N   UNL     1      52.531   4.935  17.523  0.00  0.00    +0.000 NA
ATOM      9  H   UNL     1      52.129   4.841  16.593  0.00  0.00    +0.000 HD
BRANCH   8  10
ATOM     10  C   UNL     1      52.021   3.857  18.396  0.00  0.00    +0.000 C 
BRANCH  10  12
ATOM     11  N   UNL     1      53.777   1.953  18.928  0.00  0.00    +0.000 NA
ATOM     12  C   UNL     1      53.018   2.798  18.676  0.00  0.00    +0.000 C 
ENDBRANCH  10  12
BRANCH  10  13
ATOM     13  C   UNL     1      50.730   3.219  17.833  0.00  0.00    +0.000 C 
BRANCH  13  14
ATOM     14  C   UNL     1      49.443   3.969  18.101  0.00  0.00    +0.000 A 
ATOM     15  C   UNL     1      49.168   4.494  19.372  0.00  0.00    +0.000 A 
ATOM     16  C   UNL     1      47.989   5.204  19.605  0.00  0.00    +0.000 A 
ATOM     17  C   UNL     1      47.075   5.399  18.572  0.00  0.00    +0.000 A 
ATOM     18  C   UNL     1      47.329   4.866  17.310  0.00  0.00    +0.000 A 
ATOM     19  C   UNL     1      48.503   4.149  17.077  0.00  0.00    +0.000 A 
ENDBRANCH  13  14
ENDBRANCH  10  13
ENDBRANCH   8  10
ENDBRANCH   7   8
ENDBRANCH   1   7
BRANCH   4  20
ATOM     20  C   UNL     1      48.126   9.060  15.012  0.00  0.00    +0.000 C 
BRANCH  20  21
ATOM     21  N   UNL     1      47.152   8.193  14.411  0.00  0.00    +0.000 N 
ATOM     22  C   UNL     1      47.039   8.083  13.049  0.00  0.00    +0.000 C 
ATOM     23  O   UNL     1      47.778   8.691  12.279  0.00  0.00    +0.000 OA
ATOM     24  H   UNL     1      46.381   7.893  14.999  0.00  0.00    +0.000 HD
BRANCH  22  25
ATOM     25  C   UNL     1      46.028   7.140  12.562  0.00  0.00    +0.000 A 
ATOM     26  C   UNL     1      44.923   7.611  11.866  0.00  0.00    +0.000 A 
ATOM     27  S   UNL     1      43.869   6.376  11.346  0.00  0.00    +0.000 S 
ATOM     28  C   UNL     1      44.830   5.174  12.069  0.00  0.00    +0.000 A 
ATOM     29  N   UNL     1      44.469   3.864  12.022  0.00  0.00    +0.000 NA
ATOM     30  C   UNL     1      45.278   3.063  12.634  0.00  0.00    +0.000 A 
ATOM     31  N   UNL     1      46.421   3.453  13.281  0.00  0.00    +0.000 N 
ATOM     32  C   UNL     1      46.845   4.758  13.323  0.00  0.00    +0.000 A 
ATOM     33  O   UNL     1      47.911   5.063  13.848  0.00  0.00    +0.000 OA
ATOM     34  C   UNL     1      45.956   5.705  12.676  0.00  0.00    +0.000 A 
ATOM     35  H   UNL     1      47.024   2.774  13.721  0.00  0.00    +0.000 HD
ENDBRANCH  22  25
ENDBRANCH  20  21
ENDBRANCH   4  20
TORSDOF 9
ENDMDL
