MODEL 1
REMARK VINA RESULT:    -7.296      0.000      0.000
REMARK INTER + INTRA:         -11.242
REMARK INTER:                 -10.495
REMARK INTRA:                  -0.747
REMARK UNBOUND:                -0.747
REMARK  Name = 
REMARK  9 active torsions:
REMARK  status: ('A' for Active; 'I' for Inactive)
REMARK    1  A    between atoms: C_1  and  O_2
REMARK    2  A    between atoms: O_2  and  C_3
REMARK    3  A    between atoms: C_10  and  C_11
REMARK    4  A    between atoms: N_13  and  C_14
REMARK    5  A    between atoms: C_14  and  C_15
REMARK    6  A    between atoms: C_18  and  N_19
REMARK    7  A    between atoms: N_19  and  C_20
REMARK    8  A    between atoms: C_20  and  C_21
REMARK    9  A    between atoms: C_21  and  N_22
REMARK                            x       y       z     vdW  Elec       q    Type
REMARK                         _______ _______ _______ _____ _____    ______ ____
ROOT
ATOM      1  C   UNL     1      46.649   4.924  13.991  0.00  0.00    +0.000 C 
ATOM      2  O   UNL     1      46.663   3.696  14.050  0.00  0.00    +0.000 OA
ATOM      3  N   UNL     1      45.602   5.593  13.405  0.00  0.00    +0.000 N 
ATOM      4  H   UNL     1      45.584   6.603  13.375  0.00  0.00    +0.000 HD
ENDROOT
BRANCH   1  12
ATOM      5  C   UNL     1      47.994   5.139  17.147  0.00  0.00    +0.000 A 
ATOM      6  N   UNL     1      48.753   5.345  18.243  0.00  0.00    +0.000 NA
ATOM      7  C   UNL     1      49.784   6.189  18.143  0.00  0.00    +0.000 A 
ATOM      8  N   UNL     1      50.150   6.880  17.067  0.00  0.00    +0.000 NA
ATOM      9  C   UNL     1      49.378   6.631  15.995  0.00  0.00    +0.000 A 
ATOM     10  S   UNL     1      49.680   7.448  14.539  0.00  0.00    +0.000 S 
ATOM     11  C   UNL     1      48.404   6.635  13.764  0.00  0.00    +0.000 A 
ATOM     12  C   UNL     1      47.740   5.721  14.577  0.00  0.00    +0.000 A 
ATOM     13  C   UNL     1      48.297   5.758  15.924  0.00  0.00    +0.000 A 
BRANCH   5  15
ATOM     14  C   UNL     1      47.335   2.938  17.521  0.00  0.00    +0.000 C 
ATOM     15  O   UNL     1      46.922   4.277  17.257  0.00  0.00    +0.000 OA
ENDBRANCH   5  15
ENDBRANCH   1  12
BRANCH   3  16
ATOM     16  C   UNL     1      44.478   4.866  12.864  0.00  0.00    +0.000 C 
BRANCH  16  17
ATOM     17  C   UNL     1      44.638   4.522  11.406  0.00  0.00    +0.000 A 
ATOM     18  C   UNL     1      45.341   5.378  10.547  0.00  0.00    +0.000 A 
ATOM     19  C   UNL     1      45.606   5.004   9.223  0.00  0.00    +0.000 A 
ATOM     20  C   UNL     1      45.198   3.762   8.727  0.00  0.00    +0.000 A 
ATOM     21  C   UNL     1      44.397   2.964   9.550  0.00  0.00    +0.000 A 
ATOM     22  C   UNL     1      44.130   3.328  10.879  0.00  0.00    +0.000 A 
BRANCH  20  23
ATOM     23  N   UNL     1      45.474   3.312   7.422  0.00  0.00    +0.000 N 
ATOM     24  H   UNL     1      44.890   3.824   6.760  0.00  0.00    +0.000 HD
BRANCH  23  25
ATOM     25  C   UNL     1      46.883   3.362   6.995  0.00  0.00    +0.000 C 
BRANCH  25  26
ATOM     26  C   UNL     1      47.480   1.946   6.905  0.00  0.00    +0.000 C 
BRANCH  26  27
ATOM     27  N   UNL     1      48.499   1.815   5.857  0.00  0.00    +0.000 NA
ATOM     28  H   UNL     1      49.341   1.440   6.293  0.00  0.00    +0.000 HD
ATOM     29  H   UNL     1      48.751   2.749   5.530  0.00  0.00    +0.000 HD
ENDBRANCH  26  27
ENDBRANCH  25  26
ENDBRANCH  23  25
ENDBRANCH  20  23
ENDBRANCH  16  17
ENDBRANCH   3  16
TORSDOF 8
ENDMDL
MODEL 2
REMARK VINA RESULT:    -7.078      1.480      2.802
REMARK INTER + INTRA:         -10.927
REMARK INTER:                 -10.120
REMARK INTRA:                  -0.807
REMARK UNBOUND:                -0.747
REMARK  Name = 
REMARK  9 active torsions:
REMARK  status: ('A' for Active; 'I' for Inactive)
REMARK    1  A    between atoms: C_1  and  O_2
REMARK    2  A    between atoms: O_2  and  C_3
REMARK    3  A    between atoms: C_10  and  C_11
REMARK    4  A    between atoms: N_13  and  C_14
REMARK    5  A    between atoms: C_14  and  C_15
REMARK    6  A    between atoms: C_18  and  N_19
REMARK    7  A    between atoms: N_19  and  C_20
REMARK    8  A    between atoms: C_20  and  C_21
REMARK    9  A    between atoms: C_21  and  N_22
REMARK                            x       y       z     vdW  Elec       q    Type
REMARK                         _______ _______ _______ _____ _____    ______ ____
ROOT
ATOM      1  C   UNL     1      46.265   4.458  14.000  0.00  0.00    +0.000 C 
ATOM      2  O   UNL     1      46.249   3.269  13.688  0.00  0.00    +0.000 OA
ATOM      3  N   UNL     1      45.303   5.324  13.542  0.00  0.00    +0.000 N 
ATOM      4  H   UNL     1      45.308   6.297  13.816  0.00  0.00    +0.000 HD
ENDROOT
BRANCH   1  12
ATOM      5  C   UNL     1      48.477   7.082  13.793  0.00  0.00    +0.000 A 
ATOM      6  N   UNL     1      49.360   8.079  14.008  0.00  0.00    +0.000 NA
ATOM      7  C   UNL     1      49.996   8.112  15.182  0.00  0.00    +0.000 A 
ATOM      8  N   UNL     1      49.870   7.246  16.184  0.00  0.00    +0.000 NA
ATOM      9  C   UNL     1      48.969   6.281  15.935  0.00  0.00    +0.000 A 
ATOM     10  S   UNL     1      48.699   5.069  17.092  0.00  0.00    +0.000 S 
ATOM     11  C   UNL     1      47.525   4.329  16.110  0.00  0.00    +0.000 A 
ATOM     12  C   UNL     1      47.300   4.987  14.905  0.00  0.00    +0.000 A 
ATOM     13  C   UNL     1      48.200   6.128  14.785  0.00  0.00    +0.000 A 
BRANCH   5  15
ATOM     14  C   UNL     1      48.596   7.661  11.542  0.00  0.00    +0.000 C 
ATOM     15  O   UNL     1      47.831   7.042  12.575  0.00  0.00    +0.000 OA
ENDBRANCH   5  15
ENDBRANCH   1  12
BRANCH   3  16
ATOM     16  C   UNL     1      44.231   4.851  12.699  0.00  0.00    +0.000 C 
BRANCH  16  17
ATOM     17  C   UNL     1      44.691   4.451  11.320  0.00  0.00    +0.000 A 
ATOM     18  C   UNL     1      44.409   3.172  10.821  0.00  0.00    +0.000 A 
ATOM     19  C   UNL     1      44.716   2.837   9.496  0.00  0.00    +0.000 A 
ATOM     20  C   UNL     1      45.292   3.770   8.629  0.00  0.00    +0.000 A 
ATOM     21  C   UNL     1      45.677   5.004   9.164  0.00  0.00    +0.000 A 
ATOM     22  C   UNL     1      45.369   5.350  10.488  0.00  0.00    +0.000 A 
BRANCH  20  23
ATOM     23  N   UNL     1      45.582   3.508   7.277  0.00  0.00    +0.000 N 
ATOM     24  H   UNL     1      45.111   4.198   6.692  0.00  0.00    +0.000 HD
BRANCH  23  25
ATOM     25  C   UNL     1      47.008   3.431   6.916  0.00  0.00    +0.000 C 
BRANCH  25  26
ATOM     26  C   UNL     1      47.461   1.965   6.779  0.00  0.00    +0.000 C 
BRANCH  26  27
ATOM     27  N   UNL     1      48.537   1.783   5.798  0.00  0.00    +0.000 NA
ATOM     28  H   UNL     1      48.331   0.936   5.268  0.00  0.00    +0.000 HD
ATOM     29  H   UNL     1      49.405   1.588   6.300  0.00  0.00    +0.000 HD
ENDBRANCH  26  27
ENDBRANCH  25  26
ENDBRANCH  23  25
ENDBRANCH  20  23
ENDBRANCH  16  17
ENDBRANCH   3  16
TORSDOF 8
ENDMDL
MODEL 3
REMARK VINA RESULT:    -6.933      2.828      4.020
REMARK INTER + INTRA:         -10.719
REMARK INTER:                  -9.494
REMARK INTRA:                  -1.225
REMARK UNBOUND:                -0.747
REMARK  Name = 
REMARK  9 active torsions:
REMARK  status: ('A' for Active; 'I' for Inactive)
REMARK    1  A    between atoms: C_1  and  O_2
REMARK    2  A    between atoms: O_2  and  C_3
REMARK    3  A    between atoms: C_10  and  C_11
REMARK    4  A    between atoms: N_13  and  C_14
REMARK    5  A    between atoms: C_14  and  C_15
REMARK    6  A    between atoms: C_18  and  N_19
REMARK    7  A    between atoms: N_19  and  C_20
REMARK    8  A    between atoms: C_20  and  C_21
REMARK    9  A    between atoms: C_21  and  N_22
REMARK                            x       y       z     vdW  Elec       q    Type
REMARK                         _______ _______ _______ _____ _____    ______ ____
ROOT
ATOM      1  C   UNL     1      48.946   6.988  14.967  0.00  0.00    +0.000 C 
ATOM      2  O   UNL     1      49.874   7.059  14.163  0.00  0.00    +0.000 OA
ATOM      3  N   UNL     1      47.749   7.615  14.724  0.00  0.00    +0.000 N 
ATOM      4  H   UNL     1      46.982   7.539  15.378  0.00  0.00    +0.000 HD
ENDROOT
BRANCH   1  12
ATOM      5  C   UNL     1      47.286   4.248  16.216  0.00  0.00    +0.000 A 
ATOM      6  N   UNL     1      46.877   3.148  16.879  0.00  0.00    +0.000 NA
ATOM      7  C   UNL     1      47.502   2.830  18.015  0.00  0.00    +0.000 A 
ATOM      8  N   UNL     1      48.497   3.497  18.594  0.00  0.00    +0.000 NA
ATOM      9  C   UNL     1      48.885   4.575  17.892  0.00  0.00    +0.000 A 
ATOM     10  S   UNL     1      50.124   5.565  18.494  0.00  0.00    +0.000 S 
ATOM     11  C   UNL     1      50.028   6.589  17.141  0.00  0.00    +0.000 A 
ATOM     12  C   UNL     1      49.078   6.198  16.203  0.00  0.00    +0.000 A 
ATOM     13  C   UNL     1      48.364   5.019  16.679  0.00  0.00    +0.000 A 
BRANCH   5  15
ATOM     14  C   UNL     1      47.005   3.738  13.962  0.00  0.00    +0.000 C 
ATOM     15  O   UNL     1      46.630   4.582  15.049  0.00  0.00    +0.000 OA
ENDBRANCH   5  15
ENDBRANCH   1  12
BRANCH   3  16
ATOM     16  C   UNL     1      47.543   8.356  13.503  0.00  0.00    +0.000 C 
BRANCH  16  17
ATOM     17  C   UNL     1      46.596   7.676  12.547  0.00  0.00    +0.000 A 
ATOM     18  C   UNL     1      47.039   6.620  11.740  0.00  0.00    +0.000 A 
ATOM     19  C   UNL     1      46.138   5.898  10.947  0.00  0.00    +0.000 A 
ATOM     20  C   UNL     1      44.772   6.195  10.952  0.00  0.00    +0.000 A 
ATOM     21  C   UNL     1      44.354   7.323  11.666  0.00  0.00    +0.000 A 
ATOM     22  C   UNL     1      45.249   8.049  12.468  0.00  0.00    +0.000 A 
BRANCH  20  23
ATOM     23  N   UNL     1      43.812   5.479  10.213  0.00  0.00    +0.000 N 
ATOM     24  H   UNL     1      43.864   5.761   9.234  0.00  0.00    +0.000 HD
BRANCH  23  25
ATOM     25  C   UNL     1      43.866   4.011  10.318  0.00  0.00    +0.000 C 
BRANCH  25  26
ATOM     26  C   UNL     1      43.256   3.533  11.648  0.00  0.00    +0.000 C 
BRANCH  26  27
ATOM     27  N   UNL     1      43.030   2.084  11.693  0.00  0.00    +0.000 NA
ATOM     28  H   UNL     1      43.238   1.712  10.766  0.00  0.00    +0.000 HD
ATOM     29  H   UNL     1      42.034   1.914  11.840  0.00  0.00    +0.000 HD
ENDBRANCH  26  27
ENDBRANCH  25  26
ENDBRANCH  23  25
ENDBRANCH  20  23
ENDBRANCH  16  17
ENDBRANCH   3  16
TORSDOF 8
ENDMDL
MODEL 4
REMARK VINA RESULT:    -6.791      3.525      8.040
REMARK INTER + INTRA:         -10.515
REMARK INTER:                  -9.825
REMARK INTRA:                  -0.689
REMARK UNBOUND:                -0.747
REMARK  Name = 
REMARK  9 active torsions:
REMARK  status: ('A' for Active; 'I' for Inactive)
REMARK    1  A    between atoms: C_1  and  O_2
REMARK    2  A    between atoms: O_2  and  C_3
REMARK    3  A    between atoms: C_10  and  C_11
REMARK    4  A    between atoms: N_13  and  C_14
REMARK    5  A    between atoms: C_14  and  C_15
REMARK    6  A    between atoms: C_18  and  N_19
REMARK    7  A    between atoms: N_19  and  C_20
REMARK    8  A    between atoms: C_20  and  C_21
REMARK    9  A    between atoms: C_21  and  N_22
REMARK                            x       y       z     vdW  Elec       q    Type
REMARK                         _______ _______ _______ _____ _____    ______ ____
ROOT
ATOM      1  C   UNL     1      47.056   4.239  14.689  0.00  0.00    +0.000 C 
ATOM      2  O   UNL     1      47.316   3.104  14.293  0.00  0.00    +0.000 OA
ATOM      3  N   UNL     1      47.046   4.536  16.030  0.00  0.00    +0.000 N 
ATOM      4  H   UNL     1      46.852   5.474  16.352  0.00  0.00    +0.000 HD
ENDROOT
BRANCH   1  12
ATOM      5  C   UNL     1      44.370   5.008  12.686  0.00  0.00    +0.000 A 
ATOM      6  N   UNL     1      43.441   5.580  11.894  0.00  0.00    +0.000 NA
ATOM      7  C   UNL     1      43.744   6.742  11.309  0.00  0.00    +0.000 A 
ATOM      8  N   UNL     1      44.890   7.411  11.405  0.00  0.00    +0.000 NA
ATOM      9  C   UNL     1      45.780   6.814  12.216  0.00  0.00    +0.000 A 
ATOM     10  S   UNL     1      47.312   7.511  12.434  0.00  0.00    +0.000 S 
ATOM     11  C   UNL     1      47.772   6.275  13.507  0.00  0.00    +0.000 A 
ATOM     12  C   UNL     1      46.779   5.327  13.736  0.00  0.00    +0.000 A 
ATOM     13  C   UNL     1      45.606   5.629  12.925  0.00  0.00    +0.000 A 
BRANCH   5  15
ATOM     14  C   UNL     1      43.590   2.844  12.331  0.00  0.00    +0.000 C 
ATOM     15  O   UNL     1      44.060   3.801  13.279  0.00  0.00    +0.000 OA
ENDBRANCH   5  15
ENDBRANCH   1  12
BRANCH   3  16
ATOM     16  C   UNL     1      47.366   3.524  17.008  0.00  0.00    +0.000 C 
BRANCH  16  17
ATOM     17  C   UNL     1      48.848   3.298  17.169  0.00  0.00    +0.000 A 
ATOM     18  C   UNL     1      49.676   4.327  17.637  0.00  0.00    +0.000 A 
ATOM     19  C   UNL     1      51.028   4.087  17.913  0.00  0.00    +0.000 A 
ATOM     20  C   UNL     1      51.585   2.815  17.750  0.00  0.00    +0.000 A 
ATOM     21  C   UNL     1      50.785   1.824  17.172  0.00  0.00    +0.000 A 
ATOM     22  C   UNL     1      49.429   2.053  16.897  0.00  0.00    +0.000 A 
BRANCH  20  23
ATOM     23  N   UNL     1      52.924   2.503  18.053  0.00  0.00    +0.000 N 
ATOM     24  H   UNL     1      53.023   2.392  19.062  0.00  0.00    +0.000 HD
BRANCH  23  25
ATOM     25  C   UNL     1      53.497   1.336  17.359  0.00  0.00    +0.000 C 
BRANCH  25  26
ATOM     26  C   UNL     1      54.069   0.324  18.369  0.00  0.00    +0.000 C 
BRANCH  26  27
ATOM     27  N   UNL     1      53.192  -0.833  18.587  0.00  0.00    +0.000 NA
ATOM     28  H   UNL     1      53.722  -1.524  19.118  0.00  0.00    +0.000 HD
ATOM     29  H   UNL     1      53.000  -1.269  17.684  0.00  0.00    +0.000 HD
ENDBRANCH  26  27
ENDBRANCH  25  26
ENDBRANCH  23  25
ENDBRANCH  20  23
ENDBRANCH  16  17
ENDBRANCH   3  16
TORSDOF 8
ENDMDL
MODEL 5
REMARK VINA RESULT:    -6.624      1.854      2.567
REMARK INTER + INTRA:         -10.275
REMARK INTER:                  -9.028
REMARK INTRA:                  -1.247
REMARK UNBOUND:                -0.747
REMARK  Name = 
REMARK  9 active torsions:
REMARK  status: ('A' for Active; 'I' for Inactive)
REMARK    1  A    between atoms: C_1  and  O_2
REMARK    2  A    between atoms: O_2  and  C_3
REMARK    3  A    between atoms: C_10  and  C_11
REMARK    4  A    between atoms: N_13  and  C_14
REMARK    5  A    between atoms: C_14  and  C_15
REMARK    6  A    between atoms: C_18  and  N_19
REMARK    7  A    between atoms: N_19  and  C_20
REMARK    8  A    between atoms: C_20  and  C_21
REMARK    9  A    between atoms: C_21  and  N_22
REMARK                            x       y       z     vdW  Elec       q    Type
REMARK                         _______ _______ _______ _____ _____    ______ ____
ROOT
ATOM      1  C   UNL     1      47.850   7.038  13.657  0.00  0.00    +0.000 C 
ATOM      2  O   UNL     1      48.563   7.127  12.659  0.00  0.00    +0.000 OA
ATOM      3  N   UNL     1      46.519   7.373  13.607  0.00  0.00    +0.000 N 
ATOM      4  H   UNL     1      45.930   7.281  14.424  0.00  0.00    +0.000 HD
ENDROOT
BRANCH   1  12
ATOM      5  C   UNL     1      47.131   4.313  15.626  0.00  0.00    +0.000 A 
ATOM      6  N   UNL     1      47.119   3.299  16.515  0.00  0.00    +0.000 NA
ATOM      7  C   UNL     1      48.005   3.327  17.513  0.00  0.00    +0.000 A 
ATOM      8  N   UNL     1      48.913   4.271  17.750  0.00  0.00    +0.000 NA
ATOM      9  C   UNL     1      48.901   5.253  16.832  0.00  0.00    +0.000 A 
ATOM     10  S   UNL     1      49.972   6.559  16.991  0.00  0.00    +0.000 S 
ATOM     11  C   UNL     1      49.388   7.272  15.564  0.00  0.00    +0.000 A 
ATOM     12  C   UNL     1      48.392   6.535  14.931  0.00  0.00    +0.000 A 
ATOM     13  C   UNL     1      48.072   5.351  15.719  0.00  0.00    +0.000 A 
BRANCH   5  15
ATOM     14  C   UNL     1      46.702   3.614  13.449  0.00  0.00    +0.000 C 
ATOM     15  O   UNL     1      46.206   4.288  14.604  0.00  0.00    +0.000 OA
ENDBRANCH   5  15
ENDBRANCH   1  12
BRANCH   3  16
ATOM     16  C   UNL     1      45.920   7.817  12.372  0.00  0.00    +0.000 C 
BRANCH  16  17
ATOM     17  C   UNL     1      45.357   6.690  11.544  0.00  0.00    +0.000 A 
ATOM     18  C   UNL     1      46.043   6.230  10.412  0.00  0.00    +0.000 A 
ATOM     19  C   UNL     1      45.596   5.100   9.715  0.00  0.00    +0.000 A 
ATOM     20  C   UNL     1      44.469   4.389  10.137  0.00  0.00    +0.000 A 
ATOM     21  C   UNL     1      43.723   4.920  11.194  0.00  0.00    +0.000 A 
ATOM     22  C   UNL     1      44.165   6.048  11.902  0.00  0.00    +0.000 A 
BRANCH  20  23
ATOM     23  N   UNL     1      43.997   3.223   9.505  0.00  0.00    +0.000 N 
ATOM     24  H   UNL     1      43.004   3.330   9.301  0.00  0.00    +0.000 HD
BRANCH  23  25
ATOM     25  C   UNL     1      44.718   2.798   8.292  0.00  0.00    +0.000 C 
BRANCH  25  26
ATOM     26  C   UNL     1      45.592   1.563   8.578  0.00  0.00    +0.000 C 
BRANCH  26  27
ATOM     27  N   UNL     1      46.816   1.522   7.770  0.00  0.00    +0.000 NA
ATOM     28  H   UNL     1      46.683   2.152   6.978  0.00  0.00    +0.000 HD
ATOM     29  H   UNL     1      46.908   0.589   7.366  0.00  0.00    +0.000 HD
ENDBRANCH  26  27
ENDBRANCH  25  26
ENDBRANCH  23  25
ENDBRANCH  20  23
ENDBRANCH  16  17
ENDBRANCH   3  16
TORSDOF 8
ENDMDL
MODEL 6
REMARK VINA RESULT:    -6.316      1.750      2.330
REMARK INTER + INTRA:          -9.832
REMARK INTER:                  -9.186
REMARK INTRA:                  -0.646
REMARK UNBOUND:                -0.747
REMARK  Name = 
REMARK  9 active torsions:
REMARK  status: ('A' for Active; 'I' for Inactive)
REMARK    1  A    between atoms: C_1  and  O_2
REMARK    2  A    between atoms: O_2  and  C_3
REMARK    3  A    between atoms: C_10  and  C_11
REMARK    4  A    between atoms: N_13  and  C_14
REMARK    5  A    between atoms: C_14  and  C_15
REMARK    6  A    between atoms: C_18  and  N_19
REMARK    7  A    between atoms: N_19  and  C_20
REMARK    8  A    between atoms: C_20  and  C_21
REMARK    9  A    between atoms: C_21  and  N_22
REMARK                            x       y       z     vdW  Elec       q    Type
REMARK                         _______ _______ _______ _____ _____    ______ ____
ROOT
ATOM      1  C   UNL     1      47.023   5.697  13.946  0.00  0.00    +0.000 C 
ATOM      2  O   UNL     1      47.744   6.366  13.208  0.00  0.00    +0.000 OA
ATOM      3  N   UNL     1      45.683   5.550  13.683  0.00  0.00    +0.000 N 
ATOM      4  H   UNL     1      45.096   4.983  14.280  0.00  0.00    +0.000 HD
ENDROOT
BRANCH   1  12
ATOM      5  C   UNL     1      48.930   6.715  16.619  0.00  0.00    +0.000 A 
ATOM      6  N   UNL     1      49.579   6.862  17.792  0.00  0.00    +0.000 NA
ATOM      7  C   UNL     1      49.704   5.791  18.579  0.00  0.00    +0.000 A 
ATOM      8  N   UNL     1      49.266   4.560  18.330  0.00  0.00    +0.000 NA
ATOM      9  C   UNL     1      48.611   4.462  17.160  0.00  0.00    +0.000 A 
ATOM     10  S   UNL     1      48.007   2.956  16.662  0.00  0.00    +0.000 S 
ATOM     11  C   UNL     1      47.369   3.631  15.239  0.00  0.00    +0.000 A 
ATOM     12  C   UNL     1      47.580   5.001  15.119  0.00  0.00    +0.000 A 
ATOM     13  C   UNL     1      48.364   5.485  16.249  0.00  0.00    +0.000 A 
BRANCH   5  15
ATOM     14  C   UNL     1      48.423   8.985  16.526  0.00  0.00    +0.000 C 
ATOM     15  O   UNL     1      48.814   7.820  15.801  0.00  0.00    +0.000 OA
ENDBRANCH   5  15
ENDBRANCH   1  12
BRANCH   3  16
ATOM     16  C   UNL     1      45.093   6.161  12.516  0.00  0.00    +0.000 C 
BRANCH  16  17
ATOM     17  C   UNL     1      45.102   5.263  11.305  0.00  0.00    +0.000 A 
ATOM     18  C   UNL     1      45.631   5.717  10.089  0.00  0.00    +0.000 A 
ATOM     19  C   UNL     1      45.763   4.849   8.998  0.00  0.00    +0.000 A 
ATOM     20  C   UNL     1      45.393   3.505   9.094  0.00  0.00    +0.000 A 
ATOM     21  C   UNL     1      44.759   3.088  10.269  0.00  0.00    +0.000 A 
ATOM     22  C   UNL     1      44.626   3.948  11.369  0.00  0.00    +0.000 A 
BRANCH  20  23
ATOM     23  N   UNL     1      45.543   2.575   8.049  0.00  0.00    +0.000 N 
ATOM     24  H   UNL     1      44.649   2.459   7.571  0.00  0.00    +0.000 HD
BRANCH  23  25
ATOM     25  C   UNL     1      46.605   2.858   7.067  0.00  0.00    +0.000 C 
BRANCH  25  26
ATOM     26  C   UNL     1      47.555   1.654   6.925  0.00  0.00    +0.000 C 
BRANCH  26  27
ATOM     27  N   UNL     1      48.471   1.773   5.784  0.00  0.00    +0.000 NA
ATOM     28  H   UNL     1      49.368   1.379   6.068  0.00  0.00    +0.000 HD
ATOM     29  H   UNL     1      48.649   2.764   5.613  0.00  0.00    +0.000 HD
ENDBRANCH  26  27
ENDBRANCH  25  26
ENDBRANCH  23  25
ENDBRANCH  20  23
ENDBRANCH  16  17
ENDBRANCH   3  16
TORSDOF 8
ENDMDL
MODEL 7
REMARK VINA RESULT:    -6.296      3.527      7.971
REMARK INTER + INTRA:          -9.803
REMARK INTER:                  -8.944
REMARK INTRA:                  -0.859
REMARK UNBOUND:                -0.747
REMARK  Name = 
REMARK  9 active torsions:
REMARK  status: ('A' for Active; 'I' for Inactive)
REMARK    1  A    between atoms: C_1  and  O_2
REMARK    2  A    between atoms: O_2  and  C_3
REMARK    3  A    between atoms: C_10  and  C_11
REMARK    4  A    between atoms: N_13  and  C_14
REMARK    5  A    between atoms: C_14  and  C_15
REMARK    6  A    between atoms: C_18  and  N_19
REMARK    7  A    between atoms: N_19  and  C_20
REMARK    8  A    between atoms: C_20  and  C_21
REMARK    9  A    between atoms: C_21  and  N_22
REMARK                            x       y       z     vdW  Elec       q    Type
REMARK                         _______ _______ _______ _____ _____    ______ ____
ROOT
ATOM      1  C   UNL     1      46.951   4.175  14.552  0.00  0.00    +0.000 C 
ATOM      2  O   UNL     1      47.310   3.079  14.124  0.00  0.00    +0.000 OA
ATOM      3  N   UNL     1      46.895   4.425  15.901  0.00  0.00    +0.000 N 
ATOM      4  H   UNL     1      46.619   5.332  16.250  0.00  0.00    +0.000 HD
ENDROOT
BRANCH   1  12
ATOM      5  C   UNL     1      44.153   4.901  12.692  0.00  0.00    +0.000 A 
ATOM      6  N   UNL     1      43.172   5.460  11.954  0.00  0.00    +0.000 NA
ATOM      7  C   UNL     1      43.416   6.637  11.372  0.00  0.00    +0.000 A 
ATOM      8  N   UNL     1      44.548   7.334  11.423  0.00  0.00    +0.000 NA
ATOM      9  C   UNL     1      45.491   6.749  12.181  0.00  0.00    +0.000 A 
ATOM     10  S   UNL     1      47.014   7.483  12.336  0.00  0.00    +0.000 S 
ATOM     11  C   UNL     1      47.557   6.245  13.366  0.00  0.00    +0.000 A 
ATOM     12  C   UNL     1      46.601   5.269  13.629  0.00  0.00    +0.000 A 
ATOM     13  C   UNL     1      45.383   5.551  12.880  0.00  0.00    +0.000 A 
BRANCH   5  15
ATOM     14  C   UNL     1      43.598   2.672  12.316  0.00  0.00    +0.000 C 
ATOM     15  O   UNL     1      43.902   3.679  13.280  0.00  0.00    +0.000 OA
ENDBRANCH   5  15
ENDBRANCH   1  12
BRANCH   3  16
ATOM     16  C   UNL     1      47.282   3.410  16.851  0.00  0.00    +0.000 C 
BRANCH  16  17
ATOM     17  C   UNL     1      48.716   3.529  17.301  0.00  0.00    +0.000 A 
ATOM     18  C   UNL     1      49.604   2.460  17.130  0.00  0.00    +0.000 A 
ATOM     19  C   UNL     1      50.966   2.607  17.423  0.00  0.00    +0.000 A 
ATOM     20  C   UNL     1      51.482   3.826  17.873  0.00  0.00    +0.000 A 
ATOM     21  C   UNL     1      50.573   4.852  18.153  0.00  0.00    +0.000 A 
ATOM     22  C   UNL     1      49.208   4.716  17.858  0.00  0.00    +0.000 A 
BRANCH  20  23
ATOM     23  N   UNL     1      52.845   4.049  18.141  0.00  0.00    +0.000 N 
ATOM     24  H   UNL     1      53.408   3.437  17.550  0.00  0.00    +0.000 HD
BRANCH  23  25
ATOM     25  C   UNL     1      53.318   5.439  18.021  0.00  0.00    +0.000 C 
BRANCH  25  26
ATOM     26  C   UNL     1      53.858   5.715  16.606  0.00  0.00    +0.000 C 
BRANCH  26  27
ATOM     27  N   UNL     1      52.972   6.567  15.806  0.00  0.00    +0.000 NA
ATOM     28  H   UNL     1      52.804   7.421  16.338  0.00  0.00    +0.000 HD
ATOM     29  H   UNL     1      52.062   6.109  15.729  0.00  0.00    +0.000 HD
ENDBRANCH  26  27
ENDBRANCH  25  26
ENDBRANCH  23  25
ENDBRANCH  20  23
ENDBRANCH  16  17
ENDBRANCH   3  16
TORSDOF 8
ENDMDL
MODEL 8
REMARK VINA RESULT:    -6.188      3.286      7.911
REMARK INTER + INTRA:          -9.647
REMARK INTER:                  -8.802
REMARK INTRA:                  -0.845
REMARK UNBOUND:                -0.747
REMARK  Name = 
REMARK  9 active torsions:
REMARK  status: ('A' for Active; 'I' for Inactive)
REMARK    1  A    between atoms: C_1  and  O_2
REMARK    2  A    between atoms: O_2  and  C_3
REMARK    3  A    between atoms: C_10  and  C_11
REMARK    4  A    between atoms: N_13  and  C_14
REMARK    5  A    between atoms: C_14  and  C_15
REMARK    6  A    between atoms: C_18  and  N_19
REMARK    7  A    between atoms: N_19  and  C_20
REMARK    8  A    between atoms: C_20  and  C_21
REMARK    9  A    between atoms: C_21  and  N_22
REMARK                            x       y       z     vdW  Elec       q    Type
REMARK                         _______ _______ _______ _____ _____    ______ ____
ROOT
ATOM      1  C   UNL     1      48.299   6.854  14.130  0.00  0.00    +0.000 C 
ATOM      2  O   UNL     1      49.421   6.808  13.628  0.00  0.00    +0.000 OA
ATOM      3  N   UNL     1      48.131   7.161  15.458  0.00  0.00    +0.000 N 
ATOM      4  H   UNL     1      47.207   7.217  15.864  0.00  0.00    +0.000 HD
ENDROOT
BRANCH   1  12
ATOM      5  C   UNL     1      46.545   4.026  13.268  0.00  0.00    +0.000 A 
ATOM      6  N   UNL     1      45.639   3.111  12.868  0.00  0.00    +0.000 NA
ATOM      7  C   UNL     1      44.582   3.536  12.171  0.00  0.00    +0.000 A 
ATOM      8  N   UNL     1      44.318   4.787  11.803  0.00  0.00    +0.000 NA
ATOM      9  C   UNL     1      45.237   5.667  12.236  0.00  0.00    +0.000 A 
ATOM     10  S   UNL     1      45.079   7.308  11.833  0.00  0.00    +0.000 S 
ATOM     11  C   UNL     1      46.490   7.703  12.694  0.00  0.00    +0.000 A 
ATOM     12  C   UNL     1      47.096   6.615  13.315  0.00  0.00    +0.000 A 
ATOM     13  C   UNL     1      46.368   5.392  12.999  0.00  0.00    +0.000 A 
BRANCH   5  15
ATOM     14  C   UNL     1      47.374   3.478  15.373  0.00  0.00    +0.000 C 
ATOM     15  O   UNL     1      47.643   3.582  13.976  0.00  0.00    +0.000 OA
ENDBRANCH   5  15
ENDBRANCH   1  12
BRANCH   3  16
ATOM     16  C   UNL     1      49.270   7.460  16.293  0.00  0.00    +0.000 C 
BRANCH  16  17
ATOM     17  C   UNL     1      49.941   6.231  16.849  0.00  0.00    +0.000 A 
ATOM     18  C   UNL     1      51.310   6.015  16.643  0.00  0.00    +0.000 A 
ATOM     19  C   UNL     1      51.968   4.946  17.264  0.00  0.00    +0.000 A 
ATOM     20  C   UNL     1      51.286   4.077  18.122  0.00  0.00    +0.000 A 
ATOM     21  C   UNL     1      49.899   4.227  18.230  0.00  0.00    +0.000 A 
ATOM     22  C   UNL     1      49.232   5.297  17.615  0.00  0.00    +0.000 A 
BRANCH  20  23
ATOM     23  N   UNL     1      51.899   3.014  18.809  0.00  0.00    +0.000 N 
ATOM     24  H   UNL     1      51.229   2.253  18.919  0.00  0.00    +0.000 HD
BRANCH  23  25
ATOM     25  C   UNL     1      53.154   2.499  18.234  0.00  0.00    +0.000 C 
BRANCH  25  26
ATOM     26  C   UNL     1      52.946   1.098  17.629  0.00  0.00    +0.000 C 
BRANCH  26  27
ATOM     27  N   UNL     1      51.678   0.479  18.029  0.00  0.00    +0.000 NA
ATOM     28  H   UNL     1      51.510   0.725  19.005  0.00  0.00    +0.000 HD
ATOM     29  H   UNL     1      51.793  -0.535  18.018  0.00  0.00    +0.000 HD
ENDBRANCH  26  27
ENDBRANCH  25  26
ENDBRANCH  23  25
ENDBRANCH  20  23
ENDBRANCH  16  17
ENDBRANCH   3  16
TORSDOF 8
ENDMDL
MODEL 9
REMARK VINA RESULT:    -6.038      3.119      4.773
REMARK INTER + INTRA:          -9.432
REMARK INTER:                  -8.540
REMARK INTRA:                  -0.892
REMARK UNBOUND:                -0.747
REMARK  Name = 
REMARK  9 active torsions:
REMARK  status: ('A' for Active; 'I' for Inactive)
REMARK    1  A    between atoms: C_1  and  O_2
REMARK    2  A    between atoms: O_2  and  C_3
REMARK    3  A    between atoms: C_10  and  C_11
REMARK    4  A    between atoms: N_13  and  C_14
REMARK    5  A    between atoms: C_14  and  C_15
REMARK    6  A    between atoms: C_18  and  N_19
REMARK    7  A    between atoms: N_19  and  C_20
REMARK    8  A    between atoms: C_20  and  C_21
REMARK    9  A    between atoms: C_21  and  N_22
REMARK                            x       y       z     vdW  Elec       q    Type
REMARK                         _______ _______ _______ _____ _____    ______ ____
ROOT
ATOM      1  C   UNL     1      49.494   6.039  16.830  0.00  0.00    +0.000 C 
ATOM      2  O   UNL     1      48.520   6.354  17.512  0.00  0.00    +0.000 OA
ATOM      3  N   UNL     1      49.609   6.454  15.527  0.00  0.00    +0.000 N 
ATOM      4  H   UNL     1      50.419   6.210  14.974  0.00  0.00    +0.000 HD
ENDROOT
BRANCH   1  12
ATOM      5  C   UNL     1      50.128   2.662  16.954  0.00  0.00    +0.000 A 
ATOM      6  N   UNL     1      50.657   1.426  17.060  0.00  0.00    +0.000 NA
ATOM      7  C   UNL     1      51.852   1.301  17.642  0.00  0.00    +0.000 A 
ATOM      8  N   UNL     1      52.596   2.276  18.157  0.00  0.00    +0.000 NA
ATOM      9  C   UNL     1      52.041   3.492  18.015  0.00  0.00    +0.000 A 
ATOM     10  S   UNL     1      52.836   4.854  18.641  0.00  0.00    +0.000 S 
ATOM     11  C   UNL     1      51.606   5.886  18.083  0.00  0.00    +0.000 A 
ATOM     12  C   UNL     1      50.586   5.231  17.401  0.00  0.00    +0.000 A 
ATOM     13  C   UNL     1      50.827   3.794  17.404  0.00  0.00    +0.000 A 
BRANCH   5  15
ATOM     14  C   UNL     1      47.838   2.826  17.331  0.00  0.00    +0.000 C 
ATOM     15  O   UNL     1      48.887   2.787  16.365  0.00  0.00    +0.000 OA
ENDBRANCH   5  15
ENDBRANCH   1  12
BRANCH   3  16
ATOM     16  C   UNL     1      48.598   7.295  14.932  0.00  0.00    +0.000 C 
BRANCH  16  17
ATOM     17  C   UNL     1      47.783   6.591  13.877  0.00  0.00    +0.000 A 
ATOM     18  C   UNL     1      47.150   5.374  14.164  0.00  0.00    +0.000 A 
ATOM     19  C   UNL     1      46.286   4.780  13.235  0.00  0.00    +0.000 A 
ATOM     20  C   UNL     1      46.014   5.391  12.007  0.00  0.00    +0.000 A 
ATOM     21  C   UNL     1      46.738   6.542  11.679  0.00  0.00    +0.000 A 
ATOM     22  C   UNL     1      47.601   7.147  12.605  0.00  0.00    +0.000 A 
BRANCH  20  23
ATOM     23  N   UNL     1      45.123   4.866  11.053  0.00  0.00    +0.000 N 
ATOM     24  H   UNL     1      45.486   3.979  10.706  0.00  0.00    +0.000 HD
BRANCH  23  25
ATOM     25  C   UNL     1      43.723   4.703  11.483  0.00  0.00    +0.000 C 
BRANCH  25  26
ATOM     26  C   UNL     1      43.286   3.230  11.382  0.00  0.00    +0.000 C 
BRANCH  26  27
ATOM     27  N   UNL     1      43.776   2.405  12.492  0.00  0.00    +0.000 NA
ATOM     28  H   UNL     1      43.023   2.330  13.175  0.00  0.00    +0.000 HD
ATOM     29  H   UNL     1      44.527   2.910  12.965  0.00  0.00    +0.000 HD
ENDBRANCH  26  27
ENDBRANCH  25  26
ENDBRANCH  23  25
ENDBRANCH  20  23
ENDBRANCH  16  17
ENDBRANCH   3  16
TORSDOF 8
ENDMDL
