MODEL 1
REMARK VINA RESULT:    -8.209      0.000      0.000
REMARK INTER + INTRA:         -12.374
REMARK INTER:                 -11.568
REMARK INTRA:                  -0.806
REMARK UNBOUND:                -0.806
REMARK  Name = 
REMARK  7 active torsions:
REMARK  status: ('A' for Active; 'I' for Inactive)
REMARK    1  A    between atoms: C_2  and  C_4
REMARK    2  A    between atoms: C_7  and  O_8
REMARK    3  A    between atoms: O_8  and  C_9
REMARK    4  A    between atoms: C_9  and  C_10
REMARK    5  A    between atoms: C_10  and  C_11
REMARK    6  A    between atoms: C_16  and  C_17
REMARK    7  A    between atoms: C_17  and  C_18
REMARK                            x       y       z     vdW  Elec       q    Type
REMARK                         _______ _______ _______ _____ _____    ______ ____
ROOT
ATOM      1  C   UNL     1      43.378   5.332  12.003  0.00  0.00    +0.000 C 
ENDROOT
BRANCH   1   2
ATOM      2  C   UNL     1      44.805   5.512  12.454  0.00  0.00    +0.000 A 
ATOM      3  C   UNL     1      45.638   6.458  11.848  0.00  0.00    +0.000 A 
ATOM      4  C   UNL     1      46.968   6.553  12.242  0.00  0.00    +0.000 A 
ATOM      5  F   UNL     1      47.756   7.479  11.680  0.00  0.00    +0.000 F 
ATOM      6  C   UNL     1      47.499   5.700  13.206  0.00  0.00    +0.000 A 
ATOM      7  C   UNL     1      46.689   4.731  13.809  0.00  0.00    +0.000 A 
ATOM      8  C   UNL     1      45.333   4.674  13.449  0.00  0.00    +0.000 A 
BRANCH   7   9
ATOM      9  C   UNL     1      47.241   3.798  14.858  0.00  0.00    +0.000 C 
BRANCH   9  10
ATOM     10  C   UNL     1      47.219   4.246  16.334  0.00  0.00    +0.000 C 
ATOM     11  C   UNL     1      48.310   5.205  16.759  0.00  0.00    +0.000 C 
ATOM     12  C   UNL     1      49.231   4.396  17.647  0.00  0.00    +0.000 C 
ATOM     13  O   UNL     1      48.542   3.214  18.048  0.00  0.00    +0.000 OA
ATOM     14  C   UNL     1      47.292   3.130  17.363  0.00  0.00    +0.000 C 
ENDBRANCH   9  10
ENDBRANCH   7   9
ENDBRANCH   1   2
BRANCH   1  15
ATOM     15  C   UNL     1      43.264   4.221  10.957  0.00  0.00    +0.000 C 
BRANCH  15  16
ATOM     16  O   UNL     1      43.668   4.750   9.687  0.00  0.00    +0.000 OA
BRANCH  16  20
ATOM     17  C   UNL     1      46.343   2.284   7.883  0.00  0.00    +0.000 A 
ATOM     18  C   UNL     1      46.348   3.642   7.600  0.00  0.00    +0.000 A 
ATOM     19  N   UNL     1      45.476   4.510   8.177  0.00  0.00    +0.000 NA
ATOM     20  C   UNL     1      44.605   3.961   9.053  0.00  0.00    +0.000 A 
ATOM     21  C   UNL     1      44.607   2.599   9.342  0.00  0.00    +0.000 A 
ATOM     22  N   UNL     1      45.468   1.719   8.765  0.00  0.00    +0.000 NA
BRANCH  17  24
ATOM     23  N   UNL     1      48.342   2.009   6.539  0.00  0.00    +0.000 N 
ATOM     24  C   UNL     1      47.312   1.388   7.188  0.00  0.00    +0.000 C 
ATOM     25  O   UNL     1      47.199   0.170   7.203  0.00  0.00    +0.000 OA
ATOM     26  H   UNL     1      49.043   1.450   6.075  0.00  0.00    +0.000 HD
ATOM     27  H   UNL     1      48.434   3.018   6.571  0.00  0.00    +0.000 HD
ENDBRANCH  17  24
ENDBRANCH  16  20
ENDBRANCH  15  16
ENDBRANCH   1  15
TORSDOF 7
ENDMDL
MODEL 2
REMARK VINA RESULT:    -7.680      3.356      7.778
REMARK INTER + INTRA:         -11.629
REMARK INTER:                 -10.853
REMARK INTRA:                  -0.777
REMARK UNBOUND:                -0.806
REMARK  Name = 
REMARK  7 active torsions:
REMARK  status: ('A' for Active; 'I' for Inactive)
REMARK    1  A    between atoms: C_2  and  C_4
REMARK    2  A    between atoms: C_7  and  O_8
REMARK    3  A    between atoms: O_8  and  C_9
REMARK    4  A    between atoms: C_9  and  C_10
REMARK    5  A    between atoms: C_10  and  C_11
REMARK    6  A    between atoms: C_16  and  C_17
REMARK    7  A    between atoms: C_17  and  C_18
REMARK                            x       y       z     vdW  Elec       q    Type
REMARK                         _______ _______ _______ _____ _____    ______ ____
ROOT
ATOM      1  C   UNL     1      45.477   6.929  11.370  0.00  0.00    +0.000 C 
ENDROOT
BRANCH   1   2
ATOM      2  C   UNL     1      44.946   5.562  11.020  0.00  0.00    +0.000 A 
ATOM      3  C   UNL     1      44.275   4.784  11.969  0.00  0.00    +0.000 A 
ATOM      4  C   UNL     1      43.857   3.501  11.633  0.00  0.00    +0.000 A 
ATOM      5  F   UNL     1      43.190   2.769  12.535  0.00  0.00    +0.000 F 
ATOM      6  C   UNL     1      44.122   2.960  10.378  0.00  0.00    +0.000 A 
ATOM      7  C   UNL     1      44.812   3.713   9.420  0.00  0.00    +0.000 A 
ATOM      8  C   UNL     1      45.185   5.027   9.744  0.00  0.00    +0.000 A 
BRANCH   7   9
ATOM      9  C   UNL     1      45.109   3.149   8.052  0.00  0.00    +0.000 C 
BRANCH   9  10
ATOM     10  C   UNL     1      46.579   2.920   7.648  0.00  0.00    +0.000 C 
ATOM     11  C   UNL     1      47.021   3.549   6.343  0.00  0.00    +0.000 C 
ATOM     12  C   UNL     1      47.208   2.393   5.385  0.00  0.00    +0.000 C 
ATOM     13  O   UNL     1      47.282   1.189   6.145  0.00  0.00    +0.000 OA
ATOM     14  C   UNL     1      47.010   1.468   7.518  0.00  0.00    +0.000 C 
ENDBRANCH   9  10
ENDBRANCH   7   9
ENDBRANCH   1   2
BRANCH   1  15
ATOM     15  C   UNL     1      45.970   6.975  12.818  0.00  0.00    +0.000 C 
BRANCH  15  16
ATOM     16  O   UNL     1      47.282   6.402  12.869  0.00  0.00    +0.000 OA
BRANCH  16  20
ATOM     17  C   UNL     1      47.825   4.012  16.108  0.00  0.00    +0.000 A 
ATOM     18  C   UNL     1      48.332   5.302  16.104  0.00  0.00    +0.000 A 
ATOM     19  N   UNL     1      48.177   6.143  15.047  0.00  0.00    +0.000 NA
ATOM     20  C   UNL     1      47.488   5.637  14.000  0.00  0.00    +0.000 A 
ATOM     21  C   UNL     1      46.972   4.345  14.010  0.00  0.00    +0.000 A 
ATOM     22  N   UNL     1      47.128   3.491  15.056  0.00  0.00    +0.000 NA
BRANCH  17  24
ATOM     23  N   UNL     1      46.946   2.573  17.849  0.00  0.00    +0.000 N 
ATOM     24  C   UNL     1      48.060   3.136  17.292  0.00  0.00    +0.000 C 
ATOM     25  O   UNL     1      49.180   2.927  17.736  0.00  0.00    +0.000 OA
ATOM     26  H   UNL     1      47.048   1.949  18.636  0.00  0.00    +0.000 HD
ATOM     27  H   UNL     1      46.032   2.733  17.442  0.00  0.00    +0.000 HD
ENDBRANCH  17  24
ENDBRANCH  16  20
ENDBRANCH  15  16
ENDBRANCH   1  15
TORSDOF 7
ENDMDL
MODEL 3
REMARK VINA RESULT:    -7.604      2.382      3.551
REMARK INTER + INTRA:         -11.521
REMARK INTER:                 -10.500
REMARK INTRA:                  -1.021
REMARK UNBOUND:                -0.806
REMARK  Name = 
REMARK  7 active torsions:
REMARK  status: ('A' for Active; 'I' for Inactive)
REMARK    1  A    between atoms: C_2  and  C_4
REMARK    2  A    between atoms: C_7  and  O_8
REMARK    3  A    between atoms: O_8  and  C_9
REMARK    4  A    between atoms: C_9  and  C_10
REMARK    5  A    between atoms: C_10  and  C_11
REMARK    6  A    between atoms: C_16  and  C_17
REMARK    7  A    between atoms: C_17  and  C_18
REMARK                            x       y       z     vdW  Elec       q    Type
REMARK                         _______ _______ _______ _____ _____    ______ ____
ROOT
ATOM      1  C   UNL     1      43.601   5.642  11.910  0.00  0.00    +0.000 C 
ENDROOT
BRANCH   1   2
ATOM      2  C   UNL     1      45.032   5.633  12.384  0.00  0.00    +0.000 A 
ATOM      3  C   UNL     1      45.417   4.883  13.500  0.00  0.00    +0.000 A 
ATOM      4  C   UNL     1      46.730   4.949  13.951  0.00  0.00    +0.000 A 
ATOM      5  F   UNL     1      47.103   4.208  15.003  0.00  0.00    +0.000 F 
ATOM      6  C   UNL     1      47.666   5.776  13.335  0.00  0.00    +0.000 A 
ATOM      7  C   UNL     1      47.297   6.553  12.231  0.00  0.00    +0.000 A 
ATOM      8  C   UNL     1      45.985   6.442  11.744  0.00  0.00    +0.000 A 
BRANCH   7   9
ATOM      9  C   UNL     1      48.294   7.453  11.544  0.00  0.00    +0.000 C 
BRANCH   9  10
ATOM     10  C   UNL     1      48.621   8.819  12.183  0.00  0.00    +0.000 C 
ATOM     11  C   UNL     1      49.960   8.928  12.881  0.00  0.00    +0.000 C 
ATOM     12  C   UNL     1      49.637   8.994  14.359  0.00  0.00    +0.000 C 
ATOM     13  O   UNL     1      48.255   9.315  14.500  0.00  0.00    +0.000 OA
ATOM     14  C   UNL     1      47.627   9.318  13.218  0.00  0.00    +0.000 C 
ENDBRANCH   9  10
ENDBRANCH   7   9
ENDBRANCH   1   2
BRANCH   1  15
ATOM     15  C   UNL     1      43.486   5.078  10.492  0.00  0.00    +0.000 C 
BRANCH  15  16
ATOM     16  O   UNL     1      43.799   3.680  10.532  0.00  0.00    +0.000 OA
BRANCH  16  20
ATOM     17  C   UNL     1      46.379   2.724   7.545  0.00  0.00    +0.000 A 
ATOM     18  C   UNL     1      45.897   1.736   8.390  0.00  0.00    +0.000 A 
ATOM     19  N   UNL     1      45.031   2.002   9.403  0.00  0.00    +0.000 NA
ATOM     20  C   UNL     1      44.665   3.297   9.529  0.00  0.00    +0.000 A 
ATOM     21  C   UNL     1      45.144   4.286   8.675  0.00  0.00    +0.000 A 
ATOM     22  N   UNL     1      46.018   4.035   7.663  0.00  0.00    +0.000 NA
BRANCH  17  24
ATOM     23  N   UNL     1      47.354   3.171   5.371  0.00  0.00    +0.000 N 
ATOM     24  C   UNL     1      47.350   2.361   6.473  0.00  0.00    +0.000 C 
ATOM     25  O   UNL     1      48.104   1.403   6.572  0.00  0.00    +0.000 OA
ATOM     26  H   UNL     1      48.011   2.990   4.627  0.00  0.00    +0.000 HD
ATOM     27  H   UNL     1      46.745   3.980   5.327  0.00  0.00    +0.000 HD
ENDBRANCH  17  24
ENDBRANCH  16  20
ENDBRANCH  15  16
ENDBRANCH   1  15
TORSDOF 7
ENDMDL
MODEL 4
REMARK VINA RESULT:    -7.367      3.638      7.553
REMARK INTER + INTRA:         -11.188
REMARK INTER:                 -10.353
REMARK INTRA:                  -0.835
REMARK UNBOUND:                -0.806
REMARK  Name = 
REMARK  7 active torsions:
REMARK  status: ('A' for Active; 'I' for Inactive)
REMARK    1  A    between atoms: C_2  and  C_4
REMARK    2  A    between atoms: C_7  and  O_8
REMARK    3  A    between atoms: O_8  and  C_9
REMARK    4  A    between atoms: C_9  and  C_10
REMARK    5  A    between atoms: C_10  and  C_11
REMARK    6  A    between atoms: C_16  and  C_17
REMARK    7  A    between atoms: C_17  and  C_18
REMARK                            x       y       z     vdW  Elec       q    Type
REMARK                         _______ _______ _______ _____ _____    ______ ____
ROOT
ATOM      1  C   UNL     1      46.336   7.452  11.503  0.00  0.00    +0.000 C 
ENDROOT
BRANCH   1   2
ATOM      2  C   UNL     1      45.259   6.421  11.287  0.00  0.00    +0.000 A 
ATOM      3  C   UNL     1      43.927   6.690  11.617  0.00  0.00    +0.000 A 
ATOM      4  C   UNL     1      42.968   5.694  11.468  0.00  0.00    +0.000 A 
ATOM      5  F   UNL     1      41.688   5.963  11.759  0.00  0.00    +0.000 F 
ATOM      6  C   UNL     1      43.313   4.419  11.027  0.00  0.00    +0.000 A 
ATOM      7  C   UNL     1      44.644   4.121  10.712  0.00  0.00    +0.000 A 
ATOM      8  C   UNL     1      45.600   5.144  10.811  0.00  0.00    +0.000 A 
BRANCH   7   9
ATOM      9  C   UNL     1      45.040   2.748  10.229  0.00  0.00    +0.000 C 
BRANCH   9  10
ATOM     10  C   UNL     1      45.005   2.456   8.715  0.00  0.00    +0.000 C 
ATOM     11  C   UNL     1      46.200   1.719   8.147  0.00  0.00    +0.000 C 
ATOM     12  C   UNL     1      46.946   2.744   7.319  0.00  0.00    +0.000 C 
ATOM     13  O   UNL     1      46.073   3.845   7.077  0.00  0.00    +0.000 OA
ATOM     14  C   UNL     1      44.862   3.670   7.812  0.00  0.00    +0.000 C 
ENDBRANCH   9  10
ENDBRANCH   7   9
ENDBRANCH   1   2
BRANCH   1  15
ATOM     15  C   UNL     1      46.600   7.672  12.994  0.00  0.00    +0.000 C 
BRANCH  15  16
ATOM     16  O   UNL     1      47.883   7.120  13.315  0.00  0.00    +0.000 OA
BRANCH  16  20
ATOM     17  C   UNL     1      47.781   4.326  16.260  0.00  0.00    +0.000 A 
ATOM     18  C   UNL     1      46.989   4.176  15.132  0.00  0.00    +0.000 A 
ATOM     19  N   UNL     1      46.987   5.080  14.117  0.00  0.00    +0.000 NA
ATOM     20  C   UNL     1      47.816   6.136  14.279  0.00  0.00    +0.000 A 
ATOM     21  C   UNL     1      48.616   6.280  15.409  0.00  0.00    +0.000 A 
ATOM     22  N   UNL     1      48.621   5.388  16.435  0.00  0.00    +0.000 NA
BRANCH  17  24
ATOM     23  N   UNL     1      48.864   3.096  18.047  0.00  0.00    +0.000 N 
ATOM     24  C   UNL     1      47.709   3.307  17.347  0.00  0.00    +0.000 C 
ATOM     25  O   UNL     1      46.679   2.701  17.605  0.00  0.00    +0.000 OA
ATOM     26  H   UNL     1      48.866   2.438  18.812  0.00  0.00    +0.000 HD
ATOM     27  H   UNL     1      49.696   3.637  17.838  0.00  0.00    +0.000 HD
ENDBRANCH  17  24
ENDBRANCH  16  20
ENDBRANCH  15  16
ENDBRANCH   1  15
TORSDOF 7
ENDMDL
MODEL 5
REMARK VINA RESULT:    -6.881      2.881      3.751
REMARK INTER + INTRA:         -10.503
REMARK INTER:                  -9.887
REMARK INTRA:                  -0.616
REMARK UNBOUND:                -0.806
REMARK  Name = 
REMARK  7 active torsions:
REMARK  status: ('A' for Active; 'I' for Inactive)
REMARK    1  A    between atoms: C_2  and  C_4
REMARK    2  A    between atoms: C_7  and  O_8
REMARK    3  A    between atoms: O_8  and  C_9
REMARK    4  A    between atoms: C_9  and  C_10
REMARK    5  A    between atoms: C_10  and  C_11
REMARK    6  A    between atoms: C_16  and  C_17
REMARK    7  A    between atoms: C_17  and  C_18
REMARK                            x       y       z     vdW  Elec       q    Type
REMARK                         _______ _______ _______ _____ _____    ______ ____
ROOT
ATOM      1  C   UNL     1      45.206   4.737  11.670  0.00  0.00    +0.000 C 
ENDROOT
BRANCH   1   2
ATOM      2  C   UNL     1      45.795   6.018  12.202  0.00  0.00    +0.000 A 
ATOM      3  C   UNL     1      45.041   7.194  12.248  0.00  0.00    +0.000 A 
ATOM      4  C   UNL     1      45.635   8.374  12.682  0.00  0.00    +0.000 A 
ATOM      5  F   UNL     1      44.902   9.493  12.751  0.00  0.00    +0.000 F 
ATOM      6  C   UNL     1      46.979   8.417  13.042  0.00  0.00    +0.000 A 
ATOM      7  C   UNL     1      47.759   7.256  12.983  0.00  0.00    +0.000 A 
ATOM      8  C   UNL     1      47.143   6.055  12.596  0.00  0.00    +0.000 A 
BRANCH   7   9
ATOM      9  C   UNL     1      49.217   7.277  13.370  0.00  0.00    +0.000 C 
BRANCH   9  10
ATOM     10  C   UNL     1      50.115   8.402  12.816  0.00  0.00    +0.000 C 
ATOM     11  C   UNL     1      50.342   8.401  11.319  0.00  0.00    +0.000 C 
ATOM     12  C   UNL     1      51.785   7.983  11.134  0.00  0.00    +0.000 C 
ATOM     13  O   UNL     1      52.457   8.129  12.383  0.00  0.00    +0.000 OA
ATOM     14  C   UNL     1      51.516   8.475  13.399  0.00  0.00    +0.000 C 
ENDBRANCH   9  10
ENDBRANCH   7   9
ENDBRANCH   1   2
BRANCH   1  15
ATOM     15  C   UNL     1      43.945   5.009  10.847  0.00  0.00    +0.000 C 
BRANCH  15  16
ATOM     16  O   UNL     1      43.643   3.837  10.079  0.00  0.00    +0.000 OA
BRANCH  16  20
ATOM     17  C   UNL     1      46.623   2.629   7.597  0.00  0.00    +0.000 A 
ATOM     18  C   UNL     1      46.156   3.933   7.539  0.00  0.00    +0.000 A 
ATOM     19  N   UNL     1      45.163   4.389   8.348  0.00  0.00    +0.000 NA
ATOM     20  C   UNL     1      44.663   3.484   9.219  0.00  0.00    +0.000 A 
ATOM     21  C   UNL     1      45.139   2.178   9.281  0.00  0.00    +0.000 A 
ATOM     22  N   UNL     1      46.125   1.707   8.473  0.00  0.00    +0.000 NA
BRANCH  17  24
ATOM     23  N   UNL     1      47.903   2.997   5.572  0.00  0.00    +0.000 N 
ATOM     24  C   UNL     1      47.695   2.193   6.658  0.00  0.00    +0.000 C 
ATOM     25  O   UNL     1      48.357   1.182   6.847  0.00  0.00    +0.000 OA
ATOM     26  H   UNL     1      48.636   2.766   4.918  0.00  0.00    +0.000 HD
ATOM     27  H   UNL     1      47.366   3.849   5.455  0.00  0.00    +0.000 HD
ENDBRANCH  17  24
ENDBRANCH  16  20
ENDBRANCH  15  16
ENDBRANCH   1  15
TORSDOF 7
ENDMDL
MODEL 6
REMARK VINA RESULT:    -6.785      3.933      7.286
REMARK INTER + INTRA:         -10.368
REMARK INTER:                  -9.225
REMARK INTRA:                  -1.143
REMARK UNBOUND:                -0.806
REMARK  Name = 
REMARK  7 active torsions:
REMARK  status: ('A' for Active; 'I' for Inactive)
REMARK    1  A    between atoms: C_2  and  C_4
REMARK    2  A    between atoms: C_7  and  O_8
REMARK    3  A    between atoms: O_8  and  C_9
REMARK    4  A    between atoms: C_9  and  C_10
REMARK    5  A    between atoms: C_10  and  C_11
REMARK    6  A    between atoms: C_16  and  C_17
REMARK    7  A    between atoms: C_17  and  C_18
REMARK                            x       y       z     vdW  Elec       q    Type
REMARK                         _______ _______ _______ _____ _____    ______ ____
ROOT
ATOM      1  C   UNL     1      49.030   8.417  12.272  0.00  0.00    +0.000 C 
ENDROOT
BRANCH   1   2
ATOM      2  C   UNL     1      47.550   8.322  12.002  0.00  0.00    +0.000 A 
ATOM      3  C   UNL     1      46.694   9.389  12.292  0.00  0.00    +0.000 A 
ATOM      4  C   UNL     1      45.326   9.244  12.094  0.00  0.00    +0.000 A 
ATOM      5  F   UNL     1      44.511  10.278  12.346  0.00  0.00    +0.000 F 
ATOM      6  C   UNL     1      44.783   8.044  11.643  0.00  0.00    +0.000 A 
ATOM      7  C   UNL     1      45.619   6.955  11.369  0.00  0.00    +0.000 A 
ATOM      8  C   UNL     1      47.005   7.122  11.517  0.00  0.00    +0.000 A 
BRANCH   7   9
ATOM      9  C   UNL     1      45.055   5.645  10.877  0.00  0.00    +0.000 C 
BRANCH   9  10
ATOM     10  C   UNL     1      45.243   4.384  11.745  0.00  0.00    +0.000 C 
ATOM     11  C   UNL     1      44.655   3.101  11.198  0.00  0.00    +0.000 C 
ATOM     12  C   UNL     1      43.464   2.797  12.082  0.00  0.00    +0.000 C 
ATOM     13  O   UNL     1      43.581   3.574  13.272  0.00  0.00    +0.000 OA
ATOM     14  C   UNL     1      44.687   4.468  13.157  0.00  0.00    +0.000 C 
ENDBRANCH   9  10
ENDBRANCH   7   9
ENDBRANCH   1   2
BRANCH   1  15
ATOM     15  C   UNL     1      49.503   7.275  13.174  0.00  0.00    +0.000 C 
BRANCH  15  16
ATOM     16  O   UNL     1      49.223   7.625  14.535  0.00  0.00    +0.000 OA
BRANCH  16  20
ATOM     17  C   UNL     1      47.963   4.554  16.874  0.00  0.00    +0.000 A 
ATOM     18  C   UNL     1      47.567   4.624  15.547  0.00  0.00    +0.000 A 
ATOM     19  N   UNL     1      47.962   5.629  14.722  0.00  0.00    +0.000 NA
ATOM     20  C   UNL     1      48.773   6.555  15.281  0.00  0.00    +0.000 A 
ATOM     21  C   UNL     1      49.176   6.478  16.610  0.00  0.00    +0.000 A 
ATOM     22  N   UNL     1      48.782   5.483  17.449  0.00  0.00    +0.000 NA
BRANCH  17  24
ATOM     23  N   UNL     1      48.241   3.122  18.810  0.00  0.00    +0.000 N 
ATOM     24  C   UNL     1      47.467   3.437  17.729  0.00  0.00    +0.000 C 
ATOM     25  O   UNL     1      46.427   2.841  17.484  0.00  0.00    +0.000 OA
ATOM     26  H   UNL     1      47.939   2.392  19.439  0.00  0.00    +0.000 HD
ATOM     27  H   UNL     1      49.080   3.653  19.012  0.00  0.00    +0.000 HD
ENDBRANCH  17  24
ENDBRANCH  16  20
ENDBRANCH  15  16
ENDBRANCH   1  15
TORSDOF 7
ENDMDL
MODEL 7
REMARK VINA RESULT:    -6.618      3.598      7.643
REMARK INTER + INTRA:         -10.133
REMARK INTER:                  -9.160
REMARK INTRA:                  -0.973
REMARK UNBOUND:                -0.806
REMARK  Name = 
REMARK  7 active torsions:
REMARK  status: ('A' for Active; 'I' for Inactive)
REMARK    1  A    between atoms: C_2  and  C_4
REMARK    2  A    between atoms: C_7  and  O_8
REMARK    3  A    between atoms: O_8  and  C_9
REMARK    4  A    between atoms: C_9  and  C_10
REMARK    5  A    between atoms: C_10  and  C_11
REMARK    6  A    between atoms: C_16  and  C_17
REMARK    7  A    between atoms: C_17  and  C_18
REMARK                            x       y       z     vdW  Elec       q    Type
REMARK                         _______ _______ _______ _____ _____    ______ ____
ROOT
ATOM      1  C   UNL     1      46.161   3.661  13.469  0.00  0.00    +0.000 C 
ENDROOT
BRANCH   1   2
ATOM      2  C   UNL     1      45.291   3.953  12.273  0.00  0.00    +0.000 A 
ATOM      3  C   UNL     1      44.203   4.826  12.370  0.00  0.00    +0.000 A 
ATOM      4  C   UNL     1      43.380   5.023  11.266  0.00  0.00    +0.000 A 
ATOM      5  F   UNL     1      42.355   5.881  11.353  0.00  0.00    +0.000 F 
ATOM      6  C   UNL     1      43.597   4.340  10.072  0.00  0.00    +0.000 A 
ATOM      7  C   UNL     1      44.667   3.444   9.960  0.00  0.00    +0.000 A 
ATOM      8  C   UNL     1      45.528   3.290  11.058  0.00  0.00    +0.000 A 
BRANCH   7   9
ATOM      9  C   UNL     1      44.925   2.696   8.676  0.00  0.00    +0.000 C 
BRANCH   9  10
ATOM     10  C   UNL     1      46.362   2.654   8.117  0.00  0.00    +0.000 C 
ATOM     11  C   UNL     1      46.660   3.589   6.964  0.00  0.00    +0.000 C 
ATOM     12  C   UNL     1      46.808   2.695   5.752  0.00  0.00    +0.000 C 
ATOM     13  O   UNL     1      46.999   1.356   6.204  0.00  0.00    +0.000 OA
ATOM     14  C   UNL     1      46.838   1.299   7.622  0.00  0.00    +0.000 C 
ENDBRANCH   9  10
ENDBRANCH   7   9
ENDBRANCH   1   2
BRANCH   1  15
ATOM     15  C   UNL     1      46.790   4.943  14.020  0.00  0.00    +0.000 C 
BRANCH  15  16
ATOM     16  O   UNL     1      47.800   5.383  13.104  0.00  0.00    +0.000 OA
BRANCH  16  20
ATOM     17  C   UNL     1      47.635   9.316  12.103  0.00  0.00    +0.000 A 
ATOM     18  C   UNL     1      46.532   8.696  12.670  0.00  0.00    +0.000 A 
ATOM     19  N   UNL     1      46.535   7.384  13.025  0.00  0.00    +0.000 NA
ATOM     20  C   UNL     1      47.692   6.723  12.793  0.00  0.00    +0.000 A 
ATOM     21  C   UNL     1      48.800   7.349  12.231  0.00  0.00    +0.000 A 
ATOM     22  N   UNL     1      48.807   8.658  11.863  0.00  0.00    +0.000 NA
BRANCH  17  24
ATOM     23  N   UNL     1      46.580  11.485  12.341  0.00  0.00    +0.000 N 
ATOM     24  C   UNL     1      47.547  10.752  11.712  0.00  0.00    +0.000 C 
ATOM     25  O   UNL     1      48.298  11.250  10.884  0.00  0.00    +0.000 OA
ATOM     26  H   UNL     1      46.494  12.470  12.137  0.00  0.00    +0.000 HD
ATOM     27  H   UNL     1      45.993  11.059  13.049  0.00  0.00    +0.000 HD
ENDBRANCH  17  24
ENDBRANCH  16  20
ENDBRANCH  15  16
ENDBRANCH   1  15
TORSDOF 7
ENDMDL
MODEL 8
REMARK VINA RESULT:    -6.527      4.149      8.705
REMARK INTER + INTRA:         -10.004
REMARK INTER:                  -9.396
REMARK INTRA:                  -0.607
REMARK UNBOUND:                -0.806
REMARK  Name = 
REMARK  7 active torsions:
REMARK  status: ('A' for Active; 'I' for Inactive)
REMARK    1  A    between atoms: C_2  and  C_4
REMARK    2  A    between atoms: C_7  and  O_8
REMARK    3  A    between atoms: O_8  and  C_9
REMARK    4  A    between atoms: C_9  and  C_10
REMARK    5  A    between atoms: C_10  and  C_11
REMARK    6  A    between atoms: C_16  and  C_17
REMARK    7  A    between atoms: C_17  and  C_18
REMARK                            x       y       z     vdW  Elec       q    Type
REMARK                         _______ _______ _______ _____ _____    ______ ____
ROOT
ATOM      1  C   UNL     1      46.218   3.203  13.266  0.00  0.00    +0.000 C 
ENDROOT
BRANCH   1   2
ATOM      2  C   UNL     1      45.306   3.670  12.160  0.00  0.00    +0.000 A 
ATOM      3  C   UNL     1      44.188   4.464  12.435  0.00  0.00    +0.000 A 
ATOM      4  C   UNL     1      43.330   4.823  11.401  0.00  0.00    +0.000 A 
ATOM      5  F   UNL     1      42.276   5.607  11.663  0.00  0.00    +0.000 F 
ATOM      6  C   UNL     1      43.543   4.379  10.099  0.00  0.00    +0.000 A 
ATOM      7  C   UNL     1      44.643   3.565   9.805  0.00  0.00    +0.000 A 
ATOM      8  C   UNL     1      45.537   3.250  10.840  0.00  0.00    +0.000 A 
BRANCH   7   9
ATOM      9  C   UNL     1      44.896   3.075   8.401  0.00  0.00    +0.000 C 
BRANCH   9  10
ATOM     10  C   UNL     1      46.353   2.887   7.932  0.00  0.00    +0.000 C 
ATOM     11  C   UNL     1      46.755   3.631   6.677  0.00  0.00    +0.000 C 
ATOM     12  C   UNL     1      46.912   2.566   5.613  0.00  0.00    +0.000 C 
ATOM     13  O   UNL     1      47.008   1.299   6.259  0.00  0.00    +0.000 OA
ATOM     14  C   UNL     1      46.778   1.454   7.660  0.00  0.00    +0.000 C 
ENDBRANCH   9  10
ENDBRANCH   7   9
ENDBRANCH   1   2
BRANCH   1  15
ATOM     15  C   UNL     1      46.795   4.387  14.045  0.00  0.00    +0.000 C 
BRANCH  15  16
ATOM     16  O   UNL     1      46.471   4.220  15.431  0.00  0.00    +0.000 OA
BRANCH  16  20
ATOM     17  C   UNL     1      49.523   5.002  17.994  0.00  0.00    +0.000 A 
ATOM     18  C   UNL     1      49.450   5.663  16.777  0.00  0.00    +0.000 A 
ATOM     19  N   UNL     1      48.450   5.440  15.885  0.00  0.00    +0.000 NA
ATOM     20  C   UNL     1      47.524   4.532  16.266  0.00  0.00    +0.000 A 
ATOM     21  C   UNL     1      47.593   3.876  17.492  0.00  0.00    +0.000 A 
ATOM     22  N   UNL     1      48.593   4.083  18.390  0.00  0.00    +0.000 NA
BRANCH  17  24
ATOM     23  N   UNL     1      50.873   4.358  19.901  0.00  0.00    +0.000 N 
ATOM     24  C   UNL     1      50.666   5.278  18.911  0.00  0.00    +0.000 C 
ATOM     25  O   UNL     1      51.382   6.261  18.783  0.00  0.00    +0.000 OA
ATOM     26  H   UNL     1      51.651   4.479  20.533  0.00  0.00    +0.000 HD
ATOM     27  H   UNL     1      50.289   3.533  19.965  0.00  0.00    +0.000 HD
ENDBRANCH  17  24
ENDBRANCH  16  20
ENDBRANCH  15  16
ENDBRANCH   1  15
TORSDOF 7
ENDMDL
MODEL 9
REMARK VINA RESULT:    -6.481      4.143      7.668
REMARK INTER + INTRA:          -9.939
REMARK INTER:                  -9.151
REMARK INTRA:                  -0.788
REMARK UNBOUND:                -0.806
REMARK  Name = 
REMARK  7 active torsions:
REMARK  status: ('A' for Active; 'I' for Inactive)
REMARK    1  A    between atoms: C_2  and  C_4
REMARK    2  A    between atoms: C_7  and  O_8
REMARK    3  A    between atoms: O_8  and  C_9
REMARK    4  A    between atoms: C_9  and  C_10
REMARK    5  A    between atoms: C_10  and  C_11
REMARK    6  A    between atoms: C_16  and  C_17
REMARK    7  A    between atoms: C_17  and  C_18
REMARK                            x       y       z     vdW  Elec       q    Type
REMARK                         _______ _______ _______ _____ _____    ______ ____
ROOT
ATOM      1  C   UNL     1      48.091   6.091  14.675  0.00  0.00    +0.000 C 
ENDROOT
BRANCH   1   2
ATOM      2  C   UNL     1      47.275   6.655  13.540  0.00  0.00    +0.000 A 
ATOM      3  C   UNL     1      46.983   8.021  13.471  0.00  0.00    +0.000 A 
ATOM      4  C   UNL     1      46.172   8.498  12.447  0.00  0.00    +0.000 A 
ATOM      5  F   UNL     1      45.918   9.811  12.367  0.00  0.00    +0.000 F 
ATOM      6  C   UNL     1      45.614   7.637  11.505  0.00  0.00    +0.000 A 
ATOM      7  C   UNL     1      45.875   6.263  11.569  0.00  0.00    +0.000 A 
ATOM      8  C   UNL     1      46.738   5.792  12.571  0.00  0.00    +0.000 A 
BRANCH   7   9
ATOM      9  C   UNL     1      45.284   5.312  10.558  0.00  0.00    +0.000 C 
BRANCH   9  10
ATOM     10  C   UNL     1      43.991   4.553  10.922  0.00  0.00    +0.000 C 
ATOM     11  C   UNL     1      42.935   5.346  11.663  0.00  0.00    +0.000 C 
ATOM     12  C   UNL     1      42.938   4.795  13.073  0.00  0.00    +0.000 C 
ATOM     13  O   UNL     1      43.612   3.539  13.061  0.00  0.00    +0.000 OA
ATOM     14  C   UNL     1      44.174   3.306  11.770  0.00  0.00    +0.000 C 
ENDBRANCH   9  10
ENDBRANCH   7   9
ENDBRANCH   1   2
BRANCH   1  15
ATOM     15  C   UNL     1      47.377   4.909  15.335  0.00  0.00    +0.000 C 
BRANCH  15  16
ATOM     16  O   UNL     1      47.791   4.838  16.706  0.00  0.00    +0.000 OA
BRANCH  16  20
ATOM     17  C   UNL     1      50.933   2.359  17.399  0.00  0.00    +0.000 A 
ATOM     18  C   UNL     1      49.831   1.903  16.691  0.00  0.00    +0.000 A 
ATOM     19  N   UNL     1      48.755   2.692  16.430  0.00  0.00    +0.000 NA
ATOM     20  C   UNL     1      48.834   3.956  16.904  0.00  0.00    +0.000 A 
ATOM     21  C   UNL     1      49.944   4.413  17.607  0.00  0.00    +0.000 A 
ATOM     22  N   UNL     1      51.022   3.633  17.882  0.00  0.00    +0.000 NA
BRANCH  17  24
ATOM     23  N   UNL     1      51.721   0.196  18.158  0.00  0.00    +0.000 N 
ATOM     24  C   UNL     1      52.065   1.427  17.672  0.00  0.00    +0.000 C 
ATOM     25  O   UNL     1      53.229   1.739  17.469  0.00  0.00    +0.000 OA
ATOM     26  H   UNL     1      52.445  -0.485  18.334  0.00  0.00    +0.000 HD
ATOM     27  H   UNL     1      50.747  -0.052  18.285  0.00  0.00    +0.000 HD
ENDBRANCH  17  24
ENDBRANCH  16  20
ENDBRANCH  15  16
ENDBRANCH   1  15
TORSDOF 7
ENDMDL
