MODEL 1
REMARK VINA RESULT:    -8.550      0.000      0.000
REMARK INTER + INTRA:         -12.513
REMARK INTER:                 -11.548
REMARK INTRA:                  -0.965
REMARK UNBOUND:                -0.965
REMARK  Name = 
REMARK  7 active torsions:
REMARK  status: ('A' for Active; 'I' for Inactive)
REMARK    1  A    between atoms: C_1  and  O_2
REMARK    2  A    between atoms: O_2  and  C_3
REMARK    3  A    between atoms: C_6  and  C_7
REMARK    4  A    between atoms: C_11  and  N_12
REMARK    5  A    between atoms: N_12  and  C_13
REMARK    6  A    between atoms: C_13  and  C_14
REMARK    7  A    between atoms: C_18  and  C_19
REMARK                            x       y       z     vdW  Elec       q    Type
REMARK                         _______ _______ _______ _____ _____    ______ ____
ROOT
ATOM      1  N   UNL     1      43.794   6.608  12.423  0.00  0.00    +0.000 N 
ATOM      2  H   UNL     1      43.203   6.157  13.113  0.00  0.00    +0.000 HD
ENDROOT
BRANCH   1   8
ATOM      3  C   UNL     1      46.211   7.347  12.414  0.00  0.00    +0.000 A 
ATOM      4  C   UNL     1      47.527   7.072  12.808  0.00  0.00    +0.000 A 
ATOM      5  C   UNL     1      47.815   5.961  13.597  0.00  0.00    +0.000 A 
ATOM      6  C   UNL     1      46.791   5.116  14.034  0.00  0.00    +0.000 A 
ATOM      7  C   UNL     1      45.476   5.391  13.635  0.00  0.00    +0.000 A 
ATOM      8  C   UNL     1      45.163   6.458  12.767  0.00  0.00    +0.000 A 
BRANCH   6   9
ATOM      9  C   UNL     1      47.150   3.954  14.897  0.00  0.00    +0.000 C 
ATOM     10  N   UNL     1      46.972   4.057  16.252  0.00  0.00    +0.000 N 
ATOM     11  O   UNL     1      47.582   2.913  14.417  0.00  0.00    +0.000 OA
ATOM     12  H   UNL     1      46.598   4.853  16.738  0.00  0.00    +0.000 HD
ATOM     13  H   UNL     1      47.185   3.231  16.799  0.00  0.00    +0.000 HD
ENDBRANCH   6   9
BRANCH   3  15
ATOM     14  C   UNL     1      46.589   9.690  12.165  0.00  0.00    +0.000 C 
ATOM     15  O   UNL     1      45.875   8.520  11.795  0.00  0.00    +0.000 OA
ENDBRANCH   3  15
ENDBRANCH   1   8
BRANCH   1  16
ATOM     16  C   UNL     1      43.391   6.253  11.060  0.00  0.00    +0.000 C 
BRANCH  16  17
ATOM     17  C   UNL     1      43.587   4.789  10.749  0.00  0.00    +0.000 A 
ATOM     18  C   UNL     1      43.100   3.755  11.547  0.00  0.00    +0.000 A 
ATOM     19  N   UNL     1      43.310   2.434  11.285  0.00  0.00    +0.000 NA
ATOM     20  C   UNL     1      44.015   2.131  10.184  0.00  0.00    +0.000 A 
ATOM     21  C   UNL     1      44.557   3.078   9.318  0.00  0.00    +0.000 A 
ATOM     22  C   UNL     1      44.336   4.419   9.636  0.00  0.00    +0.000 A 
BRANCH  21  23
ATOM     23  C   UNL     1      45.307   2.660   8.074  0.00  0.00    +0.000 C 
ATOM     24  C   UNL     1      46.191   1.431   8.336  0.00  0.00    +0.000 C 
ATOM     25  C   UNL     1      47.003   1.049   7.102  0.00  0.00    +0.000 C 
ATOM     26  C   UNL     1      47.827   2.227   6.592  0.00  0.00    +0.000 C 
ATOM     27  C   UNL     1      46.943   3.433   6.293  0.00  0.00    +0.000 C 
ATOM     28  C   UNL     1      46.123   3.839   7.514  0.00  0.00    +0.000 C 
ENDBRANCH  21  23
ENDBRANCH  16  17
ENDBRANCH   1  16
TORSDOF 6
ENDMDL
MODEL 2
REMARK VINA RESULT:    -8.208      1.584      3.277
REMARK INTER + INTRA:         -12.052
REMARK INTER:                 -10.981
REMARK INTRA:                  -1.071
REMARK UNBOUND:                -0.965
REMARK  Name = 
REMARK  7 active torsions:
REMARK  status: ('A' for Active; 'I' for Inactive)
REMARK    1  A    between atoms: C_1  and  O_2
REMARK    2  A    between atoms: O_2  and  C_3
REMARK    3  A    between atoms: C_6  and  C_7
REMARK    4  A    between atoms: C_11  and  N_12
REMARK    5  A    between atoms: N_12  and  C_13
REMARK    6  A    between atoms: C_13  and  C_14
REMARK    7  A    between atoms: C_18  and  C_19
REMARK                            x       y       z     vdW  Elec       q    Type
REMARK                         _______ _______ _______ _____ _____    ______ ____
ROOT
ATOM      1  N   UNL     1      44.346   6.747  12.640  0.00  0.00    +0.000 N 
ATOM      2  H   UNL     1      44.121   6.037  13.327  0.00  0.00    +0.000 HD
ENDROOT
BRANCH   1   8
ATOM      3  C   UNL     1      46.770   6.073  12.887  0.00  0.00    +0.000 A 
ATOM      4  C   UNL     1      48.111   6.478  12.879  0.00  0.00    +0.000 A 
ATOM      5  C   UNL     1      48.453   7.795  12.578  0.00  0.00    +0.000 A 
ATOM      6  C   UNL     1      47.465   8.728  12.250  0.00  0.00    +0.000 A 
ATOM      7  C   UNL     1      46.124   8.321  12.263  0.00  0.00    +0.000 A 
ATOM      8  C   UNL     1      45.740   7.019  12.647  0.00  0.00    +0.000 A 
BRANCH   6   9
ATOM      9  C   UNL     1      47.888  10.117  11.912  0.00  0.00    +0.000 C 
ATOM     10  N   UNL     1      47.305  11.165  12.577  0.00  0.00    +0.000 N 
ATOM     11  O   UNL     1      48.750  10.335  11.070  0.00  0.00    +0.000 OA
ATOM     12  H   UNL     1      46.613  11.091  13.302  0.00  0.00    +0.000 HD
ATOM     13  H   UNL     1      47.651  12.090  12.352  0.00  0.00    +0.000 HD
ENDBRANCH   6   9
BRANCH   3  15
ATOM     14  C   UNL     1      47.005   4.004  14.052  0.00  0.00    +0.000 C 
ATOM     15  O   UNL     1      46.416   4.756  13.002  0.00  0.00    +0.000 OA
ENDBRANCH   3  15
ENDBRANCH   1   8
BRANCH   1  16
ATOM     16  C   UNL     1      43.714   6.464  11.350  0.00  0.00    +0.000 C 
BRANCH  16  17
ATOM     17  C   UNL     1      43.770   5.003  10.973  0.00  0.00    +0.000 A 
ATOM     18  C   UNL     1      43.176   3.987  11.719  0.00  0.00    +0.000 A 
ATOM     19  N   UNL     1      43.259   2.665  11.398  0.00  0.00    +0.000 NA
ATOM     20  C   UNL     1      43.943   2.345  10.289  0.00  0.00    +0.000 A 
ATOM     21  C   UNL     1      44.584   3.273   9.470  0.00  0.00    +0.000 A 
ATOM     22  C   UNL     1      44.490   4.613   9.848  0.00  0.00    +0.000 A 
BRANCH  21  23
ATOM     23  C   UNL     1      45.302   2.840   8.212  0.00  0.00    +0.000 C 
ATOM     24  C   UNL     1      46.088   1.538   8.433  0.00  0.00    +0.000 C 
ATOM     25  C   UNL     1      46.871   1.136   7.187  0.00  0.00    +0.000 C 
ATOM     26  C   UNL     1      47.786   2.264   6.718  0.00  0.00    +0.000 C 
ATOM     27  C   UNL     1      46.999   3.544   6.460  0.00  0.00    +0.000 C 
ATOM     28  C   UNL     1      46.209   3.970   7.694  0.00  0.00    +0.000 C 
ENDBRANCH  21  23
ENDBRANCH  16  17
ENDBRANCH   1  16
TORSDOF 6
ENDMDL
MODEL 3
REMARK VINA RESULT:    -8.031      1.821      2.228
REMARK INTER + INTRA:         -11.813
REMARK INTER:                 -10.857
REMARK INTRA:                  -0.956
REMARK UNBOUND:                -0.965
REMARK  Name = 
REMARK  7 active torsions:
REMARK  status: ('A' for Active; 'I' for Inactive)
REMARK    1  A    between atoms: C_1  and  O_2
REMARK    2  A    between atoms: O_2  and  C_3
REMARK    3  A    between atoms: C_6  and  C_7
REMARK    4  A    between atoms: C_11  and  N_12
REMARK    5  A    between atoms: N_12  and  C_13
REMARK    6  A    between atoms: C_13  and  C_14
REMARK    7  A    between atoms: C_18  and  C_19
REMARK                            x       y       z     vdW  Elec       q    Type
REMARK                         _______ _______ _______ _____ _____    ______ ____
ROOT
ATOM      1  N   UNL     1      44.200   6.938  12.383  0.00  0.00    +0.000 N 
ATOM      2  H   UNL     1      44.327   6.136  12.990  0.00  0.00    +0.000 HD
ENDROOT
BRANCH   1   8
ATOM      3  C   UNL     1      45.439   9.122  12.090  0.00  0.00    +0.000 A 
ATOM      4  C   UNL     1      46.675   9.780  12.072  0.00  0.00    +0.000 A 
ATOM      5  C   UNL     1      47.850   9.091  12.365  0.00  0.00    +0.000 A 
ATOM      6  C   UNL     1      47.813   7.738  12.711  0.00  0.00    +0.000 A 
ATOM      7  C   UNL     1      46.575   7.081  12.724  0.00  0.00    +0.000 A 
ATOM      8  C   UNL     1      45.379   7.728  12.349  0.00  0.00    +0.000 A 
BRANCH   6   9
ATOM      9  C   UNL     1      49.097   7.054  13.039  0.00  0.00    +0.000 C 
ATOM     10  N   UNL     1      50.132   7.128  12.144  0.00  0.00    +0.000 N 
ATOM     11  O   UNL     1      49.245   6.448  14.093  0.00  0.00    +0.000 OA
ATOM     12  H   UNL     1      50.121   7.623  11.269  0.00  0.00    +0.000 HD
ATOM     13  H   UNL     1      51.002   6.690  12.423  0.00  0.00    +0.000 HD
ENDBRANCH   6   9
BRANCH   3  15
ATOM     14  C   UNL     1      43.832  10.188  10.685  0.00  0.00    +0.000 C 
ATOM     15  O   UNL     1      44.257   9.805  11.984  0.00  0.00    +0.000 OA
ENDBRANCH   3  15
ENDBRANCH   1   8
BRANCH   1  16
ATOM     16  C   UNL     1      43.602   6.551  11.103  0.00  0.00    +0.000 C 
BRANCH  16  17
ATOM     17  C   UNL     1      43.710   5.071  10.825  0.00  0.00    +0.000 A 
ATOM     18  C   UNL     1      43.167   4.085  11.647  0.00  0.00    +0.000 A 
ATOM     19  N   UNL     1      43.298   2.750  11.414  0.00  0.00    +0.000 NA
ATOM     20  C   UNL     1      43.980   2.381  10.319  0.00  0.00    +0.000 A 
ATOM     21  C   UNL     1      44.573   3.275   9.430  0.00  0.00    +0.000 A 
ATOM     22  C   UNL     1      44.432   4.634   9.718  0.00  0.00    +0.000 A 
BRANCH  21  23
ATOM     23  C   UNL     1      45.292   2.786   8.193  0.00  0.00    +0.000 C 
ATOM     24  C   UNL     1      46.104   1.513   8.481  0.00  0.00    +0.000 C 
ATOM     25  C   UNL     1      46.887   1.056   7.254  0.00  0.00    +0.000 C 
ATOM     26  C   UNL     1      47.777   2.173   6.716  0.00  0.00    +0.000 C 
ATOM     27  C   UNL     1      46.965   3.422   6.393  0.00  0.00    +0.000 C 
ATOM     28  C   UNL     1      46.174   3.902   7.606  0.00  0.00    +0.000 C 
ENDBRANCH  21  23
ENDBRANCH  16  17
ENDBRANCH   1  16
TORSDOF 6
ENDMDL
MODEL 4
REMARK VINA RESULT:    -7.818      3.074      6.980
REMARK INTER + INTRA:         -11.526
REMARK INTER:                 -11.038
REMARK INTRA:                  -0.487
REMARK UNBOUND:                -0.965
REMARK  Name = 
REMARK  7 active torsions:
REMARK  status: ('A' for Active; 'I' for Inactive)
REMARK    1  A    between atoms: C_1  and  O_2
REMARK    2  A    between atoms: O_2  and  C_3
REMARK    3  A    between atoms: C_6  and  C_7
REMARK    4  A    between atoms: C_11  and  N_12
REMARK    5  A    between atoms: N_12  and  C_13
REMARK    6  A    between atoms: C_13  and  C_14
REMARK    7  A    between atoms: C_18  and  C_19
REMARK                            x       y       z     vdW  Elec       q    Type
REMARK                         _______ _______ _______ _____ _____    ______ ____
ROOT
ATOM      1  N   UNL     1      45.097   5.500   9.539  0.00  0.00    +0.000 N 
ATOM      2  H   UNL     1      45.881   6.068   9.238  0.00  0.00    +0.000 HD
ENDROOT
BRANCH   1   8
ATOM      3  C   UNL     1      44.551   3.033   9.624  0.00  0.00    +0.000 A 
ATOM      4  C   UNL     1      44.843   1.746   9.154  0.00  0.00    +0.000 A 
ATOM      5  C   UNL     1      45.806   1.553   8.166  0.00  0.00    +0.000 A 
ATOM      6  C   UNL     1      46.478   2.643   7.606  0.00  0.00    +0.000 A 
ATOM      7  C   UNL     1      46.187   3.929   8.082  0.00  0.00    +0.000 A 
ATOM      8  C   UNL     1      45.280   4.150   9.139  0.00  0.00    +0.000 A 
BRANCH   6   9
ATOM      9  C   UNL     1      47.482   2.383   6.535  0.00  0.00    +0.000 C 
ATOM     10  N   UNL     1      47.407   3.101   5.370  0.00  0.00    +0.000 N 
ATOM     11  O   UNL     1      48.375   1.557   6.685  0.00  0.00    +0.000 OA
ATOM     12  H   UNL     1      46.734   3.817   5.163  0.00  0.00    +0.000 HD
ATOM     13  H   UNL     1      48.134   2.927   4.686  0.00  0.00    +0.000 HD
ENDBRANCH   6   9
BRANCH   3  15
ATOM     14  C   UNL     1      43.424   2.530  11.666  0.00  0.00    +0.000 C 
ATOM     15  O   UNL     1      43.492   3.272  10.458  0.00  0.00    +0.000 OA
ENDBRANCH   3  15
ENDBRANCH   1   8
BRANCH   1  16
ATOM     16  C   UNL     1      44.758   5.755  10.941  0.00  0.00    +0.000 C 
BRANCH  16  17
ATOM     17  C   UNL     1      45.972   5.842  11.835  0.00  0.00    +0.000 A 
ATOM     18  C   UNL     1      46.296   4.888  12.798  0.00  0.00    +0.000 A 
ATOM     19  N   UNL     1      47.371   4.987  13.629  0.00  0.00    +0.000 NA
ATOM     20  C   UNL     1      48.159   6.063  13.487  0.00  0.00    +0.000 A 
ATOM     21  C   UNL     1      47.932   7.083  12.566  0.00  0.00    +0.000 A 
ATOM     22  C   UNL     1      46.807   6.952  11.749  0.00  0.00    +0.000 A 
BRANCH  21  23
ATOM     23  C   UNL     1      48.888   8.247  12.437  0.00  0.00    +0.000 C 
ATOM     24  C   UNL     1      48.160   9.528  12.001  0.00  0.00    +0.000 C 
ATOM     25  C   UNL     1      49.132  10.687  11.802  0.00  0.00    +0.000 C 
ATOM     26  C   UNL     1      50.241  10.319  10.821  0.00  0.00    +0.000 C 
ATOM     27  C   UNL     1      50.990   9.070  11.275  0.00  0.00    +0.000 C 
ATOM     28  C   UNL     1      50.040   7.894  11.478  0.00  0.00    +0.000 C 
ENDBRANCH  21  23
ENDBRANCH  16  17
ENDBRANCH   1  16
TORSDOF 6
ENDMDL
MODEL 5
REMARK VINA RESULT:    -7.547      3.009      7.339
REMARK INTER + INTRA:         -11.159
REMARK INTER:                 -10.790
REMARK INTRA:                  -0.369
REMARK UNBOUND:                -0.965
REMARK  Name = 
REMARK  7 active torsions:
REMARK  status: ('A' for Active; 'I' for Inactive)
REMARK    1  A    between atoms: C_1  and  O_2
REMARK    2  A    between atoms: O_2  and  C_3
REMARK    3  A    between atoms: C_6  and  C_7
REMARK    4  A    between atoms: C_11  and  N_12
REMARK    5  A    between atoms: N_12  and  C_13
REMARK    6  A    between atoms: C_13  and  C_14
REMARK    7  A    between atoms: C_18  and  C_19
REMARK                            x       y       z     vdW  Elec       q    Type
REMARK                         _______ _______ _______ _____ _____    ______ ____
ROOT
ATOM      1  N   UNL     1      45.261   5.691   9.694  0.00  0.00    +0.000 N 
ATOM      2  H   UNL     1      46.077   6.213   9.395  0.00  0.00    +0.000 HD
ENDROOT
BRANCH   1   8
ATOM      3  C   UNL     1      44.551   3.265   9.725  0.00  0.00    +0.000 A 
ATOM      4  C   UNL     1      44.749   1.974   9.218  0.00  0.00    +0.000 A 
ATOM      5  C   UNL     1      45.683   1.743   8.211  0.00  0.00    +0.000 A 
ATOM      6  C   UNL     1      46.420   2.800   7.669  0.00  0.00    +0.000 A 
ATOM      7  C   UNL     1      46.223   4.089   8.181  0.00  0.00    +0.000 A 
ATOM      8  C   UNL     1      45.347   4.343   9.258  0.00  0.00    +0.000 A 
BRANCH   6   9
ATOM      9  C   UNL     1      47.390   2.501   6.577  0.00  0.00    +0.000 C 
ATOM     10  N   UNL     1      47.303   3.205   5.404  0.00  0.00    +0.000 N 
ATOM     11  O   UNL     1      48.265   1.655   6.715  0.00  0.00    +0.000 OA
ATOM     12  H   UNL     1      46.642   3.936   5.204  0.00  0.00    +0.000 HD
ATOM     13  H   UNL     1      48.007   3.005   4.704  0.00  0.00    +0.000 HD
ENDBRANCH   6   9
BRANCH   3  15
ATOM     14  C   UNL     1      43.330   2.693  11.694  0.00  0.00    +0.000 C 
ATOM     15  O   UNL     1      43.522   3.553  10.580  0.00  0.00    +0.000 OA
ENDBRANCH   3  15
ENDBRANCH   1   8
BRANCH   1  16
ATOM     16  C   UNL     1      44.961   5.931  11.108  0.00  0.00    +0.000 C 
BRANCH  16  17
ATOM     17  C   UNL     1      46.195   6.200  11.936  0.00  0.00    +0.000 A 
ATOM     18  C   UNL     1      47.278   6.955  11.489  0.00  0.00    +0.000 A 
ATOM     19  N   UNL     1      48.406   7.166  12.223  0.00  0.00    +0.000 NA
ATOM     20  C   UNL     1      48.453   6.620  13.448  0.00  0.00    +0.000 A 
ATOM     21  C   UNL     1      47.435   5.842  13.997  0.00  0.00    +0.000 A 
ATOM     22  C   UNL     1      46.306   5.634  13.202  0.00  0.00    +0.000 A 
BRANCH  21  23
ATOM     23  C   UNL     1      47.542   5.293  15.401  0.00  0.00    +0.000 C 
ATOM     24  C   UNL     1      48.788   5.831  16.122  0.00  0.00    +0.000 C 
ATOM     25  C   UNL     1      48.937   5.225  17.515  0.00  0.00    +0.000 C 
ATOM     26  C   UNL     1      48.942   3.700  17.459  0.00  0.00    +0.000 C 
ATOM     27  C   UNL     1      47.686   3.166  16.779  0.00  0.00    +0.000 C 
ATOM     28  C   UNL     1      47.516   3.754  15.382  0.00  0.00    +0.000 C 
ENDBRANCH  21  23
ENDBRANCH  16  17
ENDBRANCH   1  16
TORSDOF 6
ENDMDL
MODEL 6
REMARK VINA RESULT:    -7.348      3.331      7.214
REMARK INTER + INTRA:         -10.890
REMARK INTER:                 -10.246
REMARK INTRA:                  -0.645
REMARK UNBOUND:                -0.965
REMARK  Name = 
REMARK  7 active torsions:
REMARK  status: ('A' for Active; 'I' for Inactive)
REMARK    1  A    between atoms: C_1  and  O_2
REMARK    2  A    between atoms: O_2  and  C_3
REMARK    3  A    between atoms: C_6  and  C_7
REMARK    4  A    between atoms: C_11  and  N_12
REMARK    5  A    between atoms: N_12  and  C_13
REMARK    6  A    between atoms: C_13  and  C_14
REMARK    7  A    between atoms: C_18  and  C_19
REMARK                            x       y       z     vdW  Elec       q    Type
REMARK                         _______ _______ _______ _____ _____    ______ ____
ROOT
ATOM      1  N   UNL     1      45.179   5.452   9.938  0.00  0.00    +0.000 N 
ATOM      2  H   UNL     1      45.681   6.112   9.354  0.00  0.00    +0.000 HD
ENDROOT
BRANCH   1   8
ATOM      3  C   UNL     1      44.442   3.042   9.749  0.00  0.00    +0.000 A 
ATOM      4  C   UNL     1      44.639   1.795   9.141  0.00  0.00    +0.000 A 
ATOM      5  C   UNL     1      45.596   1.636   8.142  0.00  0.00    +0.000 A 
ATOM      6  C   UNL     1      46.357   2.725   7.708  0.00  0.00    +0.000 A 
ATOM      7  C   UNL     1      46.161   3.970   8.321  0.00  0.00    +0.000 A 
ATOM      8  C   UNL     1      45.261   4.145   9.392  0.00  0.00    +0.000 A 
BRANCH   6   9
ATOM      9  C   UNL     1      47.351   2.505   6.618  0.00  0.00    +0.000 C 
ATOM     10  N   UNL     1      47.278   3.280   5.490  0.00  0.00    +0.000 N 
ATOM     11  O   UNL     1      48.235   1.663   6.721  0.00  0.00    +0.000 OA
ATOM     12  H   UNL     1      46.612   4.014   5.323  0.00  0.00    +0.000 HD
ATOM     13  H   UNL     1      47.998   3.132   4.793  0.00  0.00    +0.000 HD
ENDBRANCH   6   9
BRANCH   3  15
ATOM     14  C   UNL     1      43.436   2.652  11.878  0.00  0.00    +0.000 C 
ATOM     15  O   UNL     1      43.395   3.271  10.600  0.00  0.00    +0.000 OA
ENDBRANCH   3  15
ENDBRANCH   1   8
BRANCH   1  16
ATOM     16  C   UNL     1      45.518   5.624  11.353  0.00  0.00    +0.000 C 
BRANCH  16  17
ATOM     17  C   UNL     1      45.983   7.021  11.683  0.00  0.00    +0.000 A 
ATOM     18  C   UNL     1      45.122   8.079  11.969  0.00  0.00    +0.000 A 
ATOM     19  N   UNL     1      45.542   9.348  12.229  0.00  0.00    +0.000 NA
ATOM     20  C   UNL     1      46.866   9.570  12.220  0.00  0.00    +0.000 A 
ATOM     21  C   UNL     1      47.821   8.594  11.942  0.00  0.00    +0.000 A 
ATOM     22  C   UNL     1      47.344   7.313  11.659  0.00  0.00    +0.000 A 
BRANCH  21  23
ATOM     23  C   UNL     1      49.298   8.910  11.990  0.00  0.00    +0.000 C 
ATOM     24  C   UNL     1      49.608  10.257  11.317  0.00  0.00    +0.000 C 
ATOM     25  C   UNL     1      51.106  10.546  11.302  0.00  0.00    +0.000 C 
ATOM     26  C   UNL     1      51.885   9.407  10.650  0.00  0.00    +0.000 C 
ATOM     27  C   UNL     1      51.608   8.078  11.344  0.00  0.00    +0.000 C 
ATOM     28  C   UNL     1      50.115   7.763  11.369  0.00  0.00    +0.000 C 
ENDBRANCH  21  23
ENDBRANCH  16  17
ENDBRANCH   1  16
TORSDOF 6
ENDMDL
MODEL 7
REMARK VINA RESULT:    -7.333      3.465      7.455
REMARK INTER + INTRA:         -10.870
REMARK INTER:                 -10.079
REMARK INTRA:                  -0.791
REMARK UNBOUND:                -0.965
REMARK  Name = 
REMARK  7 active torsions:
REMARK  status: ('A' for Active; 'I' for Inactive)
REMARK    1  A    between atoms: C_1  and  O_2
REMARK    2  A    between atoms: O_2  and  C_3
REMARK    3  A    between atoms: C_6  and  C_7
REMARK    4  A    between atoms: C_11  and  N_12
REMARK    5  A    between atoms: N_12  and  C_13
REMARK    6  A    between atoms: C_13  and  C_14
REMARK    7  A    between atoms: C_18  and  C_19
REMARK                            x       y       z     vdW  Elec       q    Type
REMARK                         _______ _______ _______ _____ _____    ______ ____
ROOT
ATOM      1  N   UNL     1      44.966   5.549  10.130  0.00  0.00    +0.000 N 
ATOM      2  H   UNL     1      45.182   6.265   9.446  0.00  0.00    +0.000 HD
ENDROOT
BRANCH   1   8
ATOM      3  C   UNL     1      44.350   3.108   9.897  0.00  0.00    +0.000 A 
ATOM      4  C   UNL     1      44.607   1.885   9.264  0.00  0.00    +0.000 A 
ATOM      5  C   UNL     1      45.566   1.794   8.259  0.00  0.00    +0.000 A 
ATOM      6  C   UNL     1      46.270   2.927   7.843  0.00  0.00    +0.000 A 
ATOM      7  C   UNL     1      46.014   4.149   8.481  0.00  0.00    +0.000 A 
ATOM      8  C   UNL     1      45.112   4.257   9.559  0.00  0.00    +0.000 A 
BRANCH   6   9
ATOM      9  C   UNL     1      47.269   2.778   6.746  0.00  0.00    +0.000 C 
ATOM     10  N   UNL     1      47.083   3.480   5.583  0.00  0.00    +0.000 N 
ATOM     11  O   UNL     1      48.253   2.059   6.872  0.00  0.00    +0.000 OA
ATOM     12  H   UNL     1      46.328   4.115   5.394  0.00  0.00    +0.000 HD
ATOM     13  H   UNL     1      47.807   3.387   4.880  0.00  0.00    +0.000 HD
ENDBRANCH   6   9
BRANCH   3  15
ATOM     14  C   UNL     1      43.471   2.843  12.099  0.00  0.00    +0.000 C 
ATOM     15  O   UNL     1      43.297   3.268  10.756  0.00  0.00    +0.000 OA
ENDBRANCH   3  15
ENDBRANCH   1   8
BRANCH   1  16
ATOM     16  C   UNL     1      45.636   5.809  11.406  0.00  0.00    +0.000 C 
BRANCH  16  17
ATOM     17  C   UNL     1      45.771   7.281  11.712  0.00  0.00    +0.000 A 
ATOM     18  C   UNL     1      46.842   7.834  12.412  0.00  0.00    +0.000 A 
ATOM     19  N   UNL     1      46.943   9.157  12.720  0.00  0.00    +0.000 NA
ATOM     20  C   UNL     1      45.952   9.961  12.305  0.00  0.00    +0.000 A 
ATOM     21  C   UNL     1      44.830   9.522  11.605  0.00  0.00    +0.000 A 
ATOM     22  C   UNL     1      44.758   8.155  11.330  0.00  0.00    +0.000 A 
BRANCH  21  23
ATOM     23  C   UNL     1      43.773  10.495  11.134  0.00  0.00    +0.000 C 
ATOM     24  C   UNL     1      42.514   9.763  10.644  0.00  0.00    +0.000 C 
ATOM     25  C   UNL     1      41.472  10.739  10.103  0.00  0.00    +0.000 C 
ATOM     26  C   UNL     1      42.059  11.627   9.010  0.00  0.00    +0.000 C 
ATOM     27  C   UNL     1      43.285  12.384   9.509  0.00  0.00    +0.000 C 
ATOM     28  C   UNL     1      44.345  11.430  10.053  0.00  0.00    +0.000 C 
ENDBRANCH  21  23
ENDBRANCH  16  17
ENDBRANCH   1  16
TORSDOF 6
ENDMDL
MODEL 8
REMARK VINA RESULT:    -7.148      3.133      7.429
REMARK INTER + INTRA:         -10.620
REMARK INTER:                 -10.122
REMARK INTRA:                  -0.498
REMARK UNBOUND:                -0.965
REMARK  Name = 
REMARK  7 active torsions:
REMARK  status: ('A' for Active; 'I' for Inactive)
REMARK    1  A    between atoms: C_1  and  O_2
REMARK    2  A    between atoms: O_2  and  C_3
REMARK    3  A    between atoms: C_6  and  C_7
REMARK    4  A    between atoms: C_11  and  N_12
REMARK    5  A    between atoms: N_12  and  C_13
REMARK    6  A    between atoms: C_13  and  C_14
REMARK    7  A    between atoms: C_18  and  C_19
REMARK                            x       y       z     vdW  Elec       q    Type
REMARK                         _______ _______ _______ _____ _____    ______ ____
ROOT
ATOM      1  N   UNL     1      44.922   5.523   9.933  0.00  0.00    +0.000 N 
ATOM      2  H   UNL     1      44.432   6.102   9.261  0.00  0.00    +0.000 HD
ENDROOT
BRANCH   1   8
ATOM      3  C   UNL     1      44.398   3.054   9.783  0.00  0.00    +0.000 A 
ATOM      4  C   UNL     1      44.707   1.819   9.197  0.00  0.00    +0.000 A 
ATOM      5  C   UNL     1      45.680   1.728   8.206  0.00  0.00    +0.000 A 
ATOM      6  C   UNL     1      46.347   2.870   7.756  0.00  0.00    +0.000 A 
ATOM      7  C   UNL     1      46.039   4.104   8.346  0.00  0.00    +0.000 A 
ATOM      8  C   UNL     1      45.121   4.218   9.411  0.00  0.00    +0.000 A 
BRANCH   6   9
ATOM      9  C   UNL     1      47.363   2.720   6.675  0.00  0.00    +0.000 C 
ATOM     10  N   UNL     1      47.167   3.375   5.488  0.00  0.00    +0.000 N 
ATOM     11  O   UNL     1      48.369   2.039   6.836  0.00  0.00    +0.000 OA
ATOM     12  H   UNL     1      46.394   3.979   5.269  0.00  0.00    +0.000 HD
ATOM     13  H   UNL     1      47.902   3.285   4.796  0.00  0.00    +0.000 HD
ENDBRANCH   6   9
BRANCH   3  15
ATOM     14  C   UNL     1      43.302   2.415  11.804  0.00  0.00    +0.000 C 
ATOM     15  O   UNL     1      43.330   3.206  10.625  0.00  0.00    +0.000 OA
ENDBRANCH   3  15
ENDBRANCH   1   8
BRANCH   1  16
ATOM     16  C   UNL     1      46.084   6.218  10.492  0.00  0.00    +0.000 C 
BRANCH  16  17
ATOM     17  C   UNL     1      46.393   5.804  11.911  0.00  0.00    +0.000 A 
ATOM     18  C   UNL     1      45.729   4.779  12.582  0.00  0.00    +0.000 A 
ATOM     19  N   UNL     1      45.983   4.432  13.874  0.00  0.00    +0.000 NA
ATOM     20  C   UNL     1      46.941   5.117  14.517  0.00  0.00    +0.000 A 
ATOM     21  C   UNL     1      47.666   6.164  13.952  0.00  0.00    +0.000 A 
ATOM     22  C   UNL     1      47.358   6.500  12.632  0.00  0.00    +0.000 A 
BRANCH  21  23
ATOM     23  C   UNL     1      48.760   6.864  14.726  0.00  0.00    +0.000 C 
ATOM     24  C   UNL     1      48.993   6.203  16.093  0.00  0.00    +0.000 C 
ATOM     25  C   UNL     1      50.047   6.949  16.905  0.00  0.00    +0.000 C 
ATOM     26  C   UNL     1      49.691   8.425  17.056  0.00  0.00    +0.000 C 
ATOM     27  C   UNL     1      49.499   9.090  15.697  0.00  0.00    +0.000 C 
ATOM     28  C   UNL     1      48.446   8.365  14.865  0.00  0.00    +0.000 C 
ENDBRANCH  21  23
ENDBRANCH  16  17
ENDBRANCH   1  16
TORSDOF 6
ENDMDL
MODEL 9
REMARK VINA RESULT:    -6.773      2.132      4.307
REMARK INTER + INTRA:         -10.114
REMARK INTER:                  -9.353
REMARK INTRA:                  -0.761
REMARK UNBOUND:                -0.965
REMARK  Name = 
REMARK  7 active torsions:
REMARK  status: ('A' for Active; 'I' for Inactive)
REMARK    1  A    between atoms: C_1  and  O_2
REMARK    2  A    between atoms: O_2  and  C_3
REMARK    3  A    between atoms: C_6  and  C_7
REMARK    4  A    between atoms: C_11  and  N_12
REMARK    5  A    between atoms: N_12  and  C_13
REMARK    6  A    between atoms: C_13  and  C_14
REMARK    7  A    between atoms: C_18  and  C_19
REMARK                            x       y       z     vdW  Elec       q    Type
REMARK                         _______ _______ _______ _____ _____    ______ ____
ROOT
ATOM      1  N   UNL     1      46.309   7.545  13.689  0.00  0.00    +0.000 N 
ATOM      2  H   UNL     1      46.848   7.668  14.539  0.00  0.00    +0.000 HD
ENDROOT
BRANCH   1   8
ATOM      3  C   UNL     1      47.478   9.442  12.495  0.00  0.00    +0.000 A 
ATOM      4  C   UNL     1      47.348  10.619  11.746  0.00  0.00    +0.000 A 
ATOM      5  C   UNL     1      46.092  11.079  11.359  0.00  0.00    +0.000 A 
ATOM      6  C   UNL     1      44.940  10.359  11.686  0.00  0.00    +0.000 A 
ATOM      7  C   UNL     1      45.072   9.184  12.439  0.00  0.00    +0.000 A 
ATOM      8  C   UNL     1      46.321   8.737  12.918  0.00  0.00    +0.000 A 
BRANCH   6   9
ATOM      9  C   UNL     1      43.622  10.883  11.227  0.00  0.00    +0.000 C 
ATOM     10  N   UNL     1      42.640  11.109  12.156  0.00  0.00    +0.000 N 
ATOM     11  O   UNL     1      43.410  11.129  10.046  0.00  0.00    +0.000 OA
ATOM     12  H   UNL     1      42.724  10.968  13.148  0.00  0.00    +0.000 HD
ATOM     13  H   UNL     1      41.775  11.508  11.811  0.00  0.00    +0.000 HD
ENDBRANCH   6   9
BRANCH   3  15
ATOM     14  C   UNL     1      49.373   8.270  11.638  0.00  0.00    +0.000 C 
ATOM     15  O   UNL     1      48.699   8.871  12.734  0.00  0.00    +0.000 OA
ENDBRANCH   3  15
ENDBRANCH   1   8
BRANCH   1  16
ATOM     16  C   UNL     1      46.654   6.293  13.013  0.00  0.00    +0.000 C 
BRANCH  16  17
ATOM     17  C   UNL     1      45.507   5.716  12.219  0.00  0.00    +0.000 A 
ATOM     18  C   UNL     1      44.168   5.845  12.584  0.00  0.00    +0.000 A 
ATOM     19  N   UNL     1      43.137   5.292  11.887  0.00  0.00    +0.000 NA
ATOM     20  C   UNL     1      43.446   4.599  10.780  0.00  0.00    +0.000 A 
ATOM     21  C   UNL     1      44.746   4.398  10.321  0.00  0.00    +0.000 A 
ATOM     22  C   UNL     1      45.773   4.965  11.078  0.00  0.00    +0.000 A 
BRANCH  21  23
ATOM     23  C   UNL     1      45.014   3.640   9.041  0.00  0.00    +0.000 C 
ATOM     24  C   UNL     1      45.454   2.195   9.325  0.00  0.00    +0.000 C 
ATOM     25  C   UNL     1      45.793   1.448   8.038  0.00  0.00    +0.000 C 
ATOM     26  C   UNL     1      46.842   2.197   7.221  0.00  0.00    +0.000 C 
ATOM     27  C   UNL     1      46.387   3.618   6.905  0.00  0.00    +0.000 C 
ATOM     28  C   UNL     1      46.045   4.389   8.177  0.00  0.00    +0.000 C 
ENDBRANCH  21  23
ENDBRANCH  16  17
ENDBRANCH   1  16
TORSDOF 6
ENDMDL
