MODEL 1
REMARK VINA RESULT:    -7.426      0.000      0.000
REMARK INTER + INTRA:         -11.872
REMARK INTER:                 -10.682
REMARK INTRA:                  -1.190
REMARK UNBOUND:                -1.190
REMARK  Name = 
REMARK  8 active torsions:
REMARK  status: ('A' for Active; 'I' for Inactive)
REMARK    1  A    between atoms: C_2  and  C_21
REMARK    2  A    between atoms: N_3  and  C_4
REMARK    3  A    between atoms: C_4  and  C_5
REMARK    4  A    between atoms: C_8  and  C_9
REMARK    5  A    between atoms: C_9  and  C_10
REMARK    6  A    between atoms: C_10  and  N_11
REMARK    7  A    between atoms: N_11  and  C_12
REMARK    8  A    between atoms: C_17  and  O_18
REMARK                            x       y       z     vdW  Elec       q    Type
REMARK                         _______ _______ _______ _____ _____    ______ ____
ROOT
ATOM      1  C   UNL     1      46.807   7.002  12.826  0.00  0.00    +0.000 A 
ATOM      2  C   UNL     1      47.002   5.656  13.149  0.00  0.00    +0.000 A 
ATOM      3  C   UNL     1      45.925   4.762  13.176  0.00  0.00    +0.000 A 
ATOM      4  C   UNL     1      44.627   5.198  12.870  0.00  0.00    +0.000 A 
ATOM      5  C   UNL     1      44.436   6.545  12.542  0.00  0.00    +0.000 A 
ATOM      6  C   UNL     1      45.513   7.438  12.515  0.00  0.00    +0.000 A 
ENDROOT
BRANCH   1   7
ATOM      7  C   UNL     1      47.976   7.952  12.822  0.00  0.00    +0.000 C 
BRANCH   7  10
ATOM      8  O   UNL     1      48.469   8.587  15.460  0.00  0.00    +0.000 OA
ATOM      9  C   UNL     1      49.238   7.817  14.901  0.00  0.00    +0.000 C 
ATOM     10  N   UNL     1      49.095   7.448  13.581  0.00  0.00    +0.000 N 
ATOM     11  H   UNL     1      49.549   6.603  13.262  0.00  0.00    +0.000 HD
BRANCH   9  12
ATOM     12  C   UNL     1      50.364   7.189  15.597  0.00  0.00    +0.000 A 
ATOM     13  C   UNL     1      51.673   7.626  15.494  0.00  0.00    +0.000 A 
ATOM     14  S   UNL     1      52.750   6.725  16.466  0.00  0.00    +0.000 S 
ATOM     15  C   UNL     1      51.495   5.730  17.037  0.00  0.00    +0.000 A 
ATOM     16  N   UNL     1      51.754   4.732  17.907  0.00  0.00    +0.000 NA
ATOM     17  C   UNL     1      50.670   4.015  18.264  0.00  0.00    +0.000 A 
ATOM     18  C   UNL     1      49.381   4.234  17.810  0.00  0.00    +0.000 A 
ATOM     19  C   UNL     1      49.157   5.280  16.919  0.00  0.00    +0.000 A 
ATOM     20  C   UNL     1      50.255   6.072  16.505  0.00  0.00    +0.000 A 
ENDBRANCH   9  12
ENDBRANCH   7  10
ENDBRANCH   1   7
BRANCH   4  21
ATOM     21  C   UNL     1      43.442   4.251  12.875  0.00  0.00    +0.000 C 
BRANCH  21  22
ATOM     22  C   UNL     1      43.822   2.864  12.360  0.00  0.00    +0.000 C 
BRANCH  22  23
ATOM     23  N   UNL     1      43.510   2.659  10.933  0.00  0.00    +0.000 NA
ATOM     24  H   UNL     1      42.797   3.340  10.662  0.00  0.00    +0.000 HD
BRANCH  23  25
ATOM     25  C   UNL     1      44.717   2.901  10.109  0.00  0.00    +0.000 C 
ATOM     26  C   UNL     1      44.824   1.818   9.018  0.00  0.00    +0.000 C 
ATOM     27  C   UNL     1      46.063   2.038   8.147  0.00  0.00    +0.000 C 
ATOM     28  C   UNL     1      46.116   3.439   7.541  0.00  0.00    +0.000 C 
ATOM     29  C   UNL     1      45.971   4.524   8.600  0.00  0.00    +0.000 C 
ATOM     30  C   UNL     1      44.740   4.319   9.472  0.00  0.00    +0.000 C 
BRANCH  30  31
ATOM     31  O   UNL     1      43.544   4.567   8.726  0.00  0.00    +0.000 OA
ATOM     32  H   UNL     1      43.209   5.448   8.963  0.00  0.00    +0.000 HD
ENDBRANCH  30  31
ENDBRANCH  23  25
ENDBRANCH  22  23
ENDBRANCH  21  22
ENDBRANCH   4  21
TORSDOF 8
ENDMDL
MODEL 2
REMARK VINA RESULT:    -7.359      2.335      2.590
REMARK INTER + INTRA:         -11.776
REMARK INTER:                 -10.787
REMARK INTRA:                  -0.989
REMARK UNBOUND:                -1.190
REMARK  Name = 
REMARK  8 active torsions:
REMARK  status: ('A' for Active; 'I' for Inactive)
REMARK    1  A    between atoms: C_2  and  C_21
REMARK    2  A    between atoms: N_3  and  C_4
REMARK    3  A    between atoms: C_4  and  C_5
REMARK    4  A    between atoms: C_8  and  C_9
REMARK    5  A    between atoms: C_9  and  C_10
REMARK    6  A    between atoms: C_10  and  N_11
REMARK    7  A    between atoms: N_11  and  C_12
REMARK    8  A    between atoms: C_17  and  O_18
REMARK                            x       y       z     vdW  Elec       q    Type
REMARK                         _______ _______ _______ _____ _____    ______ ____
ROOT
ATOM      1  C   UNL     1      47.129   6.456  13.442  0.00  0.00    +0.000 A 
ATOM      2  C   UNL     1      45.985   7.099  12.960  0.00  0.00    +0.000 A 
ATOM      3  C   UNL     1      44.818   6.378  12.688  0.00  0.00    +0.000 A 
ATOM      4  C   UNL     1      44.768   4.992  12.904  0.00  0.00    +0.000 A 
ATOM      5  C   UNL     1      45.913   4.352  13.392  0.00  0.00    +0.000 A 
ATOM      6  C   UNL     1      47.080   5.074  13.663  0.00  0.00    +0.000 A 
ENDROOT
BRANCH   1   7
ATOM      7  C   UNL     1      48.383   7.248  13.707  0.00  0.00    +0.000 C 
BRANCH   7  10
ATOM      8  O   UNL     1      49.653   6.148  15.893  0.00  0.00    +0.000 OA
ATOM      9  C   UNL     1      49.071   7.213  16.043  0.00  0.00    +0.000 C 
ATOM     10  N   UNL     1      48.388   7.841  15.023  0.00  0.00    +0.000 N 
ATOM     11  H   UNL     1      48.196   8.830  15.105  0.00  0.00    +0.000 HD
BRANCH   9  12
ATOM     12  C   UNL     1      49.075   7.938  17.317  0.00  0.00    +0.000 A 
ATOM     13  C   UNL     1      49.639   9.190  17.488  0.00  0.00    +0.000 A 
ATOM     14  S   UNL     1      49.436   9.797  19.071  0.00  0.00    +0.000 S 
ATOM     15  C   UNL     1      48.600   8.400  19.562  0.00  0.00    +0.000 A 
ATOM     16  N   UNL     1      48.153   8.280  20.830  0.00  0.00    +0.000 NA
ATOM     17  C   UNL     1      47.522   7.117  21.084  0.00  0.00    +0.000 A 
ATOM     18  C   UNL     1      47.319   6.099  20.169  0.00  0.00    +0.000 A 
ATOM     19  C   UNL     1      47.788   6.269  18.869  0.00  0.00    +0.000 A 
ATOM     20  C   UNL     1      48.461   7.469  18.537  0.00  0.00    +0.000 A 
ENDBRANCH   9  12
ENDBRANCH   7  10
ENDBRANCH   1   7
BRANCH   4  21
ATOM     21  C   UNL     1      43.513   4.183  12.636  0.00  0.00    +0.000 C 
BRANCH  21  22
ATOM     22  C   UNL     1      43.840   2.755  12.204  0.00  0.00    +0.000 C 
BRANCH  22  23
ATOM     23  N   UNL     1      43.598   2.504  10.770  0.00  0.00    +0.000 NA
ATOM     24  H   UNL     1      42.839   3.116  10.463  0.00  0.00    +0.000 HD
BRANCH  23  25
ATOM     25  C   UNL     1      44.808   2.838   9.984  0.00  0.00    +0.000 C 
ATOM     26  C   UNL     1      45.007   1.791   8.871  0.00  0.00    +0.000 C 
ATOM     27  C   UNL     1      46.252   2.107   8.038  0.00  0.00    +0.000 C 
ATOM     28  C   UNL     1      46.235   3.523   7.468  0.00  0.00    +0.000 C 
ATOM     29  C   UNL     1      45.999   4.570   8.548  0.00  0.00    +0.000 C 
ATOM     30  C   UNL     1      44.762   4.270   9.382  0.00  0.00    +0.000 C 
BRANCH  30  31
ATOM     31  O   UNL     1      43.572   4.466   8.611  0.00  0.00    +0.000 OA
ATOM     32  H   UNL     1      43.066   3.637   8.607  0.00  0.00    +0.000 HD
ENDBRANCH  30  31
ENDBRANCH  23  25
ENDBRANCH  22  23
ENDBRANCH  21  22
ENDBRANCH   4  21
TORSDOF 8
ENDMDL
MODEL 3
REMARK VINA RESULT:    -7.047      3.192      5.337
REMARK INTER + INTRA:         -11.326
REMARK INTER:                 -10.313
REMARK INTRA:                  -1.014
REMARK UNBOUND:                -1.190
REMARK  Name = 
REMARK  8 active torsions:
REMARK  status: ('A' for Active; 'I' for Inactive)
REMARK    1  A    between atoms: C_2  and  C_21
REMARK    2  A    between atoms: N_3  and  C_4
REMARK    3  A    between atoms: C_4  and  C_5
REMARK    4  A    between atoms: C_8  and  C_9
REMARK    5  A    between atoms: C_9  and  C_10
REMARK    6  A    between atoms: C_10  and  N_11
REMARK    7  A    between atoms: N_11  and  C_12
REMARK    8  A    between atoms: C_17  and  O_18
REMARK                            x       y       z     vdW  Elec       q    Type
REMARK                         _______ _______ _______ _____ _____    ______ ____
ROOT
ATOM      1  C   UNL     1      47.240   5.867  13.356  0.00  0.00    +0.000 A 
ATOM      2  C   UNL     1      46.103   6.324  12.681  0.00  0.00    +0.000 A 
ATOM      3  C   UNL     1      45.073   5.444  12.334  0.00  0.00    +0.000 A 
ATOM      4  C   UNL     1      45.156   4.082  12.664  0.00  0.00    +0.000 A 
ATOM      5  C   UNL     1      46.291   3.629  13.344  0.00  0.00    +0.000 A 
ATOM      6  C   UNL     1      47.322   4.510  13.691  0.00  0.00    +0.000 A 
ENDROOT
BRANCH   1   7
ATOM      7  C   UNL     1      48.347   6.828  13.702  0.00  0.00    +0.000 C 
BRANCH   7  10
ATOM      8  O   UNL     1      49.307   8.067  11.434  0.00  0.00    +0.000 OA
ATOM      9  C   UNL     1      48.555   8.702  12.160  0.00  0.00    +0.000 C 
ATOM     10  N   UNL     1      48.033   8.186  13.327  0.00  0.00    +0.000 N 
ATOM     11  H   UNL     1      47.203   8.611  13.717  0.00  0.00    +0.000 HD
BRANCH   9  12
ATOM     12  C   UNL     1      48.112  10.061  11.837  0.00  0.00    +0.000 A 
ATOM     13  C   UNL     1      48.976  11.110  11.576  0.00  0.00    +0.000 A 
ATOM     14  S   UNL     1      48.159  12.556  11.178  0.00  0.00    +0.000 S 
ATOM     15  C   UNL     1      46.639  11.814  11.353  0.00  0.00    +0.000 A 
ATOM     16  N   UNL     1      45.506  12.521  11.159  0.00  0.00    +0.000 NA
ATOM     17  C   UNL     1      44.375  11.812  11.345  0.00  0.00    +0.000 A 
ATOM     18  C   UNL     1      44.317  10.478  11.706  0.00  0.00    +0.000 A 
ATOM     19  C   UNL     1      45.510   9.784  11.888  0.00  0.00    +0.000 A 
ATOM     20  C   UNL     1      46.734  10.471  11.707  0.00  0.00    +0.000 A 
ENDBRANCH   9  12
ENDBRANCH   7  10
ENDBRANCH   1   7
BRANCH   4  21
ATOM     21  C   UNL     1      44.049   3.105  12.317  0.00  0.00    +0.000 C 
BRANCH  21  22
ATOM     22  C   UNL     1      43.634   3.214  10.851  0.00  0.00    +0.000 C 
BRANCH  22  23
ATOM     23  N   UNL     1      44.078   2.074  10.027  0.00  0.00    +0.000 NA
ATOM     24  H   UNL     1      43.344   1.868   9.345  0.00  0.00    +0.000 HD
BRANCH  23  25
ATOM     25  C   UNL     1      45.309   2.432   9.285  0.00  0.00    +0.000 C 
ATOM     26  C   UNL     1      45.714   1.267   8.362  0.00  0.00    +0.000 C 
ATOM     27  C   UNL     1      46.986   1.603   7.578  0.00  0.00    +0.000 C 
ATOM     28  C   UNL     1      46.868   2.910   6.798  0.00  0.00    +0.000 C 
ATOM     29  C   UNL     1      46.429   4.068   7.686  0.00  0.00    +0.000 C 
ATOM     30  C   UNL     1      45.164   3.747   8.469  0.00  0.00    +0.000 C 
BRANCH  30  31
ATOM     31  O   UNL     1      44.030   3.687   7.596  0.00  0.00    +0.000 OA
ATOM     32  H   UNL     1      43.822   4.588   7.297  0.00  0.00    +0.000 HD
ENDBRANCH  30  31
ENDBRANCH  23  25
ENDBRANCH  22  23
ENDBRANCH  21  22
ENDBRANCH   4  21
TORSDOF 8
ENDMDL
MODEL 4
REMARK VINA RESULT:    -6.742      2.879      8.264
REMARK INTER + INTRA:         -10.888
REMARK INTER:                  -9.743
REMARK INTRA:                  -1.145
REMARK UNBOUND:                -1.190
REMARK  Name = 
REMARK  8 active torsions:
REMARK  status: ('A' for Active; 'I' for Inactive)
REMARK    1  A    between atoms: C_2  and  C_21
REMARK    2  A    between atoms: N_3  and  C_4
REMARK    3  A    between atoms: C_4  and  C_5
REMARK    4  A    between atoms: C_8  and  C_9
REMARK    5  A    between atoms: C_9  and  C_10
REMARK    6  A    between atoms: C_10  and  N_11
REMARK    7  A    between atoms: N_11  and  C_12
REMARK    8  A    between atoms: C_17  and  O_18
REMARK                            x       y       z     vdW  Elec       q    Type
REMARK                         _______ _______ _______ _____ _____    ______ ____
ROOT
ATOM      1  C   UNL     1      48.171   7.946  13.477  0.00  0.00    +0.000 A 
ATOM      2  C   UNL     1      49.286   7.175  13.818  0.00  0.00    +0.000 A 
ATOM      3  C   UNL     1      49.839   7.242  15.101  0.00  0.00    +0.000 A 
ATOM      4  C   UNL     1      49.279   8.080  16.077  0.00  0.00    +0.000 A 
ATOM      5  C   UNL     1      48.160   8.847  15.735  0.00  0.00    +0.000 A 
ATOM      6  C   UNL     1      47.607   8.779  14.451  0.00  0.00    +0.000 A 
ENDROOT
BRANCH   1   7
ATOM      7  C   UNL     1      47.603   7.875  12.084  0.00  0.00    +0.000 C 
BRANCH   7  10
ATOM      8  O   UNL     1      44.872   7.656  11.774  0.00  0.00    +0.000 OA
ATOM      9  C   UNL     1      45.544   6.638  11.680  0.00  0.00    +0.000 C 
ATOM     10  N   UNL     1      46.913   6.631  11.835  0.00  0.00    +0.000 N 
ATOM     11  H   UNL     1      47.441   5.858  11.454  0.00  0.00    +0.000 HD
BRANCH   9  12
ATOM     12  C   UNL     1      44.956   5.335  11.357  0.00  0.00    +0.000 A 
ATOM     13  C   UNL     1      44.149   4.619  12.224  0.00  0.00    +0.000 A 
ATOM     14  S   UNL     1      43.572   3.164  11.541  0.00  0.00    +0.000 S 
ATOM     15  C   UNL     1      44.392   3.456  10.080  0.00  0.00    +0.000 A 
ATOM     16  N   UNL     1      44.318   2.570   9.065  0.00  0.00    +0.000 NA
ATOM     17  C   UNL     1      45.027   2.922   7.974  0.00  0.00    +0.000 A 
ATOM     18  C   UNL     1      45.783   4.073   7.848  0.00  0.00    +0.000 A 
ATOM     19  C   UNL     1      45.825   4.963   8.917  0.00  0.00    +0.000 A 
ATOM     20  C   UNL     1      45.101   4.653  10.093  0.00  0.00    +0.000 A 
ENDBRANCH   9  12
ENDBRANCH   7  10
ENDBRANCH   1   7
BRANCH   4  21
ATOM     21  C   UNL     1      49.845   8.164  17.483  0.00  0.00    +0.000 C 
BRANCH  21  22
ATOM     22  C   UNL     1      48.837   7.689  18.529  0.00  0.00    +0.000 C 
BRANCH  22  23
ATOM     23  N   UNL     1      49.143   6.355  19.078  0.00  0.00    +0.000 NA
ATOM     24  H   UNL     1      48.445   6.137  19.793  0.00  0.00    +0.000 HD
BRANCH  23  25
ATOM     25  C   UNL     1      49.047   5.332  18.012  0.00  0.00    +0.000 C 
ATOM     26  C   UNL     1      49.623   3.997  18.522  0.00  0.00    +0.000 C 
ATOM     27  C   UNL     1      49.540   2.915  17.443  0.00  0.00    +0.000 C 
ATOM     28  C   UNL     1      48.125   2.733  16.900  0.00  0.00    +0.000 C 
ATOM     29  C   UNL     1      47.521   4.049  16.427  0.00  0.00    +0.000 C 
ATOM     30  C   UNL     1      47.595   5.134  17.492  0.00  0.00    +0.000 C 
BRANCH  30  31
ATOM     31  O   UNL     1      46.698   4.846  18.570  0.00  0.00    +0.000 OA
ATOM     32  H   UNL     1      46.755   5.566  19.220  0.00  0.00    +0.000 HD
ENDBRANCH  30  31
ENDBRANCH  23  25
ENDBRANCH  22  23
ENDBRANCH  21  22
ENDBRANCH   4  21
TORSDOF 8
ENDMDL
MODEL 5
REMARK VINA RESULT:    -6.607      3.087      3.805
REMARK INTER + INTRA:         -10.693
REMARK INTER:                  -9.735
REMARK INTRA:                  -0.958
REMARK UNBOUND:                -1.190
REMARK  Name = 
REMARK  8 active torsions:
REMARK  status: ('A' for Active; 'I' for Inactive)
REMARK    1  A    between atoms: C_2  and  C_21
REMARK    2  A    between atoms: N_3  and  C_4
REMARK    3  A    between atoms: C_4  and  C_5
REMARK    4  A    between atoms: C_8  and  C_9
REMARK    5  A    between atoms: C_9  and  C_10
REMARK    6  A    between atoms: C_10  and  N_11
REMARK    7  A    between atoms: N_11  and  C_12
REMARK    8  A    between atoms: C_17  and  O_18
REMARK                            x       y       z     vdW  Elec       q    Type
REMARK                         _______ _______ _______ _____ _____    ______ ____
ROOT
ATOM      1  C   UNL     1      45.840   7.930  12.350  0.00  0.00    +0.000 A 
ATOM      2  C   UNL     1      44.705   7.829  11.540  0.00  0.00    +0.000 A 
ATOM      3  C   UNL     1      43.922   6.669  11.544  0.00  0.00    +0.000 A 
ATOM      4  C   UNL     1      44.255   5.586  12.371  0.00  0.00    +0.000 A 
ATOM      5  C   UNL     1      45.389   5.692  13.185  0.00  0.00    +0.000 A 
ATOM      6  C   UNL     1      46.171   6.852  13.180  0.00  0.00    +0.000 A 
ENDROOT
BRANCH   1   7
ATOM      7  C   UNL     1      46.681   9.179  12.315  0.00  0.00    +0.000 C 
BRANCH   7  10
ATOM      8  O   UNL     1      48.900  10.090  10.955  0.00  0.00    +0.000 OA
ATOM      9  C   UNL     1      49.078   9.453  11.984  0.00  0.00    +0.000 C 
ATOM     10  N   UNL     1      48.042   8.936  12.731  0.00  0.00    +0.000 N 
ATOM     11  H   UNL     1      48.213   8.697  13.698  0.00  0.00    +0.000 HD
BRANCH   9  12
ATOM     12  C   UNL     1      50.414   9.211  12.536  0.00  0.00    +0.000 A 
ATOM     13  C   UNL     1      50.781   9.533  13.831  0.00  0.00    +0.000 A 
ATOM     14  S   UNL     1      52.387   9.079  14.196  0.00  0.00    +0.000 S 
ATOM     15  C   UNL     1      52.626   8.452  12.633  0.00  0.00    +0.000 A 
ATOM     16  N   UNL     1      53.815   7.914  12.286  0.00  0.00    +0.000 NA
ATOM     17  C   UNL     1      53.868   7.470  11.015  0.00  0.00    +0.000 A 
ATOM     18  C   UNL     1      52.832   7.534  10.100  0.00  0.00    +0.000 A 
ATOM     19  C   UNL     1      51.621   8.089  10.503  0.00  0.00    +0.000 A 
ATOM     20  C   UNL     1      51.498   8.574  11.827  0.00  0.00    +0.000 A 
ENDBRANCH   9  12
ENDBRANCH   7  10
ENDBRANCH   1   7
BRANCH   4  21
ATOM     21  C   UNL     1      43.418   4.321  12.412  0.00  0.00    +0.000 C 
BRANCH  21  22
ATOM     22  C   UNL     1      44.239   3.085  12.048  0.00  0.00    +0.000 C 
BRANCH  22  23
ATOM     23  N   UNL     1      43.953   2.564  10.699  0.00  0.00    +0.000 NA
ATOM     24  H   UNL     1      43.134   3.056  10.334  0.00  0.00    +0.000 HD
BRANCH  23  25
ATOM     25  C   UNL     1      45.094   2.836   9.796  0.00  0.00    +0.000 C 
ATOM     26  C   UNL     1      45.202   1.715   8.744  0.00  0.00    +0.000 C 
ATOM     27  C   UNL     1      46.375   1.965   7.793  0.00  0.00    +0.000 C 
ATOM     28  C   UNL     1      46.312   3.339   7.130  0.00  0.00    +0.000 C 
ATOM     29  C   UNL     1      46.165   4.460   8.151  0.00  0.00    +0.000 C 
ATOM     30  C   UNL     1      45.000   4.225   9.102  0.00  0.00    +0.000 C 
BRANCH  30  31
ATOM     31  O   UNL     1      43.751   4.374   8.419  0.00  0.00    +0.000 OA
ATOM     32  H   UNL     1      43.050   3.983   8.966  0.00  0.00    +0.000 HD
ENDBRANCH  30  31
ENDBRANCH  23  25
ENDBRANCH  22  23
ENDBRANCH  21  22
ENDBRANCH   4  21
TORSDOF 8
ENDMDL
MODEL 6
REMARK VINA RESULT:    -6.589      1.555      2.052
REMARK INTER + INTRA:         -10.669
REMARK INTER:                 -10.001
REMARK INTRA:                  -0.667
REMARK UNBOUND:                -1.190
REMARK  Name = 
REMARK  8 active torsions:
REMARK  status: ('A' for Active; 'I' for Inactive)
REMARK    1  A    between atoms: C_2  and  C_21
REMARK    2  A    between atoms: N_3  and  C_4
REMARK    3  A    between atoms: C_4  and  C_5
REMARK    4  A    between atoms: C_8  and  C_9
REMARK    5  A    between atoms: C_9  and  C_10
REMARK    6  A    between atoms: C_10  and  N_11
REMARK    7  A    between atoms: N_11  and  C_12
REMARK    8  A    between atoms: C_17  and  O_18
REMARK                            x       y       z     vdW  Elec       q    Type
REMARK                         _______ _______ _______ _____ _____    ______ ____
ROOT
ATOM      1  C   UNL     1      47.236   6.186  13.178  0.00  0.00    +0.000 A 
ATOM      2  C   UNL     1      47.002   5.052  13.962  0.00  0.00    +0.000 A 
ATOM      3  C   UNL     1      46.010   4.130  13.611  0.00  0.00    +0.000 A 
ATOM      4  C   UNL     1      45.233   4.320  12.458  0.00  0.00    +0.000 A 
ATOM      5  C   UNL     1      45.473   5.453  11.673  0.00  0.00    +0.000 A 
ATOM      6  C   UNL     1      46.466   6.375  12.024  0.00  0.00    +0.000 A 
ENDROOT
BRANCH   1   7
ATOM      7  C   UNL     1      48.295   7.176  13.584  0.00  0.00    +0.000 C 
BRANCH   7  10
ATOM      8  O   UNL     1      48.458   8.748  15.843  0.00  0.00    +0.000 OA
ATOM      9  C   UNL     1      48.983   7.644  15.872  0.00  0.00    +0.000 C 
ATOM     10  N   UNL     1      48.977   6.785  14.794  0.00  0.00    +0.000 N 
ATOM     11  H   UNL     1      49.140   5.801  14.956  0.00  0.00    +0.000 HD
BRANCH   9  12
ATOM     12  C   UNL     1      49.638   7.117  17.073  0.00  0.00    +0.000 A 
ATOM     13  C   UNL     1      49.003   6.970  18.294  0.00  0.00    +0.000 A 
ATOM     14  S   UNL     1      50.012   6.279  19.486  0.00  0.00    +0.000 S 
ATOM     15  C   UNL     1      51.317   6.170  18.401  0.00  0.00    +0.000 A 
ATOM     16  N   UNL     1      52.503   5.667  18.805  0.00  0.00    +0.000 NA
ATOM     17  C   UNL     1      53.450   5.653  17.846  0.00  0.00    +0.000 A 
ATOM     18  C   UNL     1      53.283   6.102  16.549  0.00  0.00    +0.000 A 
ATOM     19  C   UNL     1      52.041   6.604  16.172  0.00  0.00    +0.000 A 
ATOM     20  C   UNL     1      51.001   6.646  17.132  0.00  0.00    +0.000 A 
ENDBRANCH   9  12
ENDBRANCH   7  10
ENDBRANCH   1   7
BRANCH   4  21
ATOM     21  C   UNL     1      44.161   3.331  12.042  0.00  0.00    +0.000 C 
BRANCH  21  22
ATOM     22  C   UNL     1      43.963   3.314  10.527  0.00  0.00    +0.000 C 
BRANCH  22  23
ATOM     23  N   UNL     1      44.431   2.070   9.886  0.00  0.00    +0.000 NA
ATOM     24  H   UNL     1      43.684   1.722   9.281  0.00  0.00    +0.000 HD
BRANCH  23  25
ATOM     25  C   UNL     1      45.617   2.347   9.044  0.00  0.00    +0.000 C 
ATOM     26  C   UNL     1      45.924   1.120   8.164  0.00  0.00    +0.000 C 
ATOM     27  C   UNL     1      47.148   1.372   7.278  0.00  0.00    +0.000 C 
ATOM     28  C   UNL     1      47.011   2.636   6.434  0.00  0.00    +0.000 C 
ATOM     29  C   UNL     1      46.667   3.854   7.280  0.00  0.00    +0.000 C 
ATOM     30  C   UNL     1      45.450   3.618   8.164  0.00  0.00    +0.000 C 
BRANCH  30  31
ATOM     31  O   UNL     1      44.258   3.545   7.375  0.00  0.00    +0.000 OA
ATOM     32  H   UNL     1      43.546   4.007   7.846  0.00  0.00    +0.000 HD
ENDBRANCH  30  31
ENDBRANCH  23  25
ENDBRANCH  22  23
ENDBRANCH  21  22
ENDBRANCH   4  21
TORSDOF 8
ENDMDL
MODEL 7
REMARK VINA RESULT:    -6.419      1.812      2.485
REMARK INTER + INTRA:         -10.423
REMARK INTER:                  -9.466
REMARK INTRA:                  -0.957
REMARK UNBOUND:                -1.190
REMARK  Name = 
REMARK  8 active torsions:
REMARK  status: ('A' for Active; 'I' for Inactive)
REMARK    1  A    between atoms: C_2  and  C_21
REMARK    2  A    between atoms: N_3  and  C_4
REMARK    3  A    between atoms: C_4  and  C_5
REMARK    4  A    between atoms: C_8  and  C_9
REMARK    5  A    between atoms: C_9  and  C_10
REMARK    6  A    between atoms: C_10  and  N_11
REMARK    7  A    between atoms: N_11  and  C_12
REMARK    8  A    between atoms: C_17  and  O_18
REMARK                            x       y       z     vdW  Elec       q    Type
REMARK                         _______ _______ _______ _____ _____    ______ ____
ROOT
ATOM      1  C   UNL     1      45.848   8.090  12.205  0.00  0.00    +0.000 A 
ATOM      2  C   UNL     1      44.681   8.051  11.435  0.00  0.00    +0.000 A 
ATOM      3  C   UNL     1      43.862   6.917  11.434  0.00  0.00    +0.000 A 
ATOM      4  C   UNL     1      44.190   5.798  12.213  0.00  0.00    +0.000 A 
ATOM      5  C   UNL     1      45.354   5.842  12.987  0.00  0.00    +0.000 A 
ATOM      6  C   UNL     1      46.174   6.976  12.988  0.00  0.00    +0.000 A 
ENDROOT
BRANCH   1   7
ATOM      7  C   UNL     1      46.728   9.313  12.177  0.00  0.00    +0.000 C 
BRANCH   7  10
ATOM      8  O   UNL     1      48.545  11.160  13.120  0.00  0.00    +0.000 OA
ATOM      9  C   UNL     1      48.922  10.005  12.976  0.00  0.00    +0.000 C 
ATOM     10  N   UNL     1      48.102   9.007  12.495  0.00  0.00    +0.000 N 
ATOM     11  H   UNL     1      48.349   8.045  12.681  0.00  0.00    +0.000 HD
BRANCH   9  12
ATOM     12  C   UNL     1      50.274   9.570  13.338  0.00  0.00    +0.000 A 
ATOM     13  C   UNL     1      51.426  10.093  12.778  0.00  0.00    +0.000 A 
ATOM     14  S   UNL     1      52.849   9.421  13.443  0.00  0.00    +0.000 S 
ATOM     15  C   UNL     1      51.956   8.415  14.484  0.00  0.00    +0.000 A 
ATOM     16  N   UNL     1      52.588   7.568  15.325  0.00  0.00    +0.000 NA
ATOM     17  C   UNL     1      51.758   6.822  16.080  0.00  0.00    +0.000 A 
ATOM     18  C   UNL     1      50.376   6.873  16.042  0.00  0.00    +0.000 A 
ATOM     19  C   UNL     1      49.767   7.767  15.166  0.00  0.00    +0.000 A 
ATOM     20  C   UNL     1      50.582   8.581  14.343  0.00  0.00    +0.000 A 
ENDBRANCH   9  12
ENDBRANCH   7  10
ENDBRANCH   1   7
BRANCH   4  21
ATOM     21  C   UNL     1      43.313   4.560  12.247  0.00  0.00    +0.000 C 
BRANCH  21  22
ATOM     22  C   UNL     1      44.129   3.282  12.052  0.00  0.00    +0.000 C 
BRANCH  22  23
ATOM     23  N   UNL     1      43.870   2.609  10.765  0.00  0.00    +0.000 NA
ATOM     24  H   UNL     1      43.043   3.037  10.342  0.00  0.00    +0.000 HD
BRANCH  23  25
ATOM     25  C   UNL     1      45.014   2.810   9.847  0.00  0.00    +0.000 C 
ATOM     26  C   UNL     1      45.079   1.647   8.839  0.00  0.00    +0.000 C 
ATOM     27  C   UNL     1      46.254   1.823   7.872  0.00  0.00    +0.000 C 
ATOM     28  C   UNL     1      46.231   3.172   7.159  0.00  0.00    +0.000 C 
ATOM     29  C   UNL     1      46.127   4.335   8.137  0.00  0.00    +0.000 C 
ATOM     30  C   UNL     1      44.961   4.174   9.102  0.00  0.00    +0.000 C 
BRANCH  30  31
ATOM     31  O   UNL     1      43.713   4.338   8.419  0.00  0.00    +0.000 OA
ATOM     32  H   UNL     1      43.859   4.896   7.638  0.00  0.00    +0.000 HD
ENDBRANCH  30  31
ENDBRANCH  23  25
ENDBRANCH  22  23
ENDBRANCH  21  22
ENDBRANCH   4  21
TORSDOF 8
ENDMDL
MODEL 8
REMARK VINA RESULT:    -6.292      3.433      4.803
REMARK INTER + INTRA:         -10.240
REMARK INTER:                  -9.323
REMARK INTRA:                  -0.917
REMARK UNBOUND:                -1.190
REMARK  Name = 
REMARK  8 active torsions:
REMARK  status: ('A' for Active; 'I' for Inactive)
REMARK    1  A    between atoms: C_2  and  C_21
REMARK    2  A    between atoms: N_3  and  C_4
REMARK    3  A    between atoms: C_4  and  C_5
REMARK    4  A    between atoms: C_8  and  C_9
REMARK    5  A    between atoms: C_9  and  C_10
REMARK    6  A    between atoms: C_10  and  N_11
REMARK    7  A    between atoms: N_11  and  C_12
REMARK    8  A    between atoms: C_17  and  O_18
REMARK                            x       y       z     vdW  Elec       q    Type
REMARK                         _______ _______ _______ _____ _____    ______ ____
ROOT
ATOM      1  C   UNL     1      45.205   7.867  12.215  0.00  0.00    +0.000 A 
ATOM      2  C   UNL     1      44.076   7.723  11.403  0.00  0.00    +0.000 A 
ATOM      3  C   UNL     1      43.465   6.474  11.241  0.00  0.00    +0.000 A 
ATOM      4  C   UNL     1      43.969   5.342  11.898  0.00  0.00    +0.000 A 
ATOM      5  C   UNL     1      45.096   5.490  12.714  0.00  0.00    +0.000 A 
ATOM      6  C   UNL     1      45.706   6.739  12.876  0.00  0.00    +0.000 A 
ENDROOT
BRANCH   1   7
ATOM      7  C   UNL     1      45.860   9.216  12.361  0.00  0.00    +0.000 C 
BRANCH   7  10
ATOM      8  O   UNL     1      48.080   9.455  13.978  0.00  0.00    +0.000 OA
ATOM      9  C   UNL     1      48.257   9.331  12.775  0.00  0.00    +0.000 C 
ATOM     10  N   UNL     1      47.219   9.222  11.875  0.00  0.00    +0.000 N 
ATOM     11  H   UNL     1      47.404   8.821  10.966  0.00  0.00    +0.000 HD
BRANCH   9  12
ATOM     12  C   UNL     1      49.595   9.250  12.182  0.00  0.00    +0.000 A 
ATOM     13  C   UNL     1      50.516   8.265  12.493  0.00  0.00    +0.000 A 
ATOM     14  S   UNL     1      51.964   8.407  11.598  0.00  0.00    +0.000 S 
ATOM     15  C   UNL     1      51.394   9.787  10.784  0.00  0.00    +0.000 A 
ATOM     16  N   UNL     1      52.169  10.413   9.872  0.00  0.00    +0.000 NA
ATOM     17  C   UNL     1      51.597  11.499   9.317  0.00  0.00    +0.000 A 
ATOM     18  C   UNL     1      50.334  11.980   9.614  0.00  0.00    +0.000 A 
ATOM     19  C   UNL     1      49.566  11.299  10.554  0.00  0.00    +0.000 A 
ATOM     20  C   UNL     1      50.108  10.148  11.175  0.00  0.00    +0.000 A 
ENDBRANCH   9  12
ENDBRANCH   7  10
ENDBRANCH   1   7
BRANCH   4  21
ATOM     21  C   UNL     1      43.321   3.977  11.755  0.00  0.00    +0.000 C 
BRANCH  21  22
ATOM     22  C   UNL     1      44.358   2.875  11.546  0.00  0.00    +0.000 C 
BRANCH  22  23
ATOM     23  N   UNL     1      44.254   2.212  10.232  0.00  0.00    +0.000 NA
ATOM     24  H   UNL     1      43.412   2.556   9.766  0.00  0.00    +0.000 HD
BRANCH  23  25
ATOM     25  C   UNL     1      45.423   2.561   9.393  0.00  0.00    +0.000 C 
ATOM     26  C   UNL     1      45.754   1.387   8.452  0.00  0.00    +0.000 C 
ATOM     27  C   UNL     1      46.960   1.715   7.567  0.00  0.00    +0.000 C 
ATOM     28  C   UNL     1      46.781   3.015   6.787  0.00  0.00    +0.000 C 
ATOM     29  C   UNL     1      46.414   4.181   7.695  0.00  0.00    +0.000 C 
ATOM     30  C   UNL     1      45.214   3.869   8.578  0.00  0.00    +0.000 C 
BRANCH  30  31
ATOM     31  O   UNL     1      44.015   3.802   7.798  0.00  0.00    +0.000 OA
ATOM     32  H   UNL     1      44.133   4.346   7.002  0.00  0.00    +0.000 HD
ENDBRANCH  30  31
ENDBRANCH  23  25
ENDBRANCH  22  23
ENDBRANCH  21  22
ENDBRANCH   4  21
TORSDOF 8
ENDMDL
MODEL 9
REMARK VINA RESULT:    -6.279      1.987      3.534
REMARK INTER + INTRA:         -10.221
REMARK INTER:                  -9.000
REMARK INTRA:                  -1.221
REMARK UNBOUND:                -1.190
REMARK  Name = 
REMARK  8 active torsions:
REMARK  status: ('A' for Active; 'I' for Inactive)
REMARK    1  A    between atoms: C_2  and  C_21
REMARK    2  A    between atoms: N_3  and  C_4
REMARK    3  A    between atoms: C_4  and  C_5
REMARK    4  A    between atoms: C_8  and  C_9
REMARK    5  A    between atoms: C_9  and  C_10
REMARK    6  A    between atoms: C_10  and  N_11
REMARK    7  A    between atoms: N_11  and  C_12
REMARK    8  A    between atoms: C_17  and  O_18
REMARK                            x       y       z     vdW  Elec       q    Type
REMARK                         _______ _______ _______ _____ _____    ______ ____
ROOT
ATOM      1  C   UNL     1      49.263   8.692  13.479  0.00  0.00    +0.000 A 
ATOM      2  C   UNL     1      49.095   9.611  12.438  0.00  0.00    +0.000 A 
ATOM      3  C   UNL     1      47.843   9.799  11.842  0.00  0.00    +0.000 A 
ATOM      4  C   UNL     1      46.726   9.075  12.285  0.00  0.00    +0.000 A 
ATOM      5  C   UNL     1      46.895   8.161  13.330  0.00  0.00    +0.000 A 
ATOM      6  C   UNL     1      48.148   7.973  13.925  0.00  0.00    +0.000 A 
ENDROOT
BRANCH   1   7
ATOM      7  C   UNL     1      50.623   8.489  14.092  0.00  0.00    +0.000 C 
BRANCH   7  10
ATOM      8  O   UNL     1      50.648   8.275  16.841  0.00  0.00    +0.000 OA
ATOM      9  C   UNL     1      50.709   7.245  16.184  0.00  0.00    +0.000 C 
ATOM     10  N   UNL     1      50.722   7.239  14.806  0.00  0.00    +0.000 N 
ATOM     11  H   UNL     1      50.467   6.389  14.322  0.00  0.00    +0.000 HD
BRANCH   9  12
ATOM     12  C   UNL     1      50.739   5.918  16.805  0.00  0.00    +0.000 A 
ATOM     13  C   UNL     1      51.881   5.340  17.331  0.00  0.00    +0.000 A 
ATOM     14  S   UNL     1      51.585   3.812  18.035  0.00  0.00    +0.000 S 
ATOM     15  C   UNL     1      49.931   3.888  17.646  0.00  0.00    +0.000 A 
ATOM     16  N   UNL     1      49.104   2.871  17.968  0.00  0.00    +0.000 NA
ATOM     17  C   UNL     1      47.826   3.059  17.588  0.00  0.00    +0.000 A 
ATOM     18  C   UNL     1      47.343   4.171  16.921  0.00  0.00    +0.000 A 
ATOM     19  C   UNL     1      48.229   5.200  16.616  0.00  0.00    +0.000 A 
ATOM     20  C   UNL     1      49.588   5.066  16.989  0.00  0.00    +0.000 A 
ENDBRANCH   9  12
ENDBRANCH   7  10
ENDBRANCH   1   7
BRANCH   4  21
ATOM     21  C   UNL     1      45.351   9.268  11.672  0.00  0.00    +0.000 C 
BRANCH  21  22
ATOM     22  C   UNL     1      44.471   8.033  11.854  0.00  0.00    +0.000 C 
BRANCH  22  23
ATOM     23  N   UNL     1      44.606   7.049  10.763  0.00  0.00    +0.000 NA
ATOM     24  H   UNL     1      45.494   7.221  10.286  0.00  0.00    +0.000 HD
BRANCH  23  25
ATOM     25  C   UNL     1      44.639   5.676  11.319  0.00  0.00    +0.000 C 
ATOM     26  C   UNL     1      43.451   5.479  12.281  0.00  0.00    +0.000 C 
ATOM     27  C   UNL     1      43.455   4.068  12.875  0.00  0.00    +0.000 C 
ATOM     28  C   UNL     1      43.485   2.979  11.805  0.00  0.00    +0.000 C 
ATOM     29  C   UNL     1      44.629   3.179  10.819  0.00  0.00    +0.000 C 
ATOM     30  C   UNL     1      44.635   4.578  10.218  0.00  0.00    +0.000 C 
BRANCH  30  31
ATOM     31  O   UNL     1      43.530   4.750   9.324  0.00  0.00    +0.000 OA
ATOM     32  H   UNL     1      42.706   4.677   9.833  0.00  0.00    +0.000 HD
ENDBRANCH  30  31
ENDBRANCH  23  25
ENDBRANCH  22  23
ENDBRANCH  21  22
ENDBRANCH   4  21
TORSDOF 8
ENDMDL
