MODEL 1
REMARK VINA RESULT:    -8.322      0.000      0.000
REMARK INTER + INTRA:         -11.056
REMARK INTER:                 -10.755
REMARK INTRA:                  -0.301
REMARK UNBOUND:                -0.301
REMARK  Name = 
REMARK  5 active torsions:
REMARK  status: ('A' for Active; 'I' for Inactive)
REMARK    1  A    between atoms: C_2  and  C_3
REMARK    2  A    between atoms: C_6  and  N_7
REMARK    3  A    between atoms: N_7  and  C_8
REMARK    4  A    between atoms: C_8  and  C_9
REMARK    5  A    between atoms: C_14  and  N_15
REMARK                            x       y       z     vdW  Elec       q    Type
REMARK                         _______ _______ _______ _____ _____    ______ ____
ROOT
ATOM      1  C   UNL     1      44.317   4.584  11.877  0.00  0.00    +0.000 C 
ATOM      2  C   UNL     1      43.541   3.568  12.701  0.00  0.00    +0.000 C 
ATOM      3  C   UNL     1      43.174   5.007  12.803  0.00  0.00    +0.000 C 
ENDROOT
BRANCH   1   4
ATOM      4  C   UNL     1      45.662   5.115  12.357  0.00  0.00    +0.000 A 
ATOM      5  C   UNL     1      46.313   6.162  11.687  0.00  0.00    +0.000 A 
ATOM      6  C   UNL     1      47.386   6.824  12.275  0.00  0.00    +0.000 A 
ATOM      7  C   UNL     1      47.828   6.438  13.540  0.00  0.00    +0.000 A 
ATOM      8  F   UNL     1      48.777   7.199  14.111  0.00  0.00    +0.000 F 
ATOM      9  C   UNL     1      47.273   5.342  14.223  0.00  0.00    +0.000 A 
ATOM     10  C   UNL     1      46.220   4.678  13.570  0.00  0.00    +0.000 A 
BRANCH   9  11
ATOM     11  N   UNL     1      47.701   4.889  15.461  0.00  0.00    +0.000 N 
ATOM     12  C   UNL     1      48.346   5.778  16.425  0.00  0.00    +0.000 C 
ATOM     13  C   UNL     1      49.526   5.024  17.042  0.00  0.00    +0.000 C 
ATOM     14  C   UNL     1      49.103   3.677  17.628  0.00  0.00    +0.000 C 
ATOM     15  C   UNL     1      48.311   2.846  16.619  0.00  0.00    +0.000 C 
ATOM     16  C   UNL     1      47.157   3.653  16.031  0.00  0.00    +0.000 C 
ENDBRANCH   9  11
ENDBRANCH   1   4
BRANCH   1  17
ATOM     17  N   UNL     1      44.109   4.622  10.425  0.00  0.00    +0.000 N 
ATOM     18  H   UNL     1      43.244   5.018  10.073  0.00  0.00    +0.000 HD
BRANCH  17  22
ATOM     19  C   UNL     1      46.538   2.693   7.629  0.00  0.00    +0.000 A 
ATOM     20  C   UNL     1      45.841   1.902   8.534  0.00  0.00    +0.000 A 
ATOM     21  C   UNL     1      45.018   2.528   9.474  0.00  0.00    +0.000 A 
ATOM     22  C   UNL     1      44.876   3.915   9.482  0.00  0.00    +0.000 A 
ATOM     23  C   UNL     1      45.640   4.609   8.539  0.00  0.00    +0.000 A 
ATOM     24  N   UNL     1      46.454   4.041   7.612  0.00  0.00    +0.000 NA
BRANCH  19  26
ATOM     25  N   UNL     1      48.155   1.628   5.888  0.00  0.00    +0.000 NA
ATOM     26  C   UNL     1      47.416   2.096   6.648  0.00  0.00    +0.000 C 
ENDBRANCH  19  26
ENDBRANCH  17  22
ENDBRANCH   1  17
TORSDOF 5
ENDMDL
MODEL 2
REMARK VINA RESULT:    -8.263      1.835      3.592
REMARK INTER + INTRA:         -10.980
REMARK INTER:                 -10.123
REMARK INTRA:                  -0.857
REMARK UNBOUND:                -0.301
REMARK  Name = 
REMARK  5 active torsions:
REMARK  status: ('A' for Active; 'I' for Inactive)
REMARK    1  A    between atoms: C_2  and  C_3
REMARK    2  A    between atoms: C_6  and  N_7
REMARK    3  A    between atoms: N_7  and  C_8
REMARK    4  A    between atoms: C_8  and  C_9
REMARK    5  A    between atoms: C_14  and  N_15
REMARK                            x       y       z     vdW  Elec       q    Type
REMARK                         _______ _______ _______ _____ _____    ______ ____
ROOT
ATOM      1  C   UNL     1      44.136   4.717  11.581  0.00  0.00    +0.000 C 
ATOM      2  C   UNL     1      43.320   3.522  12.050  0.00  0.00    +0.000 C 
ATOM      3  C   UNL     1      42.771   4.891  12.250  0.00  0.00    +0.000 C 
ENDROOT
BRANCH   1   4
ATOM      4  C   UNL     1      45.264   5.278  12.439  0.00  0.00    +0.000 A 
ATOM      5  C   UNL     1      45.795   4.547  13.513  0.00  0.00    +0.000 A 
ATOM      6  C   UNL     1      46.991   4.931  14.112  0.00  0.00    +0.000 A 
ATOM      7  C   UNL     1      47.666   6.059  13.649  0.00  0.00    +0.000 A 
ATOM      8  F   UNL     1      48.877   6.302  14.175  0.00  0.00    +0.000 F 
ATOM      9  C   UNL     1      47.141   6.880  12.635  0.00  0.00    +0.000 A 
ATOM     10  C   UNL     1      45.910   6.475  12.090  0.00  0.00    +0.000 A 
BRANCH   9  11
ATOM     11  N   UNL     1      47.747   8.034  12.166  0.00  0.00    +0.000 N 
ATOM     12  C   UNL     1      48.944   7.990  11.328  0.00  0.00    +0.000 C 
ATOM     13  C   UNL     1      49.900   9.080  11.816  0.00  0.00    +0.000 C 
ATOM     14  C   UNL     1      49.229  10.453  11.864  0.00  0.00    +0.000 C 
ATOM     15  C   UNL     1      47.911  10.409  12.637  0.00  0.00    +0.000 C 
ATOM     16  C   UNL     1      47.005   9.298  12.114  0.00  0.00    +0.000 C 
ENDBRANCH   9  11
ENDBRANCH   1   4
BRANCH   1  17
ATOM     17  N   UNL     1      44.262   4.965  10.140  0.00  0.00    +0.000 N 
ATOM     18  H   UNL     1      43.605   5.603   9.704  0.00  0.00    +0.000 HD
BRANCH  17  22
ATOM     19  C   UNL     1      46.723   2.835   7.525  0.00  0.00    +0.000 A 
ATOM     20  C   UNL     1      45.885   2.107   8.361  0.00  0.00    +0.000 A 
ATOM     21  C   UNL     1      45.049   2.801   9.239  0.00  0.00    +0.000 A 
ATOM     22  C   UNL     1      45.034   4.196   9.253  0.00  0.00    +0.000 A 
ATOM     23  C   UNL     1      45.933   4.822   8.384  0.00  0.00    +0.000 A 
ATOM     24  N   UNL     1      46.764   4.185   7.519  0.00  0.00    +0.000 NA
BRANCH  19  26
ATOM     25  N   UNL     1      48.338   1.592   5.905  0.00  0.00    +0.000 NA
ATOM     26  C   UNL     1      47.619   2.165   6.611  0.00  0.00    +0.000 C 
ENDBRANCH  19  26
ENDBRANCH  17  22
ENDBRANCH   1  17
TORSDOF 5
ENDMDL
MODEL 3
REMARK VINA RESULT:    -8.220      1.731      2.441
REMARK INTER + INTRA:         -10.924
REMARK INTER:                 -10.117
REMARK INTRA:                  -0.807
REMARK UNBOUND:                -0.301
REMARK  Name = 
REMARK  5 active torsions:
REMARK  status: ('A' for Active; 'I' for Inactive)
REMARK    1  A    between atoms: C_2  and  C_3
REMARK    2  A    between atoms: C_6  and  N_7
REMARK    3  A    between atoms: N_7  and  C_8
REMARK    4  A    between atoms: C_8  and  C_9
REMARK    5  A    between atoms: C_14  and  N_15
REMARK                            x       y       z     vdW  Elec       q    Type
REMARK                         _______ _______ _______ _____ _____    ______ ____
ROOT
ATOM      1  C   UNL     1      44.014   5.027  11.462  0.00  0.00    +0.000 C 
ATOM      2  C   UNL     1      43.912   3.958  12.539  0.00  0.00    +0.000 C 
ATOM      3  C   UNL     1      42.860   5.009  12.467  0.00  0.00    +0.000 C 
ENDROOT
BRANCH   1   4
ATOM      4  C   UNL     1      44.912   6.244  11.652  0.00  0.00    +0.000 A 
ATOM      5  C   UNL     1      44.467   7.535  11.329  0.00  0.00    +0.000 A 
ATOM      6  C   UNL     1      45.171   8.657  11.757  0.00  0.00    +0.000 A 
ATOM      7  C   UNL     1      46.336   8.500  12.505  0.00  0.00    +0.000 A 
ATOM      8  F   UNL     1      46.896   9.615  13.001  0.00  0.00    +0.000 F 
ATOM      9  C   UNL     1      46.878   7.233  12.786  0.00  0.00    +0.000 A 
ATOM     10  C   UNL     1      46.154   6.131  12.297  0.00  0.00    +0.000 A 
BRANCH   9  11
ATOM     11  N   UNL     1      48.053   7.019  13.488  0.00  0.00    +0.000 N 
ATOM     12  C   UNL     1      48.101   6.157  14.667  0.00  0.00    +0.000 C 
ATOM     13  C   UNL     1      48.967   6.850  15.721  0.00  0.00    +0.000 C 
ATOM     14  C   UNL     1      50.344   7.228  15.174  0.00  0.00    +0.000 C 
ATOM     15  C   UNL     1      50.237   8.010  13.865  0.00  0.00    +0.000 C 
ATOM     16  C   UNL     1      49.354   7.276  12.860  0.00  0.00    +0.000 C 
ENDBRANCH   9  11
ENDBRANCH   1   4
BRANCH   1  17
ATOM     17  N   UNL     1      43.751   4.654  10.067  0.00  0.00    +0.000 N 
ATOM     18  H   UNL     1      42.804   4.744   9.716  0.00  0.00    +0.000 HD
BRANCH  17  22
ATOM     19  C   UNL     1      46.516   2.660   7.655  0.00  0.00    +0.000 A 
ATOM     20  C   UNL     1      45.705   1.889   8.482  0.00  0.00    +0.000 A 
ATOM     21  C   UNL     1      44.769   2.538   9.292  0.00  0.00    +0.000 A 
ATOM     22  C   UNL     1      44.631   3.925   9.249  0.00  0.00    +0.000 A 
ATOM     23  C   UNL     1      45.513   4.597   8.397  0.00  0.00    +0.000 A 
ATOM     24  N   UNL     1      46.438   4.007   7.597  0.00  0.00    +0.000 NA
BRANCH  19  26
ATOM     25  N   UNL     1      48.331   1.583   6.132  0.00  0.00    +0.000 NA
ATOM     26  C   UNL     1      47.512   2.040   6.811  0.00  0.00    +0.000 C 
ENDBRANCH  19  26
ENDBRANCH  17  22
ENDBRANCH   1  17
TORSDOF 5
ENDMDL
MODEL 4
REMARK VINA RESULT:    -6.543      2.262      7.794
REMARK INTER + INTRA:          -8.757
REMARK INTER:                  -8.210
REMARK INTRA:                  -0.546
REMARK UNBOUND:                -0.301
REMARK  Name = 
REMARK  5 active torsions:
REMARK  status: ('A' for Active; 'I' for Inactive)
REMARK    1  A    between atoms: C_2  and  C_3
REMARK    2  A    between atoms: C_6  and  N_7
REMARK    3  A    between atoms: N_7  and  C_8
REMARK    4  A    between atoms: C_8  and  C_9
REMARK    5  A    between atoms: C_14  and  N_15
REMARK                            x       y       z     vdW  Elec       q    Type
REMARK                         _______ _______ _______ _____ _____    ______ ____
ROOT
ATOM      1  C   UNL     1      47.368   6.919  12.977  0.00  0.00    +0.000 C 
ATOM      2  C   UNL     1      48.623   6.965  12.119  0.00  0.00    +0.000 C 
ATOM      3  C   UNL     1      47.606   8.040  11.963  0.00  0.00    +0.000 C 
ENDROOT
BRANCH   1   4
ATOM      4  C   UNL     1      46.186   6.041  12.584  0.00  0.00    +0.000 A 
ATOM      5  C   UNL     1      44.967   6.109  13.276  0.00  0.00    +0.000 A 
ATOM      6  C   UNL     1      43.819   5.522  12.752  0.00  0.00    +0.000 A 
ATOM      7  C   UNL     1      43.879   4.850  11.533  0.00  0.00    +0.000 A 
ATOM      8  F   UNL     1      42.716   4.422  11.015  0.00  0.00    +0.000 F 
ATOM      9  C   UNL     1      45.088   4.674  10.837  0.00  0.00    +0.000 A 
ATOM     10  C   UNL     1      46.228   5.248  11.426  0.00  0.00    +0.000 A 
BRANCH   9  11
ATOM     11  N   UNL     1      45.214   3.980   9.644  0.00  0.00    +0.000 N 
ATOM     12  C   UNL     1      44.677   2.630   9.477  0.00  0.00    +0.000 C 
ATOM     13  C   UNL     1      45.716   1.801   8.720  0.00  0.00    +0.000 C 
ATOM     14  C   UNL     1      46.136   2.465   7.409  0.00  0.00    +0.000 C 
ATOM     15  C   UNL     1      46.556   3.920   7.623  0.00  0.00    +0.000 C 
ATOM     16  C   UNL     1      45.488   4.692   8.391  0.00  0.00    +0.000 C 
ENDBRANCH   9  11
ENDBRANCH   1   4
BRANCH   1  17
ATOM     17  N   UNL     1      47.480   7.217  14.409  0.00  0.00    +0.000 N 
ATOM     18  H   UNL     1      47.001   8.035  14.769  0.00  0.00    +0.000 HD
BRANCH  17  22
ATOM     19  C   UNL     1      50.172   5.266  16.936  0.00  0.00    +0.000 A 
ATOM     20  C   UNL     1      50.562   6.486  16.395  0.00  0.00    +0.000 A 
ATOM     21  C   UNL     1      49.672   7.158  15.552  0.00  0.00    +0.000 A 
ATOM     22  C   UNL     1      48.410   6.629  15.285  0.00  0.00    +0.000 A 
ATOM     23  C   UNL     1      48.135   5.388  15.866  0.00  0.00    +0.000 A 
ATOM     24  N   UNL     1      48.971   4.701  16.687  0.00  0.00    +0.000 NA
BRANCH  19  26
ATOM     25  N   UNL     1      51.805   3.928  18.459  0.00  0.00    +0.000 NA
ATOM     26  C   UNL     1      51.061   4.523  17.800  0.00  0.00    +0.000 C 
ENDBRANCH  19  26
ENDBRANCH  17  22
ENDBRANCH   1  17
TORSDOF 5
ENDMDL
MODEL 5
REMARK VINA RESULT:    -6.370      2.793      7.746
REMARK INTER + INTRA:          -8.533
REMARK INTER:                  -7.773
REMARK INTRA:                  -0.760
REMARK UNBOUND:                -0.301
REMARK  Name = 
REMARK  5 active torsions:
REMARK  status: ('A' for Active; 'I' for Inactive)
REMARK    1  A    between atoms: C_2  and  C_3
REMARK    2  A    between atoms: C_6  and  N_7
REMARK    3  A    between atoms: N_7  and  C_8
REMARK    4  A    between atoms: C_8  and  C_9
REMARK    5  A    between atoms: C_14  and  N_15
REMARK                            x       y       z     vdW  Elec       q    Type
REMARK                         _______ _______ _______ _____ _____    ______ ____
ROOT
ATOM      1  C   UNL     1      48.815   8.254  12.645  0.00  0.00    +0.000 C 
ATOM      2  C   UNL     1      49.867   7.717  11.687  0.00  0.00    +0.000 C 
ATOM      3  C   UNL     1      49.328   9.086  11.468  0.00  0.00    +0.000 C 
ENDROOT
BRANCH   1   4
ATOM      4  C   UNL     1      47.346   7.883  12.481  0.00  0.00    +0.000 A 
ATOM      5  C   UNL     1      46.327   8.809  12.749  0.00  0.00    +0.000 A 
ATOM      6  C   UNL     1      45.020   8.566  12.338  0.00  0.00    +0.000 A 
ATOM      7  C   UNL     1      44.715   7.385  11.662  0.00  0.00    +0.000 A 
ATOM      8  F   UNL     1      43.469   7.268  11.174  0.00  0.00    +0.000 F 
ATOM      9  C   UNL     1      45.675   6.383  11.440  0.00  0.00    +0.000 A 
ATOM     10  C   UNL     1      46.972   6.656  11.910  0.00  0.00    +0.000 A 
BRANCH   9  11
ATOM     11  N   UNL     1      45.418   5.174  10.812  0.00  0.00    +0.000 N 
ATOM     12  C   UNL     1      45.735   4.956   9.402  0.00  0.00    +0.000 C 
ATOM     13  C   UNL     1      44.564   4.202   8.768  0.00  0.00    +0.000 C 
ATOM     14  C   UNL     1      44.226   2.921   9.532  0.00  0.00    +0.000 C 
ATOM     15  C   UNL     1      44.042   3.187  11.026  0.00  0.00    +0.000 C 
ATOM     16  C   UNL     1      45.233   3.950  11.598  0.00  0.00    +0.000 C 
ENDBRANCH   9  11
ENDBRANCH   1   4
BRANCH   1  17
ATOM     17  N   UNL     1      49.221   8.621  14.007  0.00  0.00    +0.000 N 
ATOM     18  H   UNL     1      49.330   9.605  14.228  0.00  0.00    +0.000 HD
BRANCH  17  22
ATOM     19  C   UNL     1      50.612   5.807  16.760  0.00  0.00    +0.000 A 
ATOM     20  C   UNL     1      51.517   6.750  16.287  0.00  0.00    +0.000 A 
ATOM     21  C   UNL     1      51.069   7.704  15.370  0.00  0.00    +0.000 A 
ATOM     22  C   UNL     1      49.736   7.728  14.963  0.00  0.00    +0.000 A 
ATOM     23  C   UNL     1      48.922   6.719  15.488  0.00  0.00    +0.000 A 
ATOM     24  N   UNL     1      49.318   5.772  16.377  0.00  0.00    +0.000 NA
BRANCH  19  26
ATOM     25  N   UNL     1      51.324   3.948  18.439  0.00  0.00    +0.000 NA
ATOM     26  C   UNL     1      51.029   4.788  17.697  0.00  0.00    +0.000 C 
ENDBRANCH  19  26
ENDBRANCH  17  22
ENDBRANCH   1  17
TORSDOF 5
ENDMDL
MODEL 6
REMARK VINA RESULT:    -6.313      3.154      4.592
REMARK INTER + INTRA:          -8.460
REMARK INTER:                  -8.008
REMARK INTRA:                  -0.452
REMARK UNBOUND:                -0.301
REMARK  Name = 
REMARK  5 active torsions:
REMARK  status: ('A' for Active; 'I' for Inactive)
REMARK    1  A    between atoms: C_2  and  C_3
REMARK    2  A    between atoms: C_6  and  N_7
REMARK    3  A    between atoms: N_7  and  C_8
REMARK    4  A    between atoms: C_8  and  C_9
REMARK    5  A    between atoms: C_14  and  N_15
REMARK                            x       y       z     vdW  Elec       q    Type
REMARK                         _______ _______ _______ _____ _____    ______ ____
ROOT
ATOM      1  C   UNL     1      47.686   7.911  13.197  0.00  0.00    +0.000 C 
ATOM      2  C   UNL     1      48.243   8.767  12.070  0.00  0.00    +0.000 C 
ATOM      3  C   UNL     1      48.484   7.298  12.044  0.00  0.00    +0.000 C 
ENDROOT
BRANCH   1   4
ATOM      4  C   UNL     1      48.425   7.792  14.525  0.00  0.00    +0.000 A 
ATOM      5  C   UNL     1      48.970   8.918  15.159  0.00  0.00    +0.000 A 
ATOM      6  C   UNL     1      49.393   8.854  16.483  0.00  0.00    +0.000 A 
ATOM      7  C   UNL     1      49.283   7.656  17.187  0.00  0.00    +0.000 A 
ATOM      8  F   UNL     1      49.581   7.690  18.496  0.00  0.00    +0.000 F 
ATOM      9  C   UNL     1      48.825   6.473  16.581  0.00  0.00    +0.000 A 
ATOM     10  C   UNL     1      48.450   6.578  15.230  0.00  0.00    +0.000 A 
BRANCH   9  11
ATOM     11  N   UNL     1      48.736   5.247  17.220  0.00  0.00    +0.000 N 
ATOM     12  C   UNL     1      49.917   4.563  17.744  0.00  0.00    +0.000 C 
ATOM     13  C   UNL     1      49.794   3.078  17.396  0.00  0.00    +0.000 C 
ATOM     14  C   UNL     1      48.470   2.485  17.879  0.00  0.00    +0.000 C 
ATOM     15  C   UNL     1      47.275   3.319  17.417  0.00  0.00    +0.000 C 
ATOM     16  C   UNL     1      47.461   4.789  17.781  0.00  0.00    +0.000 C 
ENDBRANCH   9  11
ENDBRANCH   1   4
BRANCH   1  17
ATOM     17  N   UNL     1      46.238   7.683  13.263  0.00  0.00    +0.000 N 
ATOM     18  H   UNL     1      45.684   8.280  13.867  0.00  0.00    +0.000 HD
BRANCH  17  22
ATOM     19  C   UNL     1      44.235   4.232  12.032  0.00  0.00    +0.000 A 
ATOM     20  C   UNL     1      44.143   5.357  11.220  0.00  0.00    +0.000 A 
ATOM     21  C   UNL     1      44.811   6.520  11.611  0.00  0.00    +0.000 A 
ATOM     22  C   UNL     1      45.579   6.541  12.775  0.00  0.00    +0.000 A 
ATOM     23  C   UNL     1      45.581   5.360  13.523  0.00  0.00    +0.000 A 
ATOM     24  N   UNL     1      44.944   4.210  13.181  0.00  0.00    +0.000 NA
BRANCH  19  26
ATOM     25  N   UNL     1      42.974   2.033  11.438  0.00  0.00    +0.000 NA
ATOM     26  C   UNL     1      43.548   3.010  11.681  0.00  0.00    +0.000 C 
ENDBRANCH  19  26
ENDBRANCH  17  22
ENDBRANCH   1  17
TORSDOF 5
ENDMDL
MODEL 7
REMARK VINA RESULT:    -6.304      3.171      5.067
REMARK INTER + INTRA:          -8.448
REMARK INTER:                  -7.730
REMARK INTRA:                  -0.718
REMARK UNBOUND:                -0.301
REMARK  Name = 
REMARK  5 active torsions:
REMARK  status: ('A' for Active; 'I' for Inactive)
REMARK    1  A    between atoms: C_2  and  C_3
REMARK    2  A    between atoms: C_6  and  N_7
REMARK    3  A    between atoms: N_7  and  C_8
REMARK    4  A    between atoms: C_8  and  C_9
REMARK    5  A    between atoms: C_14  and  N_15
REMARK                            x       y       z     vdW  Elec       q    Type
REMARK                         _______ _______ _______ _____ _____    ______ ____
ROOT
ATOM      1  C   UNL     1      48.353   7.655  14.339  0.00  0.00    +0.000 C 
ATOM      2  C   UNL     1      47.381   8.788  14.051  0.00  0.00    +0.000 C 
ATOM      3  C   UNL     1      48.842   9.043  13.920  0.00  0.00    +0.000 C 
ENDROOT
BRANCH   1   4
ATOM      4  C   UNL     1      48.759   7.319  15.770  0.00  0.00    +0.000 A 
ATOM      5  C   UNL     1      48.468   8.188  16.832  0.00  0.00    +0.000 A 
ATOM      6  C   UNL     1      48.586   7.762  18.152  0.00  0.00    +0.000 A 
ATOM      7  C   UNL     1      49.008   6.462  18.424  0.00  0.00    +0.000 A 
ATOM      8  F   UNL     1      48.975   6.068  19.708  0.00  0.00    +0.000 F 
ATOM      9  C   UNL     1      49.396   5.574  17.405  0.00  0.00    +0.000 A 
ATOM     10  C   UNL     1      49.300   6.064  16.091  0.00  0.00    +0.000 A 
BRANCH   9  11
ATOM     11  N   UNL     1      49.863   4.287  17.621  0.00  0.00    +0.000 N 
ATOM     12  C   UNL     1      51.094   4.028  18.366  0.00  0.00    +0.000 C 
ATOM     13  C   UNL     1      51.869   2.935  17.628  0.00  0.00    +0.000 C 
ATOM     14  C   UNL     1      51.016   1.689  17.389  0.00  0.00    +0.000 C 
ATOM     15  C   UNL     1      49.680   2.036  16.733  0.00  0.00    +0.000 C 
ATOM     16  C   UNL     1      48.960   3.138  17.506  0.00  0.00    +0.000 C 
ENDBRANCH   9  11
ENDBRANCH   1   4
BRANCH   1  17
ATOM     17  N   UNL     1      48.450   6.546  13.384  0.00  0.00    +0.000 N 
ATOM     18  H   UNL     1      49.320   6.423  12.876  0.00  0.00    +0.000 HD
BRANCH  17  22
ATOM     19  C   UNL     1      45.159   4.280  12.171  0.00  0.00    +0.000 A 
ATOM     20  C   UNL     1      45.493   5.392  11.408  0.00  0.00    +0.000 A 
ATOM     21  C   UNL     1      46.596   6.160  11.794  0.00  0.00    +0.000 A 
ATOM     22  C   UNL     1      47.361   5.799  12.902  0.00  0.00    +0.000 A 
ATOM     23  C   UNL     1      46.919   4.674  13.605  0.00  0.00    +0.000 A 
ATOM     24  N   UNL     1      45.853   3.903  13.267  0.00  0.00    +0.000 NA
BRANCH  19  26
ATOM     25  N   UNL     1      43.131   2.771  11.548  0.00  0.00    +0.000 NA
ATOM     26  C   UNL     1      44.018   3.462  11.825  0.00  0.00    +0.000 C 
ENDBRANCH  19  26
ENDBRANCH  17  22
ENDBRANCH   1  17
TORSDOF 5
ENDMDL
MODEL 8
REMARK VINA RESULT:    -6.009      4.661      7.306
REMARK INTER + INTRA:          -8.067
REMARK INTER:                  -7.226
REMARK INTRA:                  -0.841
REMARK UNBOUND:                -0.301
REMARK  Name = 
REMARK  5 active torsions:
REMARK  status: ('A' for Active; 'I' for Inactive)
REMARK    1  A    between atoms: C_2  and  C_3
REMARK    2  A    between atoms: C_6  and  N_7
REMARK    3  A    between atoms: N_7  and  C_8
REMARK    4  A    between atoms: C_8  and  C_9
REMARK    5  A    between atoms: C_14  and  N_15
REMARK                            x       y       z     vdW  Elec       q    Type
REMARK                         _______ _______ _______ _____ _____    ______ ____
ROOT
ATOM      1  C   UNL     1      46.550   8.336  12.974  0.00  0.00    +0.000 C 
ATOM      2  C   UNL     1      47.982   7.837  13.087  0.00  0.00    +0.000 C 
ATOM      3  C   UNL     1      47.381   8.563  14.239  0.00  0.00    +0.000 C 
ENDROOT
BRANCH   1   4
ATOM      4  C   UNL     1      46.233   9.646  12.262  0.00  0.00    +0.000 A 
ATOM      5  C   UNL     1      47.255  10.498  11.816  0.00  0.00    +0.000 A 
ATOM      6  C   UNL     1      46.978  11.538  10.934  0.00  0.00    +0.000 A 
ATOM      7  C   UNL     1      45.672  11.744  10.494  0.00  0.00    +0.000 A 
ATOM      8  F   UNL     1      45.489  12.675   9.543  0.00  0.00    +0.000 F 
ATOM      9  C   UNL     1      44.594  10.978  10.972  0.00  0.00    +0.000 A 
ATOM     10  C   UNL     1      44.917   9.967  11.894  0.00  0.00    +0.000 A 
BRANCH   9  11
ATOM     11  N   UNL     1      43.271  11.167  10.602  0.00  0.00    +0.000 N 
ATOM     12  C   UNL     1      42.793  10.844   9.259  0.00  0.00    +0.000 C 
ATOM     13  C   UNL     1      41.863  11.972   8.808  0.00  0.00    +0.000 C 
ATOM     14  C   UNL     1      40.744  12.231   9.817  0.00  0.00    +0.000 C 
ATOM     15  C   UNL     1      41.293  12.424  11.231  0.00  0.00    +0.000 C 
ATOM     16  C   UNL     1      42.221  11.277  11.620  0.00  0.00    +0.000 C 
ENDBRANCH   9  11
ENDBRANCH   1   4
BRANCH   1  17
ATOM     17  N   UNL     1      45.456   7.358  13.005  0.00  0.00    +0.000 N 
ATOM     18  H   UNL     1      44.844   7.347  13.814  0.00  0.00    +0.000 HD
BRANCH  17  22
ATOM     19  C   UNL     1      44.924   4.008  10.570  0.00  0.00    +0.000 A 
ATOM     20  C   UNL     1      45.412   5.167   9.977  0.00  0.00    +0.000 A 
ATOM     21  C   UNL     1      45.604   6.297  10.777  0.00  0.00    +0.000 A 
ATOM     22  C   UNL     1      45.339   6.253  12.145  0.00  0.00    +0.000 A 
ATOM     23  C   UNL     1      44.832   5.042  12.627  0.00  0.00    +0.000 A 
ATOM     24  N   UNL     1      44.628   3.923  11.885  0.00  0.00    +0.000 NA
BRANCH  19  26
ATOM     25  N   UNL     1      44.515   1.838   9.192  0.00  0.00    +0.000 NA
ATOM     26  C   UNL     1      44.692   2.817   9.785  0.00  0.00    +0.000 C 
ENDBRANCH  19  26
ENDBRANCH  17  22
ENDBRANCH   1  17
TORSDOF 5
ENDMDL
MODEL 9
REMARK VINA RESULT:    -5.940      3.007      7.534
REMARK INTER + INTRA:          -7.977
REMARK INTER:                  -7.101
REMARK INTRA:                  -0.876
REMARK UNBOUND:                -0.301
REMARK  Name = 
REMARK  5 active torsions:
REMARK  status: ('A' for Active; 'I' for Inactive)
REMARK    1  A    between atoms: C_2  and  C_3
REMARK    2  A    between atoms: C_6  and  N_7
REMARK    3  A    between atoms: N_7  and  C_8
REMARK    4  A    between atoms: C_8  and  C_9
REMARK    5  A    between atoms: C_14  and  N_15
REMARK                            x       y       z     vdW  Elec       q    Type
REMARK                         _______ _______ _______ _____ _____    ______ ____
ROOT
ATOM      1  C   UNL     1      48.781   8.087  16.434  0.00  0.00    +0.000 C 
ATOM      2  C   UNL     1      49.851   8.979  17.045  0.00  0.00    +0.000 C 
ATOM      3  C   UNL     1      48.451   9.478  16.980  0.00  0.00    +0.000 C 
ENDROOT
BRANCH   1   4
ATOM      4  C   UNL     1      48.596   8.012  14.923  0.00  0.00    +0.000 A 
ATOM      5  C   UNL     1      49.555   8.540  14.045  0.00  0.00    +0.000 A 
ATOM      6  C   UNL     1      49.524   8.229  12.689  0.00  0.00    +0.000 A 
ATOM      7  C   UNL     1      48.525   7.394  12.193  0.00  0.00    +0.000 A 
ATOM      8  F   UNL     1      48.625   7.023  10.906  0.00  0.00    +0.000 F 
ATOM      9  C   UNL     1      47.489   6.904  13.007  0.00  0.00    +0.000 A 
ATOM     10  C   UNL     1      47.539   7.280  14.361  0.00  0.00    +0.000 A 
BRANCH   9  11
ATOM     11  N   UNL     1      46.448   6.106  12.559  0.00  0.00    +0.000 N 
ATOM     12  C   UNL     1      45.904   5.021  13.373  0.00  0.00    +0.000 C 
ATOM     13  C   UNL     1      45.675   3.816  12.457  0.00  0.00    +0.000 C 
ATOM     14  C   UNL     1      44.815   4.172  11.245  0.00  0.00    +0.000 C 
ATOM     15  C   UNL     1      45.353   5.400  10.511  0.00  0.00    +0.000 C 
ATOM     16  C   UNL     1      45.571   6.562  11.476  0.00  0.00    +0.000 C 
ENDBRANCH   9  11
ENDBRANCH   1   4
BRANCH   1  17
ATOM     17  N   UNL     1      48.336   6.904  17.180  0.00  0.00    +0.000 N 
ATOM     18  H   UNL     1      47.556   7.006  17.821  0.00  0.00    +0.000 HD
BRANCH  17  22
ATOM     19  C   UNL     1      50.372   3.263  17.337  0.00  0.00    +0.000 A 
ATOM     20  C   UNL     1      51.061   4.405  17.728  0.00  0.00    +0.000 A 
ATOM     21  C   UNL     1      50.394   5.633  17.689  0.00  0.00    +0.000 A 
ATOM     22  C   UNL     1      49.059   5.705  17.295  0.00  0.00    +0.000 A 
ATOM     23  C   UNL     1      48.475   4.496  16.904  0.00  0.00    +0.000 A 
ATOM     24  N   UNL     1      49.086   3.283  16.924  0.00  0.00    +0.000 NA
BRANCH  19  26
ATOM     25  N   UNL     1      51.546   0.939  17.303  0.00  0.00    +0.000 NA
ATOM     26  C   UNL     1      51.020   1.971  17.343  0.00  0.00    +0.000 C 
ENDBRANCH  19  26
ENDBRANCH  17  22
ENDBRANCH   1  17
TORSDOF 5
ENDMDL
