MODEL 1
REMARK VINA RESULT:    -8.070      0.000      0.000
REMARK INTER + INTRA:         -12.157
REMARK INTER:                 -10.901
REMARK INTRA:                  -1.256
REMARK UNBOUND:                -1.256
REMARK  Name = 
REMARK  7 active torsions:
REMARK  status: ('A' for Active; 'I' for Inactive)
REMARK    1  A    between atoms: C_1  and  C_2
REMARK    2  A    between atoms: C_2  and  N_3
REMARK    3  A    between atoms: C_2  and  C_16
REMARK    4  A    between atoms: C_4  and  C_6
REMARK    5  A    between atoms: C_19  and  C_20
REMARK    6  A    between atoms: C_20  and  N_21
REMARK    7  A    between atoms: C_22  and  C_24
REMARK                            x       y       z     vdW  Elec       q    Type
REMARK                         _______ _______ _______ _____ _____    ______ ____
ROOT
ATOM      1  C   UNL     1      47.987   8.244  14.118  0.00  0.00    +0.000 C 
ATOM      2  C   UNL     1      48.187   6.773  14.517  0.00  0.00    +0.000 C 
ENDROOT
BRANCH   2   3
ATOM      3  C   UNL     1      47.195   5.892  13.766  0.00  0.00    +0.000 A 
ATOM      4  C   UNL     1      47.031   4.547  14.126  0.00  0.00    +0.000 A 
ATOM      5  C   UNL     1      46.183   3.708  13.393  0.00  0.00    +0.000 A 
ATOM      6  C   UNL     1      45.484   4.192  12.279  0.00  0.00    +0.000 A 
ATOM      7  C   UNL     1      45.608   5.547  11.948  0.00  0.00    +0.000 A 
ATOM      8  C   UNL     1      46.453   6.386  12.682  0.00  0.00    +0.000 A 
BRANCH   6   9
ATOM      9  C   UNL     1      44.608   3.279  11.462  0.00  0.00    +0.000 C 
BRANCH   9  10
ATOM     10  N   UNL     1      45.310   2.766  10.310  0.00  0.00    +0.000 N 
ATOM     11  C   UNL     1      45.063   3.275   9.051  0.00  0.00    +0.000 C 
ATOM     12  O   UNL     1      44.250   4.162   8.823  0.00  0.00    +0.000 OA
ATOM     13  H   UNL     1      46.143   2.219  10.476  0.00  0.00    +0.000 HD
BRANCH  11  14
ATOM     14  C   UNL     1      45.879   2.706   7.954  0.00  0.00    +0.000 A 
ATOM     15  C   UNL     1      46.220   3.437   6.813  0.00  0.00    +0.000 A 
ATOM     16  C   UNL     1      46.978   2.832   5.813  0.00  0.00    +0.000 A 
ATOM     17  C   UNL     1      47.374   1.516   5.992  0.00  0.00    +0.000 A 
ATOM     18  N   UNL     1      47.081   0.788   7.092  0.00  0.00    +0.000 NA
ATOM     19  C   UNL     1      46.348   1.403   8.056  0.00  0.00    +0.000 A 
ENDBRANCH  11  14
ENDBRANCH   9  10
ENDBRANCH   6   9
ENDBRANCH   2   3
BRANCH   2  20
ATOM     20  N   UNL     1      48.078   6.563  15.954  0.00  0.00    +0.000 N 
ATOM     21  C   UNL     1      49.148   6.131  16.702  0.00  0.00    +0.000 C 
ATOM     22  O   UNL     1      50.264   5.960  16.219  0.00  0.00    +0.000 OA
ATOM     23  H   UNL     1      47.144   6.398  16.321  0.00  0.00    +0.000 HD
BRANCH  21  24
ATOM     24  C   UNL     1      48.925   5.926  18.136  0.00  0.00    +0.000 A 
ATOM     25  C   UNL     1      49.199   4.686  18.698  0.00  0.00    +0.000 A 
ATOM     26  S   UNL     1      48.842   4.593  20.361  0.00  0.00    +0.000 S 
ATOM     27  C   UNL     1      48.275   6.196  20.381  0.00  0.00    +0.000 A 
ATOM     28  N   UNL     1      47.754   6.738  21.515  0.00  0.00    +0.000 NA
ATOM     29  C   UNL     1      47.328   7.949  21.378  0.00  0.00    +0.000 A 
ATOM     30  N   UNL     1      47.395   8.674  20.214  0.00  0.00    +0.000 N 
ATOM     31  C   UNL     1      47.958   8.184  19.059  0.00  0.00    +0.000 A 
ATOM     32  O   UNL     1      48.086   8.884  18.060  0.00  0.00    +0.000 OA
ATOM     33  C   UNL     1      48.403   6.809  19.147  0.00  0.00    +0.000 A 
ATOM     34  H   UNL     1      47.068   9.628  20.184  0.00  0.00    +0.000 HD
ENDBRANCH  21  24
ENDBRANCH   2  20
TORSDOF 6
ENDMDL
MODEL 2
REMARK VINA RESULT:    -8.055      1.859      2.490
REMARK INTER + INTRA:         -12.137
REMARK INTER:                 -11.288
REMARK INTRA:                  -0.849
REMARK UNBOUND:                -1.256
REMARK  Name = 
REMARK  7 active torsions:
REMARK  status: ('A' for Active; 'I' for Inactive)
REMARK    1  A    between atoms: C_1  and  C_2
REMARK    2  A    between atoms: C_2  and  N_3
REMARK    3  A    between atoms: C_2  and  C_16
REMARK    4  A    between atoms: C_4  and  C_6
REMARK    5  A    between atoms: C_19  and  C_20
REMARK    6  A    between atoms: C_20  and  N_21
REMARK    7  A    between atoms: C_22  and  C_24
REMARK                            x       y       z     vdW  Elec       q    Type
REMARK                         _______ _______ _______ _____ _____    ______ ____
ROOT
ATOM      1  C   UNL     1      47.439   9.493  13.102  0.00  0.00    +0.000 C 
ATOM      2  C   UNL     1      47.713   8.004  13.370  0.00  0.00    +0.000 C 
ENDROOT
BRANCH   2   3
ATOM      3  C   UNL     1      46.633   7.151  12.715  0.00  0.00    +0.000 A 
ATOM      4  C   UNL     1      46.682   5.753  12.808  0.00  0.00    +0.000 A 
ATOM      5  C   UNL     1      45.742   4.957  12.142  0.00  0.00    +0.000 A 
ATOM      6  C   UNL     1      44.734   5.540  11.362  0.00  0.00    +0.000 A 
ATOM      7  C   UNL     1      44.653   6.936  11.308  0.00  0.00    +0.000 A 
ATOM      8  C   UNL     1      45.591   7.732  11.975  0.00  0.00    +0.000 A 
BRANCH   6   9
ATOM      9  C   UNL     1      43.751   4.684  10.608  0.00  0.00    +0.000 C 
BRANCH   9  10
ATOM     10  N   UNL     1      44.422   3.682   9.816  0.00  0.00    +0.000 N 
ATOM     11  C   UNL     1      45.275   4.048   8.795  0.00  0.00    +0.000 C 
ATOM     12  O   UNL     1      45.511   5.210   8.489  0.00  0.00    +0.000 OA
ATOM     13  H   UNL     1      44.447   2.740  10.178  0.00  0.00    +0.000 HD
BRANCH  11  14
ATOM     14  C   UNL     1      45.946   2.934   8.084  0.00  0.00    +0.000 A 
ATOM     15  C   UNL     1      46.711   3.130   6.932  0.00  0.00    +0.000 A 
ATOM     16  C   UNL     1      47.300   2.033   6.307  0.00  0.00    +0.000 A 
ATOM     17  C   UNL     1      47.107   0.777   6.861  0.00  0.00    +0.000 A 
ATOM     18  N   UNL     1      46.392   0.555   7.985  0.00  0.00    +0.000 NA
ATOM     19  C   UNL     1      45.834   1.642   8.581  0.00  0.00    +0.000 A 
ENDBRANCH  11  14
ENDBRANCH   9  10
ENDBRANCH   6   9
ENDBRANCH   2   3
BRANCH   2  20
ATOM     20  N   UNL     1      47.816   7.701  14.791  0.00  0.00    +0.000 N 
ATOM     21  C   UNL     1      48.953   7.142  15.327  0.00  0.00    +0.000 C 
ATOM     22  O   UNL     1      49.961   6.927  14.659  0.00  0.00    +0.000 OA
ATOM     23  H   UNL     1      46.942   7.577  15.296  0.00  0.00    +0.000 HD
BRANCH  21  24
ATOM     24  C   UNL     1      48.945   6.852  16.764  0.00  0.00    +0.000 A 
ATOM     25  C   UNL     1      49.259   7.862  17.665  0.00  0.00    +0.000 A 
ATOM     26  S   UNL     1      49.253   7.355  19.292  0.00  0.00    +0.000 S 
ATOM     27  C   UNL     1      48.866   5.760  18.846  0.00  0.00    +0.000 A 
ATOM     28  N   UNL     1      48.768   4.778  19.783  0.00  0.00    +0.000 NA
ATOM     29  C   UNL     1      48.506   3.610  19.303  0.00  0.00    +0.000 A 
ATOM     30  N   UNL     1      48.310   3.337  17.972  0.00  0.00    +0.000 N 
ATOM     31  C   UNL     1      48.349   4.306  16.997  0.00  0.00    +0.000 A 
ATOM     32  O   UNL     1      48.083   4.053  15.827  0.00  0.00    +0.000 OA
ATOM     33  C   UNL     1      48.694   5.627  17.480  0.00  0.00    +0.000 A 
ATOM     34  H   UNL     1      48.079   2.404  17.667  0.00  0.00    +0.000 HD
ENDBRANCH  21  24
ENDBRANCH   2  20
TORSDOF 6
ENDMDL
MODEL 3
REMARK VINA RESULT:    -7.361      1.539      2.024
REMARK INTER + INTRA:         -11.199
REMARK INTER:                 -10.109
REMARK INTRA:                  -1.090
REMARK UNBOUND:                -1.256
REMARK  Name = 
REMARK  7 active torsions:
REMARK  status: ('A' for Active; 'I' for Inactive)
REMARK    1  A    between atoms: C_1  and  C_2
REMARK    2  A    between atoms: C_2  and  N_3
REMARK    3  A    between atoms: C_2  and  C_16
REMARK    4  A    between atoms: C_4  and  C_6
REMARK    5  A    between atoms: C_19  and  C_20
REMARK    6  A    between atoms: C_20  and  N_21
REMARK    7  A    between atoms: C_22  and  C_24
REMARK                            x       y       z     vdW  Elec       q    Type
REMARK                         _______ _______ _______ _____ _____    ______ ____
ROOT
ATOM      1  C   UNL     1      47.937   9.732  13.314  0.00  0.00    +0.000 C 
ATOM      2  C   UNL     1      48.141   8.342  13.939  0.00  0.00    +0.000 C 
ENDROOT
BRANCH   2   3
ATOM      3  C   UNL     1      47.112   7.366  13.381  0.00  0.00    +0.000 A 
ATOM      4  C   UNL     1      47.281   5.985  13.554  0.00  0.00    +0.000 A 
ATOM      5  C   UNL     1      46.385   5.076  12.978  0.00  0.00    +0.000 A 
ATOM      6  C   UNL     1      45.304   5.526  12.208  0.00  0.00    +0.000 A 
ATOM      7  C   UNL     1      45.105   6.906  12.076  0.00  0.00    +0.000 A 
ATOM      8  C   UNL     1      45.998   7.814  12.654  0.00  0.00    +0.000 A 
BRANCH   6   9
ATOM      9  C   UNL     1      44.367   4.549  11.549  0.00  0.00    +0.000 C 
BRANCH   9  10
ATOM     10  N   UNL     1      45.060   3.711  10.600  0.00  0.00    +0.000 N 
ATOM     11  C   UNL     1      44.828   3.841   9.246  0.00  0.00    +0.000 C 
ATOM     12  O   UNL     1      44.036   4.641   8.765  0.00  0.00    +0.000 OA
ATOM     13  H   UNL     1      45.880   3.218  10.925  0.00  0.00    +0.000 HD
BRANCH  11  14
ATOM     14  C   UNL     1      45.634   2.963   8.367  0.00  0.00    +0.000 A 
ATOM     15  C   UNL     1      46.274   3.433   7.218  0.00  0.00    +0.000 A 
ATOM     16  C   UNL     1      47.004   2.546   6.428  0.00  0.00    +0.000 A 
ATOM     17  C   UNL     1      47.072   1.218   6.821  0.00  0.00    +0.000 A 
ATOM     18  N   UNL     1      46.484   0.735   7.937  0.00  0.00    +0.000 NA
ATOM     19  C   UNL     1      45.786   1.621   8.694  0.00  0.00    +0.000 A 
ENDBRANCH  11  14
ENDBRANCH   9  10
ENDBRANCH   6   9
ENDBRANCH   2   3
BRANCH   2  20
ATOM     20  N   UNL     1      48.090   8.370  15.394  0.00  0.00    +0.000 N 
ATOM     21  C   UNL     1      49.033   7.725  16.160  0.00  0.00    +0.000 C 
ATOM     22  O   UNL     1      50.000   7.149  15.669  0.00  0.00    +0.000 OA
ATOM     23  H   UNL     1      47.183   8.557  15.815  0.00  0.00    +0.000 HD
BRANCH  21  24
ATOM     24  C   UNL     1      48.875   7.793  17.616  0.00  0.00    +0.000 A 
ATOM     25  C   UNL     1      49.148   8.984  18.276  0.00  0.00    +0.000 A 
ATOM     26  S   UNL     1      48.965   8.888  19.968  0.00  0.00    +0.000 S 
ATOM     27  C   UNL     1      48.548   7.241  19.879  0.00  0.00    +0.000 A 
ATOM     28  N   UNL     1      48.317   6.518  21.009  0.00  0.00    +0.000 NA
ATOM     29  C   UNL     1      48.049   5.273  20.797  0.00  0.00    +0.000 A 
ATOM     30  N   UNL     1      47.968   4.691  19.557  0.00  0.00    +0.000 N 
ATOM     31  C   UNL     1      48.144   5.393  18.388  0.00  0.00    +0.000 A 
ATOM     32  O   UNL     1      47.979   4.869  17.292  0.00  0.00    +0.000 OA
ATOM     33  C   UNL     1      48.501   6.784  18.574  0.00  0.00    +0.000 A 
ATOM     34  H   UNL     1      47.725   3.716  19.462  0.00  0.00    +0.000 HD
ENDBRANCH  21  24
ENDBRANCH   2  20
TORSDOF 6
ENDMDL
MODEL 4
REMARK VINA RESULT:    -7.174      3.889      5.539
REMARK INTER + INTRA:         -10.946
REMARK INTER:                 -10.228
REMARK INTRA:                  -0.719
REMARK UNBOUND:                -1.256
REMARK  Name = 
REMARK  7 active torsions:
REMARK  status: ('A' for Active; 'I' for Inactive)
REMARK    1  A    between atoms: C_1  and  C_2
REMARK    2  A    between atoms: C_2  and  N_3
REMARK    3  A    between atoms: C_2  and  C_16
REMARK    4  A    between atoms: C_4  and  C_6
REMARK    5  A    between atoms: C_19  and  C_20
REMARK    6  A    between atoms: C_20  and  N_21
REMARK    7  A    between atoms: C_22  and  C_24
REMARK                            x       y       z     vdW  Elec       q    Type
REMARK                         _______ _______ _______ _____ _____    ______ ____
ROOT
ATOM      1  C   UNL     1      48.115   5.852  14.876  0.00  0.00    +0.000 C 
ATOM      2  C   UNL     1      46.790   6.498  14.438  0.00  0.00    +0.000 C 
ENDROOT
BRANCH   2   3
ATOM      3  C   UNL     1      45.992   5.518  13.586  0.00  0.00    +0.000 A 
ATOM      4  C   UNL     1      46.450   4.206  13.400  0.00  0.00    +0.000 A 
ATOM      5  C   UNL     1      45.768   3.323  12.554  0.00  0.00    +0.000 A 
ATOM      6  C   UNL     1      44.616   3.731  11.870  0.00  0.00    +0.000 A 
ATOM      7  C   UNL     1      44.129   5.025  12.093  0.00  0.00    +0.000 A 
ATOM      8  C   UNL     1      44.808   5.907  12.939  0.00  0.00    +0.000 A 
BRANCH   6   9
ATOM      9  C   UNL     1      43.908   2.797  10.924  0.00  0.00    +0.000 C 
BRANCH   9  10
ATOM     10  N   UNL     1      44.773   2.385   9.844  0.00  0.00    +0.000 N 
ATOM     11  C   UNL     1      44.955   3.194   8.742  0.00  0.00    +0.000 C 
ATOM     12  O   UNL     1      44.408   4.280   8.596  0.00  0.00    +0.000 OA
ATOM     13  H   UNL     1      45.417   1.629  10.025  0.00  0.00    +0.000 HD
BRANCH  11  14
ATOM     14  C   UNL     1      45.903   2.689   7.721  0.00  0.00    +0.000 A 
ATOM     15  C   UNL     1      46.240   3.423   6.581  0.00  0.00    +0.000 A 
ATOM     16  C   UNL     1      47.128   2.878   5.655  0.00  0.00    +0.000 A 
ATOM     17  C   UNL     1      47.652   1.619   5.905  0.00  0.00    +0.000 A 
ATOM     18  N   UNL     1      47.363   0.893   7.008  0.00  0.00    +0.000 NA
ATOM     19  C   UNL     1      46.502   1.449   7.900  0.00  0.00    +0.000 A 
ENDBRANCH  11  14
ENDBRANCH   9  10
ENDBRANCH   6   9
ENDBRANCH   2   3
BRANCH   2  20
ATOM     20  N   UNL     1      46.988   7.755  13.729  0.00  0.00    +0.000 N 
ATOM     21  C   UNL     1      47.840   7.848  12.653  0.00  0.00    +0.000 C 
ATOM     22  O   UNL     1      48.428   6.874  12.191  0.00  0.00    +0.000 OA
ATOM     23  H   UNL     1      46.776   8.606  14.243  0.00  0.00    +0.000 HD
BRANCH  21  24
ATOM     24  C   UNL     1      47.987   9.165  12.027  0.00  0.00    +0.000 A 
ATOM     25  C   UNL     1      49.231   9.556  11.546  0.00  0.00    +0.000 A 
ATOM     26  S   UNL     1      49.249  11.129  10.892  0.00  0.00    +0.000 S 
ATOM     27  C   UNL     1      47.605  11.357  11.262  0.00  0.00    +0.000 A 
ATOM     28  N   UNL     1      46.991  12.545  11.011  0.00  0.00    +0.000 NA
ATOM     29  C   UNL     1      45.754  12.591  11.375  0.00  0.00    +0.000 A 
ATOM     30  N   UNL     1      45.068  11.549  11.947  0.00  0.00    +0.000 N 
ATOM     31  C   UNL     1      45.633  10.316  12.172  0.00  0.00    +0.000 A 
ATOM     32  O   UNL     1      44.974   9.375  12.602  0.00  0.00    +0.000 OA
ATOM     33  C   UNL     1      47.037  10.230  11.830  0.00  0.00    +0.000 A 
ATOM     34  H   UNL     1      44.091  11.644  12.182  0.00  0.00    +0.000 HD
ENDBRANCH  21  24
ENDBRANCH   2  20
TORSDOF 6
ENDMDL
MODEL 5
REMARK VINA RESULT:    -7.139      3.487      9.474
REMARK INTER + INTRA:         -10.900
REMARK INTER:                  -9.729
REMARK INTRA:                  -1.170
REMARK UNBOUND:                -1.256
REMARK  Name = 
REMARK  7 active torsions:
REMARK  status: ('A' for Active; 'I' for Inactive)
REMARK    1  A    between atoms: C_1  and  C_2
REMARK    2  A    between atoms: C_2  and  N_3
REMARK    3  A    between atoms: C_2  and  C_16
REMARK    4  A    between atoms: C_4  and  C_6
REMARK    5  A    between atoms: C_19  and  C_20
REMARK    6  A    between atoms: C_20  and  N_21
REMARK    7  A    between atoms: C_22  and  C_24
REMARK                            x       y       z     vdW  Elec       q    Type
REMARK                         _______ _______ _______ _____ _____    ______ ____
ROOT
ATOM      1  C   UNL     1      48.757   8.064  11.393  0.00  0.00    +0.000 C 
ATOM      2  C   UNL     1      47.856   7.559  12.532  0.00  0.00    +0.000 C 
ENDROOT
BRANCH   2   3
ATOM      3  C   UNL     1      48.697   7.259  13.766  0.00  0.00    +0.000 A 
ATOM      4  C   UNL     1      48.159   6.514  14.825  0.00  0.00    +0.000 A 
ATOM      5  C   UNL     1      48.895   6.300  15.997  0.00  0.00    +0.000 A 
ATOM      6  C   UNL     1      50.183   6.832  16.141  0.00  0.00    +0.000 A 
ATOM      7  C   UNL     1      50.741   7.534  15.066  0.00  0.00    +0.000 A 
ATOM      8  C   UNL     1      50.008   7.746  13.894  0.00  0.00    +0.000 A 
BRANCH   6   9
ATOM      9  C   UNL     1      50.957   6.643  17.419  0.00  0.00    +0.000 C 
BRANCH   9  10
ATOM     10  N   UNL     1      51.637   5.371  17.440  0.00  0.00    +0.000 N 
ATOM     11  C   UNL     1      51.093   4.293  18.108  0.00  0.00    +0.000 C 
ATOM     12  O   UNL     1      50.034   4.336  18.721  0.00  0.00    +0.000 OA
ATOM     13  H   UNL     1      52.373   5.224  16.764  0.00  0.00    +0.000 HD
BRANCH  11  14
ATOM     14  C   UNL     1      51.856   3.026  18.018  0.00  0.00    +0.000 A 
ATOM     15  C   UNL     1      53.134   2.879  18.563  0.00  0.00    +0.000 A 
ATOM     16  C   UNL     1      53.800   1.662  18.427  0.00  0.00    +0.000 A 
ATOM     17  C   UNL     1      53.160   0.632  17.754  0.00  0.00    +0.000 A 
ATOM     18  N   UNL     1      51.917   0.735  17.234  0.00  0.00    +0.000 NA
ATOM     19  C   UNL     1      51.285   1.928  17.387  0.00  0.00    +0.000 A 
ENDBRANCH  11  14
ENDBRANCH   9  10
ENDBRANCH   6   9
ENDBRANCH   2   3
BRANCH   2  20
ATOM     20  N   UNL     1      47.069   6.395  12.149  0.00  0.00    +0.000 N 
ATOM     21  C   UNL     1      45.694   6.406  12.198  0.00  0.00    +0.000 C 
ATOM     22  O   UNL     1      45.054   7.409  12.503  0.00  0.00    +0.000 OA
ATOM     23  H   UNL     1      47.539   5.494  12.190  0.00  0.00    +0.000 HD
BRANCH  21  24
ATOM     24  C   UNL     1      44.999   5.174  11.816  0.00  0.00    +0.000 A 
ATOM     25  C   UNL     1      44.254   4.489  12.767  0.00  0.00    +0.000 A 
ATOM     26  S   UNL     1      43.549   3.053  12.182  0.00  0.00    +0.000 S 
ATOM     27  C   UNL     1      44.246   3.276  10.647  0.00  0.00    +0.000 A 
ATOM     28  N   UNL     1      44.082   2.349   9.665  0.00  0.00    +0.000 NA
ATOM     29  C   UNL     1      44.696   2.628   8.564  0.00  0.00    +0.000 A 
ATOM     30  N   UNL     1      45.440   3.761   8.349  0.00  0.00    +0.000 N 
ATOM     31  C   UNL     1      45.590   4.747   9.295  0.00  0.00    +0.000 A 
ATOM     32  O   UNL     1      46.186   5.791   9.047  0.00  0.00    +0.000 OA
ATOM     33  C   UNL     1      44.964   4.456  10.568  0.00  0.00    +0.000 A 
ATOM     34  H   UNL     1      45.871   3.930   7.452  0.00  0.00    +0.000 HD
ENDBRANCH  21  24
ENDBRANCH   2  20
TORSDOF 6
ENDMDL
MODEL 6
REMARK VINA RESULT:    -7.138      4.764      7.079
REMARK INTER + INTRA:         -10.898
REMARK INTER:                  -9.896
REMARK INTRA:                  -1.002
REMARK UNBOUND:                -1.256
REMARK  Name = 
REMARK  7 active torsions:
REMARK  status: ('A' for Active; 'I' for Inactive)
REMARK    1  A    between atoms: C_1  and  C_2
REMARK    2  A    between atoms: C_2  and  N_3
REMARK    3  A    between atoms: C_2  and  C_16
REMARK    4  A    between atoms: C_4  and  C_6
REMARK    5  A    between atoms: C_19  and  C_20
REMARK    6  A    between atoms: C_20  and  N_21
REMARK    7  A    between atoms: C_22  and  C_24
REMARK                            x       y       z     vdW  Elec       q    Type
REMARK                         _______ _______ _______ _____ _____    ______ ____
ROOT
ATOM      1  C   UNL     1      46.612   3.589  13.138  0.00  0.00    +0.000 C 
ATOM      2  C   UNL     1      46.380   4.703  14.171  0.00  0.00    +0.000 C 
ENDROOT
BRANCH   2   3
ATOM      3  C   UNL     1      46.109   6.023  13.459  0.00  0.00    +0.000 A 
ATOM      4  C   UNL     1      47.022   7.082  13.560  0.00  0.00    +0.000 A 
ATOM      5  C   UNL     1      46.746   8.325  12.977  0.00  0.00    +0.000 A 
ATOM      6  C   UNL     1      45.546   8.541  12.286  0.00  0.00    +0.000 A 
ATOM      7  C   UNL     1      44.655   7.471  12.141  0.00  0.00    +0.000 A 
ATOM      8  C   UNL     1      44.932   6.228  12.721  0.00  0.00    +0.000 A 
BRANCH   6   9
ATOM      9  C   UNL     1      45.227   9.891  11.699  0.00  0.00    +0.000 C 
BRANCH   9  10
ATOM     10  N   UNL     1      43.874  10.291  12.004  0.00  0.00    +0.000 N 
ATOM     11  C   UNL     1      42.954  10.488  10.995  0.00  0.00    +0.000 C 
ATOM     12  O   UNL     1      43.210  10.353   9.805  0.00  0.00    +0.000 OA
ATOM     13  H   UNL     1      43.558  10.182  12.957  0.00  0.00    +0.000 HD
BRANCH  11  14
ATOM     14  C   UNL     1      41.585  10.849  11.431  0.00  0.00    +0.000 A 
ATOM     15  C   UNL     1      40.471  10.058  11.140  0.00  0.00    +0.000 A 
ATOM     16  C   UNL     1      39.210  10.467  11.569  0.00  0.00    +0.000 A 
ATOM     17  C   UNL     1      39.109  11.652  12.282  0.00  0.00    +0.000 A 
ATOM     18  N   UNL     1      40.169  12.429  12.599  0.00  0.00    +0.000 NA
ATOM     19  C   UNL     1      41.388  12.004  12.176  0.00  0.00    +0.000 A 
ENDBRANCH  11  14
ENDBRANCH   9  10
ENDBRANCH   6   9
ENDBRANCH   2   3
BRANCH   2  20
ATOM     20  N   UNL     1      47.488   4.841  15.106  0.00  0.00    +0.000 N 
ATOM     21  C   UNL     1      47.469   4.235  16.341  0.00  0.00    +0.000 C 
ATOM     22  O   UNL     1      46.554   3.498  16.699  0.00  0.00    +0.000 OA
ATOM     23  H   UNL     1      48.090   5.652  14.984  0.00  0.00    +0.000 HD
BRANCH  21  24
ATOM     24  C   UNL     1      48.623   4.458  17.215  0.00  0.00    +0.000 A 
ATOM     25  C   UNL     1      48.702   5.632  17.953  0.00  0.00    +0.000 A 
ATOM     26  S   UNL     1      50.125   5.764  18.882  0.00  0.00    +0.000 S 
ATOM     27  C   UNL     1      50.702   4.273  18.302  0.00  0.00    +0.000 A 
ATOM     28  N   UNL     1      51.928   3.809  18.667  0.00  0.00    +0.000 NA
ATOM     29  C   UNL     1      52.254   2.685  18.123  0.00  0.00    +0.000 A 
ATOM     30  N   UNL     1      51.456   1.970  17.266  0.00  0.00    +0.000 N 
ATOM     31  C   UNL     1      50.191   2.375  16.910  0.00  0.00    +0.000 A 
ATOM     32  O   UNL     1      49.464   1.675  16.213  0.00  0.00    +0.000 OA
ATOM     33  C   UNL     1      49.799   3.660  17.451  0.00  0.00    +0.000 A 
ATOM     34  H   UNL     1      51.762   1.081  16.899  0.00  0.00    +0.000 HD
ENDBRANCH  21  24
ENDBRANCH   2  20
TORSDOF 6
ENDMDL
MODEL 7
REMARK VINA RESULT:    -7.109      3.878      5.588
REMARK INTER + INTRA:         -10.859
REMARK INTER:                  -9.678
REMARK INTRA:                  -1.181
REMARK UNBOUND:                -1.256
REMARK  Name = 
REMARK  7 active torsions:
REMARK  status: ('A' for Active; 'I' for Inactive)
REMARK    1  A    between atoms: C_1  and  C_2
REMARK    2  A    between atoms: C_2  and  N_3
REMARK    3  A    between atoms: C_2  and  C_16
REMARK    4  A    between atoms: C_4  and  C_6
REMARK    5  A    between atoms: C_19  and  C_20
REMARK    6  A    between atoms: C_20  and  N_21
REMARK    7  A    between atoms: C_22  and  C_24
REMARK                            x       y       z     vdW  Elec       q    Type
REMARK                         _______ _______ _______ _____ _____    ______ ____
ROOT
ATOM      1  C   UNL     1      47.724   2.877  17.825  0.00  0.00    +0.000 C 
ATOM      2  C   UNL     1      48.650   4.081  17.589  0.00  0.00    +0.000 C 
ENDROOT
BRANCH   2   3
ATOM      3  C   UNL     1      48.190   4.857  16.361  0.00  0.00    +0.000 A 
ATOM      4  C   UNL     1      47.237   4.306  15.492  0.00  0.00    +0.000 A 
ATOM      5  C   UNL     1      46.867   4.974  14.319  0.00  0.00    +0.000 A 
ATOM      6  C   UNL     1      47.445   6.205  13.982  0.00  0.00    +0.000 A 
ATOM      7  C   UNL     1      48.359   6.781  14.872  0.00  0.00    +0.000 A 
ATOM      8  C   UNL     1      48.727   6.115  16.046  0.00  0.00    +0.000 A 
BRANCH   6   9
ATOM      9  C   UNL     1      47.083   6.902  12.697  0.00  0.00    +0.000 C 
BRANCH   9  10
ATOM     10  N   UNL     1      46.768   5.955  11.654  0.00  0.00    +0.000 N 
ATOM     11  C   UNL     1      45.489   5.868  11.146  0.00  0.00    +0.000 C 
ATOM     12  O   UNL     1      44.553   6.555  11.535  0.00  0.00    +0.000 OA
ATOM     13  H   UNL     1      47.540   5.548  11.145  0.00  0.00    +0.000 HD
BRANCH  11  14
ATOM     14  C   UNL     1      45.297   4.895  10.044  0.00  0.00    +0.000 A 
ATOM     15  C   UNL     1      44.498   3.758  10.176  0.00  0.00    +0.000 A 
ATOM     16  C   UNL     1      44.376   2.878   9.102  0.00  0.00    +0.000 A 
ATOM     17  C   UNL     1      45.055   3.172   7.930  0.00  0.00    +0.000 A 
ATOM     18  N   UNL     1      45.818   4.274   7.762  0.00  0.00    +0.000 NA
ATOM     19  C   UNL     1      45.915   5.120   8.820  0.00  0.00    +0.000 A 
ENDBRANCH  11  14
ENDBRANCH   9  10
ENDBRANCH   6   9
ENDBRANCH   2   3
BRANCH   2  20
ATOM     20  N   UNL     1      50.048   3.695  17.461  0.00  0.00    +0.000 N 
ATOM     21  C   UNL     1      50.980   4.038  18.412  0.00  0.00    +0.000 C 
ATOM     22  O   UNL     1      50.680   4.628  19.447  0.00  0.00    +0.000 OA
ATOM     23  H   UNL     1      50.380   3.491  16.521  0.00  0.00    +0.000 HD
BRANCH  21  24
ATOM     24  C   UNL     1      52.366   3.623  18.174  0.00  0.00    +0.000 A 
ATOM     25  C   UNL     1      53.388   4.555  18.301  0.00  0.00    +0.000 A 
ATOM     26  S   UNL     1      54.933   3.931  17.944  0.00  0.00    +0.000 S 
ATOM     27  C   UNL     1      54.285   2.403  17.574  0.00  0.00    +0.000 A 
ATOM     28  N   UNL     1      55.085   1.396  17.129  0.00  0.00    +0.000 NA
ATOM     29  C   UNL     1      54.457   0.303  16.850  0.00  0.00    +0.000 A 
ATOM     30  N   UNL     1      53.105   0.119  16.997  0.00  0.00    +0.000 N 
ATOM     31  C   UNL     1      52.267   1.091  17.490  0.00  0.00    +0.000 A 
ATOM     32  O   UNL     1      51.078   0.872  17.696  0.00  0.00    +0.000 OA
ATOM     33  C   UNL     1      52.916   2.356  17.768  0.00  0.00    +0.000 A 
ATOM     34  H   UNL     1      52.682  -0.773  16.787  0.00  0.00    +0.000 HD
ENDBRANCH  21  24
ENDBRANCH   2  20
TORSDOF 6
ENDMDL
MODEL 8
REMARK VINA RESULT:    -6.808      2.744      3.546
REMARK INTER + INTRA:         -10.452
REMARK INTER:                  -9.685
REMARK INTRA:                  -0.767
REMARK UNBOUND:                -1.256
REMARK  Name = 
REMARK  7 active torsions:
REMARK  status: ('A' for Active; 'I' for Inactive)
REMARK    1  A    between atoms: C_1  and  C_2
REMARK    2  A    between atoms: C_2  and  N_3
REMARK    3  A    between atoms: C_2  and  C_16
REMARK    4  A    between atoms: C_4  and  C_6
REMARK    5  A    between atoms: C_19  and  C_20
REMARK    6  A    between atoms: C_20  and  N_21
REMARK    7  A    between atoms: C_22  and  C_24
REMARK                            x       y       z     vdW  Elec       q    Type
REMARK                         _______ _______ _______ _____ _____    ______ ____
ROOT
ATOM      1  C   UNL     1      48.065   9.130  16.094  0.00  0.00    +0.000 C 
ATOM      2  C   UNL     1      48.851   8.347  15.030  0.00  0.00    +0.000 C 
ENDROOT
BRANCH   2   3
ATOM      3  C   UNL     1      47.912   7.897  13.917  0.00  0.00    +0.000 A 
ATOM      4  C   UNL     1      46.931   8.770  13.424  0.00  0.00    +0.000 A 
ATOM      5  C   UNL     1      46.011   8.341  12.459  0.00  0.00    +0.000 A 
ATOM      6  C   UNL     1      46.045   7.029  11.970  0.00  0.00    +0.000 A 
ATOM      7  C   UNL     1      47.054   6.171  12.424  0.00  0.00    +0.000 A 
ATOM      8  C   UNL     1      47.975   6.600  13.386  0.00  0.00    +0.000 A 
BRANCH   6   9
ATOM      9  C   UNL     1      45.027   6.553  10.967  0.00  0.00    +0.000 C 
BRANCH   9  10
ATOM     10  N   UNL     1      45.588   5.569  10.072  0.00  0.00    +0.000 N 
ATOM     11  C   UNL     1      44.907   4.402   9.794  0.00  0.00    +0.000 C 
ATOM     12  O   UNL     1      43.818   4.118  10.275  0.00  0.00    +0.000 OA
ATOM     13  H   UNL     1      46.352   5.860   9.478  0.00  0.00    +0.000 HD
BRANCH  11  14
ATOM     14  C   UNL     1      45.558   3.491   8.823  0.00  0.00    +0.000 A 
ATOM     15  C   UNL     1      46.205   3.955   7.675  0.00  0.00    +0.000 A 
ATOM     16  C   UNL     1      46.783   3.039   6.798  0.00  0.00    +0.000 A 
ATOM     17  C   UNL     1      46.698   1.689   7.105  0.00  0.00    +0.000 A 
ATOM     18  N   UNL     1      46.099   1.209   8.217  0.00  0.00    +0.000 NA
ATOM     19  C   UNL     1      45.551   2.123   9.060  0.00  0.00    +0.000 A 
ENDBRANCH  11  14
ENDBRANCH   9  10
ENDBRANCH   6   9
ENDBRANCH   2   3
BRANCH   2  20
ATOM     20  N   UNL     1      49.568   7.209  15.589  0.00  0.00    +0.000 N 
ATOM     21  C   UNL     1      50.587   7.376  16.498  0.00  0.00    +0.000 C 
ATOM     22  O   UNL     1      50.906   8.478  16.936  0.00  0.00    +0.000 OA
ATOM     23  H   UNL     1      49.551   6.348  15.048  0.00  0.00    +0.000 HD
BRANCH  21  24
ATOM     24  C   UNL     1      51.261   6.167  16.980  0.00  0.00    +0.000 A 
ATOM     25  C   UNL     1      52.621   6.212  17.263  0.00  0.00    +0.000 A 
ATOM     26  S   UNL     1      53.266   4.717  17.764  0.00  0.00    +0.000 S 
ATOM     27  C   UNL     1      51.759   3.949  17.585  0.00  0.00    +0.000 A 
ATOM     28  N   UNL     1      51.627   2.613  17.803  0.00  0.00    +0.000 NA
ATOM     29  C   UNL     1      50.438   2.155  17.594  0.00  0.00    +0.000 A 
ATOM     30  N   UNL     1      49.364   2.918  17.209  0.00  0.00    +0.000 N 
ATOM     31  C   UNL     1      49.440   4.279  17.027  0.00  0.00    +0.000 A 
ATOM     32  O   UNL     1      48.445   4.950  16.770  0.00  0.00    +0.000 OA
ATOM     33  C   UNL     1      50.767   4.832  17.197  0.00  0.00    +0.000 A 
ATOM     34  H   UNL     1      48.453   2.500  17.091  0.00  0.00    +0.000 HD
ENDBRANCH  21  24
ENDBRANCH   2  20
TORSDOF 6
ENDMDL
MODEL 9
REMARK VINA RESULT:    -6.654      4.648      6.443
REMARK INTER + INTRA:         -10.244
REMARK INTER:                  -9.199
REMARK INTRA:                  -1.044
REMARK UNBOUND:                -1.256
REMARK  Name = 
REMARK  7 active torsions:
REMARK  status: ('A' for Active; 'I' for Inactive)
REMARK    1  A    between atoms: C_1  and  C_2
REMARK    2  A    between atoms: C_2  and  N_3
REMARK    3  A    between atoms: C_2  and  C_16
REMARK    4  A    between atoms: C_4  and  C_6
REMARK    5  A    between atoms: C_19  and  C_20
REMARK    6  A    between atoms: C_20  and  N_21
REMARK    7  A    between atoms: C_22  and  C_24
REMARK                            x       y       z     vdW  Elec       q    Type
REMARK                         _______ _______ _______ _____ _____    ______ ____
ROOT
ATOM      1  C   UNL     1      47.214   9.066  14.373  0.00  0.00    +0.000 C 
ATOM      2  C   UNL     1      47.036   9.064  12.846  0.00  0.00    +0.000 C 
ENDROOT
BRANCH   2   3
ATOM      3  C   UNL     1      46.342   7.780  12.406  0.00  0.00    +0.000 A 
ATOM      4  C   UNL     1      45.110   7.835  11.740  0.00  0.00    +0.000 A 
ATOM      5  C   UNL     1      44.425   6.661  11.403  0.00  0.00    +0.000 A 
ATOM      6  C   UNL     1      44.952   5.405  11.731  0.00  0.00    +0.000 A 
ATOM      7  C   UNL     1      46.205   5.346  12.351  0.00  0.00    +0.000 A 
ATOM      8  C   UNL     1      46.891   6.519  12.686  0.00  0.00    +0.000 A 
BRANCH   6   9
ATOM      9  C   UNL     1      44.194   4.143  11.411  0.00  0.00    +0.000 C 
BRANCH   9  10
ATOM     10  N   UNL     1      44.919   3.316  10.476  0.00  0.00    +0.000 N 
ATOM     11  C   UNL     1      44.848   3.559   9.120  0.00  0.00    +0.000 C 
ATOM     12  O   UNL     1      44.180   4.457   8.624  0.00  0.00    +0.000 OA
ATOM     13  H   UNL     1      45.655   2.731  10.845  0.00  0.00    +0.000 HD
BRANCH  11  14
ATOM     14  C   UNL     1      45.673   2.676   8.263  0.00  0.00    +0.000 A 
ATOM     15  C   UNL     1      46.353   3.145   7.136  0.00  0.00    +0.000 A 
ATOM     16  C   UNL     1      47.099   2.254   6.367  0.00  0.00    +0.000 A 
ATOM     17  C   UNL     1      47.143   0.924   6.756  0.00  0.00    +0.000 A 
ATOM     18  N   UNL     1      46.516   0.443   7.852  0.00  0.00    +0.000 NA
ATOM     19  C   UNL     1      45.802   1.333   8.590  0.00  0.00    +0.000 A 
ENDBRANCH  11  14
ENDBRANCH   9  10
ENDBRANCH   6   9
ENDBRANCH   2   3
BRANCH   2  20
ATOM     20  N   UNL     1      48.296   9.238  12.136  0.00  0.00    +0.000 N 
ATOM     21  C   UNL     1      48.777  10.487  11.819  0.00  0.00    +0.000 C 
ATOM     22  O   UNL     1      48.213  11.519  12.168  0.00  0.00    +0.000 OA
ATOM     23  H   UNL     1      48.620   8.448  11.582  0.00  0.00    +0.000 HD
BRANCH  21  24
ATOM     24  C   UNL     1      50.041  10.550  11.080  0.00  0.00    +0.000 A 
ATOM     25  C   UNL     1      50.210  11.521  10.101  0.00  0.00    +0.000 A 
ATOM     26  S   UNL     1      51.712  11.433   9.300  0.00  0.00    +0.000 S 
ATOM     27  C   UNL     1      52.174  10.071  10.208  0.00  0.00    +0.000 A 
ATOM     28  N   UNL     1      53.358   9.445   9.973  0.00  0.00    +0.000 NA
ATOM     29  C   UNL     1      53.564   8.404  10.708  0.00  0.00    +0.000 A 
ATOM     30  N   UNL     1      52.702   7.946  11.673  0.00  0.00    +0.000 N 
ATOM     31  C   UNL     1      51.519   8.577  11.979  0.00  0.00    +0.000 A 
ATOM     32  O   UNL     1      50.810   8.199  12.906  0.00  0.00    +0.000 OA
ATOM     33  C   UNL     1      51.217   9.720  11.144  0.00  0.00    +0.000 A 
ATOM     34  H   UNL     1      52.939   7.141  12.233  0.00  0.00    +0.000 HD
ENDBRANCH  21  24
ENDBRANCH   2  20
TORSDOF 6
ENDMDL
