MODEL 1
REMARK VINA RESULT:    -7.587      0.000      0.000
REMARK INTER + INTRA:         -11.682
REMARK INTER:                 -10.691
REMARK INTRA:                  -0.990
REMARK UNBOUND:                -0.990
REMARK  Name = 
REMARK  9 active torsions:
REMARK  status: ('A' for Active; 'I' for Inactive)
REMARK    1  A    between atoms: C_1  and  C_2
REMARK    2  A    between atoms: C_7  and  C_8
REMARK    3  A    between atoms: N_10  and  C_11
REMARK    4  A    between atoms: C_11  and  C_12
REMARK    5  A    between atoms: C_15  and  C_16
REMARK    6  A    between atoms: C_16  and  N_17
REMARK    7  A    between atoms: N_17  and  C_18
REMARK    8  A    between atoms: N_17  and  C_19
REMARK    9  A    between atoms: C_19  and  C_20
REMARK                            x       y       z     vdW  Elec       q    Type
REMARK                         _______ _______ _______ _____ _____    ______ ____
ROOT
ATOM      1  C   UNL     1      48.856   7.014  14.348  0.00  0.00    +0.000 C 
ENDROOT
BRANCH   1   2
ATOM      2  C   UNL     1      47.756   6.456  13.484  0.00  0.00    +0.000 A 
ATOM      3  C   UNL     1      46.966   5.391  13.936  0.00  0.00    +0.000 A 
ATOM      4  C   UNL     1      45.920   4.901  13.150  0.00  0.00    +0.000 A 
ATOM      5  C   UNL     1      45.647   5.465  11.896  0.00  0.00    +0.000 A 
ATOM      6  C   UNL     1      46.473   6.494  11.422  0.00  0.00    +0.000 A 
ATOM      7  C   UNL     1      47.519   6.982  12.207  0.00  0.00    +0.000 A 
BRANCH   5   8
ATOM      8  C   UNL     1      44.457   5.004  11.079  0.00  0.00    +0.000 C 
BRANCH   8   9
ATOM      9  N   UNL     1      44.512   3.567  10.723  0.00  0.00    +0.000 NA
ATOM     10  C   UNL     1      43.527   2.795  11.494  0.00  0.00    +0.000 C 
BRANCH   9  11
ATOM     11  C   UNL     1      44.232   3.381   9.281  0.00  0.00    +0.000 C 
BRANCH  11  12
ATOM     12  C   UNL     1      45.422   2.956   8.450  0.00  0.00    +0.000 A 
ATOM     13  C   UNL     1      45.861   1.636   8.456  0.00  0.00    +0.000 A 
ATOM     14  N   UNL     1      46.912   1.207   7.717  0.00  0.00    +0.000 NA
ATOM     15  C   UNL     1      47.515   2.156   6.968  0.00  0.00    +0.000 A 
ATOM     16  C   UNL     1      47.093   3.475   6.962  0.00  0.00    +0.000 A 
ATOM     17  N   UNL     1      46.044   3.905   7.698  0.00  0.00    +0.000 NA
ENDBRANCH  11  12
ENDBRANCH   9  11
ENDBRANCH   8   9
ENDBRANCH   5   8
ENDBRANCH   1   2
BRANCH   1  20
ATOM     18  C   UNL     1      49.281   6.363  16.672  0.00  0.00    +0.000 C 
ATOM     19  O   UNL     1      50.324   5.795  16.349  0.00  0.00    +0.000 OA
ATOM     20  N   UNL     1      48.498   6.992  15.742  0.00  0.00    +0.000 N 
ATOM     21  H   UNL     1      47.649   7.481  16.013  0.00  0.00    +0.000 HD
BRANCH  18  28
ATOM     22  C   UNL     1      46.450   9.930  21.798  0.00  0.00    +0.000 C 
ATOM     23  C   UNL     1      47.087   8.984  20.824  0.00  0.00    +0.000 A 
ATOM     24  N   UNL     1      47.368   7.764  21.154  0.00  0.00    +0.000 NA
ATOM     25  C   UNL     1      47.939   7.024  20.165  0.00  0.00    +0.000 A 
ATOM     26  S   UNL     1      48.367   5.400  20.435  0.00  0.00    +0.000 S 
ATOM     27  C   UNL     1      48.945   5.233  18.841  0.00  0.00    +0.000 A 
ATOM     28  C   UNL     1      48.829   6.385  18.073  0.00  0.00    +0.000 A 
ATOM     29  C   UNL     1      48.242   7.436  18.879  0.00  0.00    +0.000 A 
ATOM     30  C   UNL     1      47.922   8.814  18.562  0.00  0.00    +0.000 A 
ATOM     31  O   UNL     1      48.147   9.349  17.482  0.00  0.00    +0.000 OA
ATOM     32  N   UNL     1      47.336   9.520  19.584  0.00  0.00    +0.000 N 
ATOM     33  H   UNL     1      47.110  10.482  19.376  0.00  0.00    +0.000 HD
ENDBRANCH  18  28
ENDBRANCH   1  20
TORSDOF 7
ENDMDL
MODEL 2
REMARK VINA RESULT:    -7.417      1.552      1.991
REMARK INTER + INTRA:         -11.442
REMARK INTER:                 -10.480
REMARK INTRA:                  -0.962
REMARK UNBOUND:                -0.990
REMARK  Name = 
REMARK  9 active torsions:
REMARK  status: ('A' for Active; 'I' for Inactive)
REMARK    1  A    between atoms: C_1  and  C_2
REMARK    2  A    between atoms: C_7  and  C_8
REMARK    3  A    between atoms: N_10  and  C_11
REMARK    4  A    between atoms: C_11  and  C_12
REMARK    5  A    between atoms: C_15  and  C_16
REMARK    6  A    between atoms: C_16  and  N_17
REMARK    7  A    between atoms: N_17  and  C_18
REMARK    8  A    between atoms: N_17  and  C_19
REMARK    9  A    between atoms: C_19  and  C_20
REMARK                            x       y       z     vdW  Elec       q    Type
REMARK                         _______ _______ _______ _____ _____    ______ ____
ROOT
ATOM      1  C   UNL     1      47.762   4.275  16.155  0.00  0.00    +0.000 C 
ENDROOT
BRANCH   1   2
ATOM      2  C   UNL     1      47.219   4.563  14.780  0.00  0.00    +0.000 A 
ATOM      3  C   UNL     1      46.619   3.548  14.024  0.00  0.00    +0.000 A 
ATOM      4  C   UNL     1      46.080   3.826  12.765  0.00  0.00    +0.000 A 
ATOM      5  C   UNL     1      46.133   5.124  12.239  0.00  0.00    +0.000 A 
ATOM      6  C   UNL     1      46.781   6.127  12.973  0.00  0.00    +0.000 A 
ATOM      7  C   UNL     1      47.322   5.848  14.230  0.00  0.00    +0.000 A 
BRANCH   5   8
ATOM      8  C   UNL     1      45.467   5.454  10.918  0.00  0.00    +0.000 C 
BRANCH   8   9
ATOM      9  N   UNL     1      44.436   4.469  10.520  0.00  0.00    +0.000 NA
ATOM     10  C   UNL     1      43.111   4.859  11.026  0.00  0.00    +0.000 C 
BRANCH   9  11
ATOM     11  C   UNL     1      44.363   4.364   9.045  0.00  0.00    +0.000 C 
BRANCH  11  12
ATOM     12  C   UNL     1      45.346   3.394   8.426  0.00  0.00    +0.000 A 
ATOM     13  C   UNL     1      45.385   2.064   8.831  0.00  0.00    +0.000 A 
ATOM     14  N   UNL     1      46.237   1.156   8.294  0.00  0.00    +0.000 NA
ATOM     15  C   UNL     1      47.057   1.636   7.334  0.00  0.00    +0.000 A 
ATOM     16  C   UNL     1      47.033   2.960   6.930  0.00  0.00    +0.000 A 
ATOM     17  N   UNL     1      46.183   3.866   7.463  0.00  0.00    +0.000 NA
ENDBRANCH  11  12
ENDBRANCH   9  11
ENDBRANCH   8   9
ENDBRANCH   5   8
ENDBRANCH   1   2
BRANCH   1  20
ATOM     18  C   UNL     1      48.510   6.092  17.620  0.00  0.00    +0.000 C 
ATOM     19  O   UNL     1      49.688   5.855  17.354  0.00  0.00    +0.000 OA
ATOM     20  N   UNL     1      47.495   5.357  17.067  0.00  0.00    +0.000 N 
ATOM     21  H   UNL     1      46.523   5.567  17.269  0.00  0.00    +0.000 HD
BRANCH  18  28
ATOM     22  C   UNL     1      47.059  12.733  18.514  0.00  0.00    +0.000 C 
ATOM     23  C   UNL     1      47.351  11.262  18.538  0.00  0.00    +0.000 A 
ATOM     24  N   UNL     1      47.275  10.578  19.635  0.00  0.00    +0.000 NA
ATOM     25  C   UNL     1      47.564   9.255  19.501  0.00  0.00    +0.000 A 
ATOM     26  S   UNL     1      47.508   8.215  20.846  0.00  0.00    +0.000 S 
ATOM     27  C   UNL     1      47.947   6.872  19.893  0.00  0.00    +0.000 A 
ATOM     28  C   UNL     1      48.141   7.172  18.550  0.00  0.00    +0.000 A 
ATOM     29  C   UNL     1      47.921   8.588  18.342  0.00  0.00    +0.000 A 
ATOM     30  C   UNL     1      48.006   9.400  17.144  0.00  0.00    +0.000 A 
ATOM     31  O   UNL     1      48.333   8.978  16.040  0.00  0.00    +0.000 OA
ATOM     32  N   UNL     1      47.695  10.726  17.322  0.00  0.00    +0.000 N 
ATOM     33  H   UNL     1      47.752  11.302  16.495  0.00  0.00    +0.000 HD
ENDBRANCH  18  28
ENDBRANCH   1  20
TORSDOF 7
ENDMDL
MODEL 3
REMARK VINA RESULT:    -7.171      1.554      2.258
REMARK INTER + INTRA:         -11.096
REMARK INTER:                 -10.386
REMARK INTRA:                  -0.710
REMARK UNBOUND:                -0.990
REMARK  Name = 
REMARK  9 active torsions:
REMARK  status: ('A' for Active; 'I' for Inactive)
REMARK    1  A    between atoms: C_1  and  C_2
REMARK    2  A    between atoms: C_7  and  C_8
REMARK    3  A    between atoms: N_10  and  C_11
REMARK    4  A    between atoms: C_11  and  C_12
REMARK    5  A    between atoms: C_15  and  C_16
REMARK    6  A    between atoms: C_16  and  N_17
REMARK    7  A    between atoms: N_17  and  C_18
REMARK    8  A    between atoms: N_17  and  C_19
REMARK    9  A    between atoms: C_19  and  C_20
REMARK                            x       y       z     vdW  Elec       q    Type
REMARK                         _______ _______ _______ _____ _____    ______ ____
ROOT
ATOM      1  C   UNL     1      48.240   8.254  13.586  0.00  0.00    +0.000 C 
ENDROOT
BRANCH   1   2
ATOM      2  C   UNL     1      47.087   7.494  12.985  0.00  0.00    +0.000 A 
ATOM      3  C   UNL     1      46.132   8.153  12.200  0.00  0.00    +0.000 A 
ATOM      4  C   UNL     1      45.085   7.440  11.610  0.00  0.00    +0.000 A 
ATOM      5  C   UNL     1      44.973   6.055  11.797  0.00  0.00    +0.000 A 
ATOM      6  C   UNL     1      45.897   5.406  12.627  0.00  0.00    +0.000 A 
ATOM      7  C   UNL     1      46.942   6.120  13.218  0.00  0.00    +0.000 A 
BRANCH   5   8
ATOM      8  C   UNL     1      43.898   5.259  11.085  0.00  0.00    +0.000 C 
BRANCH   8   9
ATOM      9  N   UNL     1      44.369   3.942  10.599  0.00  0.00    +0.000 NA
ATOM     10  C   UNL     1      43.592   2.849  11.201  0.00  0.00    +0.000 C 
BRANCH   9  11
ATOM     11  C   UNL     1      44.237   3.857   9.126  0.00  0.00    +0.000 C 
BRANCH  11  12
ATOM     12  C   UNL     1      45.371   3.142   8.425  0.00  0.00    +0.000 A 
ATOM     13  C   UNL     1      45.592   1.784   8.630  0.00  0.00    +0.000 A 
ATOM     14  N   UNL     1      46.584   1.098   8.012  0.00  0.00    +0.000 NA
ATOM     15  C   UNL     1      47.356   1.830   7.178  0.00  0.00    +0.000 A 
ATOM     16  C   UNL     1      47.151   3.184   6.974  0.00  0.00    +0.000 A 
ATOM     17  N   UNL     1      46.160   3.869   7.588  0.00  0.00    +0.000 NA
ENDBRANCH  11  12
ENDBRANCH   9  11
ENDBRANCH   8   9
ENDBRANCH   5   8
ENDBRANCH   1   2
BRANCH   1  20
ATOM     18  C   UNL     1      48.747   7.814  15.943  0.00  0.00    +0.000 C 
ATOM     19  O   UNL     1      49.584   6.968  15.631  0.00  0.00    +0.000 OA
ATOM     20  N   UNL     1      48.039   8.497  14.991  0.00  0.00    +0.000 N 
ATOM     21  H   UNL     1      47.365   9.212  15.248  0.00  0.00    +0.000 HD
BRANCH  18  28
ATOM     22  C   UNL     1      47.246   5.466  22.208  0.00  0.00    +0.000 C 
ATOM     23  C   UNL     1      47.561   6.182  20.928  0.00  0.00    +0.000 A 
ATOM     24  N   UNL     1      47.681   7.471  20.889  0.00  0.00    +0.000 NA
ATOM     25  C   UNL     1      47.972   7.977  19.659  0.00  0.00    +0.000 A 
ATOM     26  S   UNL     1      48.166   9.652  19.436  0.00  0.00    +0.000 S 
ATOM     27  C   UNL     1      48.493   9.447  17.776  0.00  0.00    +0.000 A 
ATOM     28  C   UNL     1      48.466   8.123  17.355  0.00  0.00    +0.000 A 
ATOM     29  C   UNL     1      48.146   7.272  18.481  0.00  0.00    +0.000 A 
ATOM     30  C   UNL     1      47.987   5.834  18.574  0.00  0.00    +0.000 A 
ATOM     31  O   UNL     1      48.079   5.062  17.626  0.00  0.00    +0.000 OA
ATOM     32  N   UNL     1      47.706   5.364  19.834  0.00  0.00    +0.000 N 
ATOM     33  H   UNL     1      47.591   4.364  19.912  0.00  0.00    +0.000 HD
ENDBRANCH  18  28
ENDBRANCH   1  20
TORSDOF 7
ENDMDL
MODEL 4
REMARK VINA RESULT:    -6.919      3.749      5.438
REMARK INTER + INTRA:         -10.740
REMARK INTER:                  -9.763
REMARK INTRA:                  -0.977
REMARK UNBOUND:                -0.990
REMARK  Name = 
REMARK  9 active torsions:
REMARK  status: ('A' for Active; 'I' for Inactive)
REMARK    1  A    between atoms: C_1  and  C_2
REMARK    2  A    between atoms: C_7  and  C_8
REMARK    3  A    between atoms: N_10  and  C_11
REMARK    4  A    between atoms: C_11  and  C_12
REMARK    5  A    between atoms: C_15  and  C_16
REMARK    6  A    between atoms: C_16  and  N_17
REMARK    7  A    between atoms: N_17  and  C_18
REMARK    8  A    between atoms: N_17  and  C_19
REMARK    9  A    between atoms: C_19  and  C_20
REMARK                            x       y       z     vdW  Elec       q    Type
REMARK                         _______ _______ _______ _____ _____    ______ ____
ROOT
ATOM      1  C   UNL     1      47.862   4.439  16.904  0.00  0.00    +0.000 C 
ENDROOT
BRANCH   1   2
ATOM      2  C   UNL     1      47.426   4.657  15.480  0.00  0.00    +0.000 A 
ATOM      3  C   UNL     1      46.959   3.587  14.706  0.00  0.00    +0.000 A 
ATOM      4  C   UNL     1      46.518   3.798  13.397  0.00  0.00    +0.000 A 
ATOM      5  C   UNL     1      46.538   5.083  12.838  0.00  0.00    +0.000 A 
ATOM      6  C   UNL     1      47.057   6.143  13.594  0.00  0.00    +0.000 A 
ATOM      7  C   UNL     1      47.499   5.931  14.901  0.00  0.00    +0.000 A 
BRANCH   5   8
ATOM      8  C   UNL     1      45.973   5.338  11.454  0.00  0.00    +0.000 C 
BRANCH   8   9
ATOM      9  N   UNL     1      44.613   4.782  11.267  0.00  0.00    +0.000 NA
ATOM     10  C   UNL     1      43.606   5.611  11.946  0.00  0.00    +0.000 C 
BRANCH   9  11
ATOM     11  C   UNL     1      44.275   4.718   9.826  0.00  0.00    +0.000 C 
BRANCH  11  12
ATOM     12  C   UNL     1      45.129   3.770   9.013  0.00  0.00    +0.000 A 
ATOM     13  C   UNL     1      45.143   2.408   9.290  0.00  0.00    +0.000 A 
ATOM     14  N   UNL     1      45.880   1.520   8.579  0.00  0.00    +0.000 NA
ATOM     15  C   UNL     1      46.610   2.052   7.575  0.00  0.00    +0.000 A 
ATOM     16  C   UNL     1      46.610   3.408   7.296  0.00  0.00    +0.000 A 
ATOM     17  N   UNL     1      45.875   4.295   8.003  0.00  0.00    +0.000 NA
ENDBRANCH  11  12
ENDBRANCH   9  11
ENDBRANCH   8   9
ENDBRANCH   5   8
ENDBRANCH   1   2
BRANCH   1  20
ATOM     18  C   UNL     1      50.039   4.461  18.030  0.00  0.00    +0.000 C 
ATOM     19  O   UNL     1      49.587   5.148  18.944  0.00  0.00    +0.000 OA
ATOM     20  N   UNL     1      49.251   4.065  16.982  0.00  0.00    +0.000 N 
ATOM     21  H   UNL     1      49.618   3.479  16.239  0.00  0.00    +0.000 HD
BRANCH  18  28
ATOM     22  C   UNL     1      54.585  -0.558  16.952  0.00  0.00    +0.000 C 
ATOM     23  C   UNL     1      53.766   0.664  17.245  0.00  0.00    +0.000 A 
ATOM     24  N   UNL     1      54.322   1.784  17.582  0.00  0.00    +0.000 NA
ATOM     25  C   UNL     1      53.452   2.804  17.813  0.00  0.00    +0.000 A 
ATOM     26  S   UNL     1      54.020   4.343  18.262  0.00  0.00    +0.000 S 
ATOM     27  C   UNL     1      52.436   4.967  18.332  0.00  0.00    +0.000 A 
ATOM     28  C   UNL     1      51.450   4.039  18.019  0.00  0.00    +0.000 A 
ATOM     29  C   UNL     1      52.071   2.765  17.726  0.00  0.00    +0.000 A 
ATOM     30  C   UNL     1      51.495   1.485  17.359  0.00  0.00    +0.000 A 
ATOM     31  O   UNL     1      50.293   1.266  17.263  0.00  0.00    +0.000 OA
ATOM     32  N   UNL     1      52.410   0.488  17.124  0.00  0.00    +0.000 N 
ATOM     33  H   UNL     1      52.021  -0.409  16.869  0.00  0.00    +0.000 HD
ENDBRANCH  18  28
ENDBRANCH   1  20
TORSDOF 7
ENDMDL
MODEL 5
REMARK VINA RESULT:    -6.898      2.794      3.324
REMARK INTER + INTRA:         -10.711
REMARK INTER:                  -9.466
REMARK INTRA:                  -1.245
REMARK UNBOUND:                -0.990
REMARK  Name = 
REMARK  9 active torsions:
REMARK  status: ('A' for Active; 'I' for Inactive)
REMARK    1  A    between atoms: C_1  and  C_2
REMARK    2  A    between atoms: C_7  and  C_8
REMARK    3  A    between atoms: N_10  and  C_11
REMARK    4  A    between atoms: C_11  and  C_12
REMARK    5  A    between atoms: C_15  and  C_16
REMARK    6  A    between atoms: C_16  and  N_17
REMARK    7  A    between atoms: N_17  and  C_18
REMARK    8  A    between atoms: N_17  and  C_19
REMARK    9  A    between atoms: C_19  and  C_20
REMARK                            x       y       z     vdW  Elec       q    Type
REMARK                         _______ _______ _______ _____ _____    ______ ____
ROOT
ATOM      1  C   UNL     1      48.297   9.101  12.651  0.00  0.00    +0.000 C 
ENDROOT
BRANCH   1   2
ATOM      2  C   UNL     1      47.174   8.204  12.201  0.00  0.00    +0.000 A 
ATOM      3  C   UNL     1      47.424   6.872  11.846  0.00  0.00    +0.000 A 
ATOM      4  C   UNL     1      46.375   6.030  11.467  0.00  0.00    +0.000 A 
ATOM      5  C   UNL     1      45.057   6.507  11.433  0.00  0.00    +0.000 A 
ATOM      6  C   UNL     1      44.816   7.854  11.735  0.00  0.00    +0.000 A 
ATOM      7  C   UNL     1      45.865   8.695  12.112  0.00  0.00    +0.000 A 
BRANCH   5   8
ATOM      8  C   UNL     1      43.903   5.577  11.116  0.00  0.00    +0.000 C 
BRANCH   8   9
ATOM      9  N   UNL     1      44.317   4.163  10.962  0.00  0.00    +0.000 NA
ATOM     10  C   UNL     1      43.677   3.313  11.977  0.00  0.00    +0.000 C 
BRANCH   9  11
ATOM     11  C   UNL     1      43.942   3.658   9.621  0.00  0.00    +0.000 C 
BRANCH  11  12
ATOM     12  C   UNL     1      45.104   3.234   8.751  0.00  0.00    +0.000 A 
ATOM     13  C   UNL     1      45.523   1.908   8.717  0.00  0.00    +0.000 A 
ATOM     14  N   UNL     1      46.549   1.480   7.942  0.00  0.00    +0.000 NA
ATOM     15  C   UNL     1      47.147   2.438   7.200  0.00  0.00    +0.000 A 
ATOM     16  C   UNL     1      46.744   3.762   7.232  0.00  0.00    +0.000 A 
ATOM     17  N   UNL     1      45.720   4.191   8.004  0.00  0.00    +0.000 NA
ENDBRANCH  11  12
ENDBRANCH   9  11
ENDBRANCH   8   9
ENDBRANCH   5   8
ENDBRANCH   1   2
BRANCH   1  20
ATOM     18  C   UNL     1      50.249   8.177  13.811  0.00  0.00    +0.000 C 
ATOM     19  O   UNL     1      50.918   8.232  12.780  0.00  0.00    +0.000 OA
ATOM     20  N   UNL     1      48.943   8.589  13.832  0.00  0.00    +0.000 N 
ATOM     21  H   UNL     1      48.397   8.565  14.688  0.00  0.00    +0.000 HD
BRANCH  18  28
ATOM     22  C   UNL     1      49.430   4.257  19.376  0.00  0.00    +0.000 C 
ATOM     23  C   UNL     1      49.808   5.166  18.244  0.00  0.00    +0.000 A 
ATOM     24  N   UNL     1      50.972   5.731  18.193  0.00  0.00    +0.000 NA
ATOM     25  C   UNL     1      51.171   6.524  17.105  0.00  0.00    +0.000 A 
ATOM     26  S   UNL     1      52.649   7.337  16.885  0.00  0.00    +0.000 S 
ATOM     27  C   UNL     1      52.114   8.025  15.421  0.00  0.00    +0.000 A 
ATOM     28  C   UNL     1      50.821   7.659  15.065  0.00  0.00    +0.000 A 
ATOM     29  C   UNL     1      50.278   6.781  16.080  0.00  0.00    +0.000 A 
ATOM     30  C   UNL     1      48.983   6.138  16.190  0.00  0.00    +0.000 A 
ATOM     31  O   UNL     1      48.068   6.277  15.387  0.00  0.00    +0.000 OA
ATOM     32  N   UNL     1      48.830   5.337  17.296  0.00  0.00    +0.000 N 
ATOM     33  H   UNL     1      47.932   4.885  17.385  0.00  0.00    +0.000 HD
ENDBRANCH  18  28
ENDBRANCH   1  20
TORSDOF 7
ENDMDL
MODEL 6
REMARK VINA RESULT:    -6.807      4.160      6.450
REMARK INTER + INTRA:         -10.584
REMARK INTER:                  -9.547
REMARK INTRA:                  -1.037
REMARK UNBOUND:                -0.990
REMARK  Name = 
REMARK  9 active torsions:
REMARK  status: ('A' for Active; 'I' for Inactive)
REMARK    1  A    between atoms: C_1  and  C_2
REMARK    2  A    between atoms: C_7  and  C_8
REMARK    3  A    between atoms: N_10  and  C_11
REMARK    4  A    between atoms: C_11  and  C_12
REMARK    5  A    between atoms: C_15  and  C_16
REMARK    6  A    between atoms: C_16  and  N_17
REMARK    7  A    between atoms: N_17  and  C_18
REMARK    8  A    between atoms: N_17  and  C_19
REMARK    9  A    between atoms: C_19  and  C_20
REMARK                            x       y       z     vdW  Elec       q    Type
REMARK                         _______ _______ _______ _____ _____    ______ ____
ROOT
ATOM      1  C   UNL     1      48.485   4.420  17.425  0.00  0.00    +0.000 C 
ENDROOT
BRANCH   1   2
ATOM      2  C   UNL     1      48.117   5.042  16.104  0.00  0.00    +0.000 A 
ATOM      3  C   UNL     1      47.220   4.401  15.240  0.00  0.00    +0.000 A 
ATOM      4  C   UNL     1      46.849   4.998  14.032  0.00  0.00    +0.000 A 
ATOM      5  C   UNL     1      47.371   6.247  13.666  0.00  0.00    +0.000 A 
ATOM      6  C   UNL     1      48.309   6.861  14.506  0.00  0.00    +0.000 A 
ATOM      7  C   UNL     1      48.681   6.263  15.711  0.00  0.00    +0.000 A 
BRANCH   5   8
ATOM      8  C   UNL     1      46.901   6.944  12.405  0.00  0.00    +0.000 C 
BRANCH   8   9
ATOM      9  N   UNL     1      45.522   7.474  12.508  0.00  0.00    +0.000 NA
ATOM     10  C   UNL     1      45.519   8.944  12.493  0.00  0.00    +0.000 C 
BRANCH   9  11
ATOM     11  C   UNL     1      44.697   6.990  11.377  0.00  0.00    +0.000 C 
BRANCH  11  12
ATOM     12  C   UNL     1      44.182   5.575  11.523  0.00  0.00    +0.000 A 
ATOM     13  C   UNL     1      44.156   4.710  10.434  0.00  0.00    +0.000 A 
ATOM     14  N   UNL     1      43.718   3.431  10.521  0.00  0.00    +0.000 NA
ATOM     15  C   UNL     1      43.300   3.048  11.748  0.00  0.00    +0.000 A 
ATOM     16  C   UNL     1      43.314   3.904  12.837  0.00  0.00    +0.000 A 
ATOM     17  N   UNL     1      43.752   5.180  12.752  0.00  0.00    +0.000 NA
ENDBRANCH  11  12
ENDBRANCH   9  11
ENDBRANCH   8   9
ENDBRANCH   5   8
ENDBRANCH   1   2
BRANCH   1  20
ATOM     18  C   UNL     1      50.708   4.247  18.443  0.00  0.00    +0.000 C 
ATOM     19  O   UNL     1      50.353   4.940  19.396  0.00  0.00    +0.000 OA
ATOM     20  N   UNL     1      49.843   3.942  17.426  0.00  0.00    +0.000 N 
ATOM     21  H   UNL     1      50.130   3.352  16.651  0.00  0.00    +0.000 HD
BRANCH  18  28
ATOM     22  C   UNL     1      54.826  -0.952  16.703  0.00  0.00    +0.000 C 
ATOM     23  C   UNL     1      54.111   0.289  17.150  0.00  0.00    +0.000 A 
ATOM     24  N   UNL     1      54.759   1.316  17.599  0.00  0.00    +0.000 NA
ATOM     25  C   UNL     1      53.975   2.368  17.962  0.00  0.00    +0.000 A 
ATOM     26  S   UNL     1      54.670   3.797  18.569  0.00  0.00    +0.000 S 
ATOM     27  C   UNL     1      53.142   4.529  18.746  0.00  0.00    +0.000 A 
ATOM     28  C   UNL     1      52.081   3.722  18.352  0.00  0.00    +0.000 A 
ATOM     29  C   UNL     1      52.595   2.445  17.903  0.00  0.00    +0.000 A 
ATOM     30  C   UNL     1      51.914   1.264  17.408  0.00  0.00    +0.000 A 
ATOM     31  O   UNL     1      50.697   1.151  17.315  0.00  0.00    +0.000 OA
ATOM     32  N   UNL     1      52.743   0.232  17.041  0.00  0.00    +0.000 N 
ATOM     33  H   UNL     1      52.281  -0.596  16.696  0.00  0.00    +0.000 HD
ENDBRANCH  18  28
ENDBRANCH   1  20
TORSDOF 7
ENDMDL
MODEL 7
REMARK VINA RESULT:    -6.554      3.981      9.934
REMARK INTER + INTRA:         -10.226
REMARK INTER:                  -9.203
REMARK INTRA:                  -1.023
REMARK UNBOUND:                -0.990
REMARK  Name = 
REMARK  9 active torsions:
REMARK  status: ('A' for Active; 'I' for Inactive)
REMARK    1  A    between atoms: C_1  and  C_2
REMARK    2  A    between atoms: C_7  and  C_8
REMARK    3  A    between atoms: N_10  and  C_11
REMARK    4  A    between atoms: C_11  and  C_12
REMARK    5  A    between atoms: C_15  and  C_16
REMARK    6  A    between atoms: C_16  and  N_17
REMARK    7  A    between atoms: N_17  and  C_18
REMARK    8  A    between atoms: N_17  and  C_19
REMARK    9  A    between atoms: C_19  and  C_20
REMARK                            x       y       z     vdW  Elec       q    Type
REMARK                         _______ _______ _______ _____ _____    ______ ____
ROOT
ATOM      1  C   UNL     1      45.183   6.971  11.997  0.00  0.00    +0.000 C 
ENDROOT
BRANCH   1   2
ATOM      2  C   UNL     1      46.378   7.227  12.876  0.00  0.00    +0.000 A 
ATOM      3  C   UNL     1      47.296   6.204  13.146  0.00  0.00    +0.000 A 
ATOM      4  C   UNL     1      48.426   6.453  13.929  0.00  0.00    +0.000 A 
ATOM      5  C   UNL     1      48.657   7.731  14.459  0.00  0.00    +0.000 A 
ATOM      6  C   UNL     1      47.710   8.739  14.233  0.00  0.00    +0.000 A 
ATOM      7  C   UNL     1      46.580   8.488  13.452  0.00  0.00    +0.000 A 
BRANCH   5   8
ATOM      8  C   UNL     1      49.927   8.034  15.228  0.00  0.00    +0.000 C 
BRANCH   8   9
ATOM      9  N   UNL     1      50.357   6.923  16.109  0.00  0.00    +0.000 NA
ATOM     10  C   UNL     1      51.686   7.188  16.680  0.00  0.00    +0.000 C 
BRANCH   9  11
ATOM     11  C   UNL     1      49.395   6.743  17.220  0.00  0.00    +0.000 C 
BRANCH  11  12
ATOM     12  C   UNL     1      48.783   5.363  17.316  0.00  0.00    +0.000 A 
ATOM     13  C   UNL     1      47.461   5.195  17.714  0.00  0.00    +0.000 A 
ATOM     14  N   UNL     1      46.867   3.980  17.799  0.00  0.00    +0.000 NA
ATOM     15  C   UNL     1      47.654   2.931  17.472  0.00  0.00    +0.000 A 
ATOM     16  C   UNL     1      48.973   3.086  17.082  0.00  0.00    +0.000 A 
ATOM     17  N   UNL     1      49.567   4.297  16.996  0.00  0.00    +0.000 NA
ENDBRANCH  11  12
ENDBRANCH   9  11
ENDBRANCH   8   9
ENDBRANCH   5   8
ENDBRANCH   1   2
BRANCH   1  20
ATOM     18  C   UNL     1      44.299   5.064  10.737  0.00  0.00    +0.000 C 
ATOM     19  O   UNL     1      43.144   5.382  11.017  0.00  0.00    +0.000 OA
ATOM     20  N   UNL     1      45.366   5.798  11.182  0.00  0.00    +0.000 N 
ATOM     21  H   UNL     1      46.317   5.548  10.932  0.00  0.00    +0.000 HD
BRANCH  18  28
ATOM     22  C   UNL     1      47.931   2.268   5.637  0.00  0.00    +0.000 C 
ATOM     23  C   UNL     1      47.034   2.683   6.766  0.00  0.00    +0.000 A 
ATOM     24  N   UNL     1      46.214   1.846   7.318  0.00  0.00    +0.000 NA
ATOM     25  C   UNL     1      45.468   2.365   8.331  0.00  0.00    +0.000 A 
ATOM     26  S   UNL     1      44.344   1.398   9.164  0.00  0.00    +0.000 S 
ATOM     27  C   UNL     1      43.900   2.693  10.178  0.00  0.00    +0.000 A 
ATOM     28  C   UNL     1      44.584   3.874   9.917  0.00  0.00    +0.000 A 
ATOM     29  C   UNL     1      45.498   3.662   8.814  0.00  0.00    +0.000 A 
ATOM     30  C   UNL     1      46.421   4.564   8.154  0.00  0.00    +0.000 A 
ATOM     31  O   UNL     1      46.555   5.749   8.436  0.00  0.00    +0.000 OA
ATOM     32  N   UNL     1      47.162   3.996   7.147  0.00  0.00    +0.000 N 
ATOM     33  H   UNL     1      47.807   4.614   6.678  0.00  0.00    +0.000 HD
ENDBRANCH  18  28
ENDBRANCH   1  20
TORSDOF 7
ENDMDL
MODEL 8
REMARK VINA RESULT:    -6.467      3.708      8.633
REMARK INTER + INTRA:         -10.104
REMARK INTER:                  -8.609
REMARK INTRA:                  -1.495
REMARK UNBOUND:                -0.990
REMARK  Name = 
REMARK  9 active torsions:
REMARK  status: ('A' for Active; 'I' for Inactive)
REMARK    1  A    between atoms: C_1  and  C_2
REMARK    2  A    between atoms: C_7  and  C_8
REMARK    3  A    between atoms: N_10  and  C_11
REMARK    4  A    between atoms: C_11  and  C_12
REMARK    5  A    between atoms: C_15  and  C_16
REMARK    6  A    between atoms: C_16  and  N_17
REMARK    7  A    between atoms: N_17  and  C_18
REMARK    8  A    between atoms: N_17  and  C_19
REMARK    9  A    between atoms: C_19  and  C_20
REMARK                            x       y       z     vdW  Elec       q    Type
REMARK                         _______ _______ _______ _____ _____    ______ ____
ROOT
ATOM      1  C   UNL     1      48.508   9.627  15.341  0.00  0.00    +0.000 C 
ENDROOT
BRANCH   1   2
ATOM      2  C   UNL     1      48.800   8.884  16.617  0.00  0.00    +0.000 A 
ATOM      3  C   UNL     1      49.896   8.015  16.702  0.00  0.00    +0.000 A 
ATOM      4  C   UNL     1      50.188   7.357  17.899  0.00  0.00    +0.000 A 
ATOM      5  C   UNL     1      49.388   7.554  19.034  0.00  0.00    +0.000 A 
ATOM      6  C   UNL     1      48.261   8.380  18.932  0.00  0.00    +0.000 A 
ATOM      7  C   UNL     1      47.968   9.036  17.734  0.00  0.00    +0.000 A 
BRANCH   5   8
ATOM      8  C   UNL     1      49.752   6.919  20.361  0.00  0.00    +0.000 C 
BRANCH   8   9
ATOM      9  N   UNL     1      50.124   5.490  20.244  0.00  0.00    +0.000 NA
ATOM     10  C   UNL     1      50.885   5.046  21.421  0.00  0.00    +0.000 C 
BRANCH   9  11
ATOM     11  C   UNL     1      48.911   4.649  20.123  0.00  0.00    +0.000 C 
BRANCH  11  12
ATOM     12  C   UNL     1      48.758   3.938  18.796  0.00  0.00    +0.000 A 
ATOM     13  C   UNL     1      49.869   3.442  18.121  0.00  0.00    +0.000 A 
ATOM     14  N   UNL     1      49.778   2.785  16.940  0.00  0.00    +0.000 NA
ATOM     15  C   UNL     1      48.525   2.647  16.453  0.00  0.00    +0.000 A 
ATOM     16  C   UNL     1      47.414   3.144  17.112  0.00  0.00    +0.000 A 
ATOM     17  N   UNL     1      47.502   3.799  18.292  0.00  0.00    +0.000 NA
ENDBRANCH  11  12
ENDBRANCH   9  11
ENDBRANCH   8   9
ENDBRANCH   5   8
ENDBRANCH   1   2
BRANCH   1  20
ATOM     18  C   UNL     1      47.599   8.175  13.588  0.00  0.00    +0.000 C 
ATOM     19  O   UNL     1      48.732   7.861  13.225  0.00  0.00    +0.000 OA
ATOM     20  N   UNL     1      47.401   9.043  14.628  0.00  0.00    +0.000 N 
ATOM     21  H   UNL     1      46.466   9.284  14.942  0.00  0.00    +0.000 HD
BRANCH  18  28
ATOM     22  C   UNL     1      43.651   2.729  12.258  0.00  0.00    +0.000 C 
ATOM     23  C   UNL     1      44.376   4.033  12.418  0.00  0.00    +0.000 A 
ATOM     24  N   UNL     1      43.931   5.121  11.875  0.00  0.00    +0.000 NA
ATOM     25  C   UNL     1      44.692   6.225  12.110  0.00  0.00    +0.000 A 
ATOM     26  S   UNL     1      44.245   7.737  11.472  0.00  0.00    +0.000 S 
ATOM     27  C   UNL     1      45.596   8.496  12.182  0.00  0.00    +0.000 A 
ATOM     28  C   UNL     1      46.407   7.636  12.913  0.00  0.00    +0.000 A 
ATOM     29  C   UNL     1      45.861   6.297  12.848  0.00  0.00    +0.000 A 
ATOM     30  C   UNL     1      46.326   5.049  13.422  0.00  0.00    +0.000 A 
ATOM     31  O   UNL     1      47.353   4.926  14.079  0.00  0.00    +0.000 OA
ATOM     32  N   UNL     1      45.522   3.964  13.171  0.00  0.00    +0.000 N 
ATOM     33  H   UNL     1      45.836   3.088  13.564  0.00  0.00    +0.000 HD
ENDBRANCH  18  28
ENDBRANCH   1  20
TORSDOF 7
ENDMDL
MODEL 9
REMARK VINA RESULT:    -6.432      4.544      6.758
REMARK INTER + INTRA:         -10.055
REMARK INTER:                  -9.009
REMARK INTRA:                  -1.046
REMARK UNBOUND:                -0.990
REMARK  Name = 
REMARK  9 active torsions:
REMARK  status: ('A' for Active; 'I' for Inactive)
REMARK    1  A    between atoms: C_1  and  C_2
REMARK    2  A    between atoms: C_7  and  C_8
REMARK    3  A    between atoms: N_10  and  C_11
REMARK    4  A    between atoms: C_11  and  C_12
REMARK    5  A    between atoms: C_15  and  C_16
REMARK    6  A    between atoms: C_16  and  N_17
REMARK    7  A    between atoms: N_17  and  C_18
REMARK    8  A    between atoms: N_17  and  C_19
REMARK    9  A    between atoms: C_19  and  C_20
REMARK                            x       y       z     vdW  Elec       q    Type
REMARK                         _______ _______ _______ _____ _____    ______ ____
ROOT
ATOM      1  C   UNL     1      47.618   8.947  13.821  0.00  0.00    +0.000 C 
ENDROOT
BRANCH   1   2
ATOM      2  C   UNL     1      46.686   8.028  13.078  0.00  0.00    +0.000 A 
ATOM      3  C   UNL     1      45.495   8.516  12.524  0.00  0.00    +0.000 A 
ATOM      4  C   UNL     1      44.651   7.670  11.800  0.00  0.00    +0.000 A 
ATOM      5  C   UNL     1      44.981   6.320  11.619  0.00  0.00    +0.000 A 
ATOM      6  C   UNL     1      46.144   5.821  12.220  0.00  0.00    +0.000 A 
ATOM      7  C   UNL     1      46.987   6.666  12.945  0.00  0.00    +0.000 A 
BRANCH   5   8
ATOM      8  C   UNL     1      44.120   5.419  10.756  0.00  0.00    +0.000 C 
BRANCH   8   9
ATOM      9  N   UNL     1      44.669   4.051  10.610  0.00  0.00    +0.000 NA
ATOM     10  C   UNL     1      44.152   3.161  11.660  0.00  0.00    +0.000 C 
BRANCH   9  11
ATOM     11  C   UNL     1      44.300   3.486   9.291  0.00  0.00    +0.000 C 
BRANCH  11  12
ATOM     12  C   UNL     1      45.465   2.990   8.463  0.00  0.00    +0.000 A 
ATOM     13  C   UNL     1      45.837   1.650   8.485  0.00  0.00    +0.000 A 
ATOM     14  N   UNL     1      46.862   1.158   7.748  0.00  0.00    +0.000 NA
ATOM     15  C   UNL     1      47.510   2.067   6.986  0.00  0.00    +0.000 A 
ATOM     16  C   UNL     1      47.154   3.405   6.963  0.00  0.00    +0.000 A 
ATOM     17  N   UNL     1      46.130   3.897   7.696  0.00  0.00    +0.000 NA
ENDBRANCH  11  12
ENDBRANCH   9  11
ENDBRANCH   8   9
ENDBRANCH   5   8
ENDBRANCH   1   2
BRANCH   1  20
ATOM     18  C   UNL     1      49.088  10.047  12.198  0.00  0.00    +0.000 C 
ATOM     19  O   UNL     1      48.199  10.841  11.893  0.00  0.00    +0.000 OA
ATOM     20  N   UNL     1      48.882   9.080  13.145  0.00  0.00    +0.000 N 
ATOM     21  H   UNL     1      49.624   8.440  13.413  0.00  0.00    +0.000 HD
BRANCH  18  28
ATOM     22  C   UNL     1      54.240   6.621   9.243  0.00  0.00    +0.000 C 
ATOM     23  C   UNL     1      53.238   7.552   9.859  0.00  0.00    +0.000 A 
ATOM     24  N   UNL     1      53.436   8.831   9.890  0.00  0.00    +0.000 NA
ATOM     25  C   UNL     1      52.438   9.547  10.477  0.00  0.00    +0.000 A 
ATOM     26  S   UNL     1      52.542  11.241  10.596  0.00  0.00    +0.000 S 
ATOM     27  C   UNL     1      51.027  11.332  11.370  0.00  0.00    +0.000 A 
ATOM     28  C   UNL     1      50.411  10.100  11.553  0.00  0.00    +0.000 A 
ATOM     29  C   UNL     1      51.267   9.057  11.028  0.00  0.00    +0.000 A 
ATOM     30  C   UNL     1      51.098   7.618  10.981  0.00  0.00    +0.000 A 
ATOM     31  O   UNL     1      50.137   7.016  11.446  0.00  0.00    +0.000 OA
ATOM     32  N   UNL     1      52.122   6.936  10.371  0.00  0.00    +0.000 N 
ATOM     33  H   UNL     1      52.017   5.933  10.334  0.00  0.00    +0.000 HD
ENDBRANCH  18  28
ENDBRANCH   1  20
TORSDOF 7
ENDMDL
