MODEL 1
REMARK VINA RESULT:    -8.017      0.000      0.000
REMARK INTER + INTRA:         -12.378
REMARK INTER:                 -11.297
REMARK INTRA:                  -1.080
REMARK UNBOUND:                -1.080
REMARK  Name = 
REMARK  7 active torsions:
REMARK  status: ('A' for Active; 'I' for Inactive)
REMARK    1  A    between atoms: C_2  and  C_4
REMARK    2  A    between atoms: C_7  and  N_8
REMARK    3  A    between atoms: N_8  and  C_9
REMARK    4  A    between atoms: C_9  and  C_10
REMARK    5  A    between atoms: C_10  and  C_11
REMARK    6  A    between atoms: C_15  and  O_16
REMARK    7  A    between atoms: O_16  and  C_17
REMARK                            x       y       z     vdW  Elec       q    Type
REMARK                         _______ _______ _______ _____ _____    ______ ____
ROOT
ATOM      1  N   UNL     1      43.609   3.508  10.665  0.00  0.00    +0.000 N 
ATOM      2  H   UNL     1      42.762   2.946  10.610  0.00  0.00    +0.000 HD
ENDROOT
BRANCH   1   6
ATOM      3  C   UNL     1      46.367   2.635   7.669  0.00  0.00    +0.000 A 
ATOM      4  C   UNL     1      45.972   3.956   7.815  0.00  0.00    +0.000 A 
ATOM      5  C   UNL     1      45.022   4.265   8.793  0.00  0.00    +0.000 A 
ATOM      6  C   UNL     1      44.472   3.261   9.591  0.00  0.00    +0.000 A 
ATOM      7  C   UNL     1      44.968   1.968   9.368  0.00  0.00    +0.000 A 
ATOM      8  N   UNL     1      45.876   1.615   8.421  0.00  0.00    +0.000 NA
BRANCH   3  10
ATOM      9  N   UNL     1      47.465   3.111   5.557  0.00  0.00    +0.000 N 
ATOM     10  C   UNL     1      47.399   2.283   6.645  0.00  0.00    +0.000 C 
ATOM     11  O   UNL     1      48.143   1.318   6.760  0.00  0.00    +0.000 OA
ATOM     12  H   UNL     1      48.157   2.939   4.843  0.00  0.00    +0.000 HD
ATOM     13  H   UNL     1      46.860   3.921   5.508  0.00  0.00    +0.000 HD
ENDBRANCH   3  10
ENDBRANCH   1   6
BRANCH   1  14
ATOM     14  C   UNL     1      43.338   4.895  11.062  0.00  0.00    +0.000 C 
BRANCH  14  15
ATOM     15  C   UNL     1      43.755   5.111  12.524  0.00  0.00    +0.000 C 
BRANCH  15  16
ATOM     16  C   UNL     1      45.204   5.512  12.646  0.00  0.00    +0.000 A 
ATOM     17  C   UNL     1      45.785   6.375  11.706  0.00  0.00    +0.000 A 
ATOM     18  C   UNL     1      47.116   6.772  11.841  0.00  0.00    +0.000 A 
ATOM     19  C   UNL     1      47.885   6.316  12.917  0.00  0.00    +0.000 A 
ATOM     20  C   UNL     1      47.324   5.448  13.850  0.00  0.00    +0.000 A 
ATOM     21  C   UNL     1      45.985   5.063  13.722  0.00  0.00    +0.000 A 
BRANCH  20  22
ATOM     22  O   UNL     1      47.972   4.957  14.960  0.00  0.00    +0.000 OA
BRANCH  22  23
ATOM     23  C   UNL     1      47.299   3.989  15.797  0.00  0.00    +0.000 C 
ATOM     24  C   UNL     1      47.096   4.368  17.282  0.00  0.00    +0.000 C 
ATOM     25  C   UNL     1      47.663   3.003  17.693  0.00  0.00    +0.000 C 
ATOM     26  C   UNL     1      48.209   2.831  16.272  0.00  0.00    +0.000 C 
ENDBRANCH  22  23
ENDBRANCH  20  22
ENDBRANCH  15  16
ENDBRANCH  14  15
ENDBRANCH   1  14
TORSDOF 7
ENDMDL
MODEL 2
REMARK VINA RESULT:    -7.361      1.891      3.581
REMARK INTER + INTRA:         -11.453
REMARK INTER:                 -10.542
REMARK INTRA:                  -0.911
REMARK UNBOUND:                -1.080
REMARK  Name = 
REMARK  7 active torsions:
REMARK  status: ('A' for Active; 'I' for Inactive)
REMARK    1  A    between atoms: C_2  and  C_4
REMARK    2  A    between atoms: C_7  and  N_8
REMARK    3  A    between atoms: N_8  and  C_9
REMARK    4  A    between atoms: C_9  and  C_10
REMARK    5  A    between atoms: C_10  and  C_11
REMARK    6  A    between atoms: C_15  and  O_16
REMARK    7  A    between atoms: O_16  and  C_17
REMARK                            x       y       z     vdW  Elec       q    Type
REMARK                         _______ _______ _______ _____ _____    ______ ____
ROOT
ATOM      1  N   UNL     1      43.703   4.482  10.208  0.00  0.00    +0.000 N 
ATOM      2  H   UNL     1      44.034   5.417  10.439  0.00  0.00    +0.000 HD
ENDROOT
BRANCH   1   6
ATOM      3  C   UNL     1      46.381   2.413   7.782  0.00  0.00    +0.000 A 
ATOM      4  C   UNL     1      46.311   3.791   7.635  0.00  0.00    +0.000 A 
ATOM      5  C   UNL     1      45.394   4.500   8.416  0.00  0.00    +0.000 A 
ATOM      6  C   UNL     1      44.557   3.831   9.311  0.00  0.00    +0.000 A 
ATOM      7  C   UNL     1      44.738   2.443   9.390  0.00  0.00    +0.000 A 
ATOM      8  N   UNL     1      45.601   1.707   8.641  0.00  0.00    +0.000 NA
BRANCH   3  10
ATOM      9  N   UNL     1      48.445   2.344   6.504  0.00  0.00    +0.000 N 
ATOM     10  C   UNL     1      47.371   1.636   6.973  0.00  0.00    +0.000 C 
ATOM     11  O   UNL     1      47.240   0.442   6.737  0.00  0.00    +0.000 OA
ATOM     12  H   UNL     1      49.158   1.869   5.971  0.00  0.00    +0.000 HD
ATOM     13  H   UNL     1      48.543   3.322   6.745  0.00  0.00    +0.000 HD
ENDBRANCH   3  10
ENDBRANCH   1   6
BRANCH   1  14
ATOM     14  C   UNL     1      43.210   3.755  11.385  0.00  0.00    +0.000 C 
BRANCH  14  15
ATOM     15  C   UNL     1      43.292   4.656  12.627  0.00  0.00    +0.000 C 
BRANCH  15  16
ATOM     16  C   UNL     1      44.713   5.040  12.955  0.00  0.00    +0.000 A 
ATOM     17  C   UNL     1      45.668   4.054  13.244  0.00  0.00    +0.000 A 
ATOM     18  C   UNL     1      46.990   4.411  13.514  0.00  0.00    +0.000 A 
ATOM     19  C   UNL     1      47.379   5.754  13.495  0.00  0.00    +0.000 A 
ATOM     20  C   UNL     1      46.437   6.744  13.224  0.00  0.00    +0.000 A 
ATOM     21  C   UNL     1      45.115   6.384  12.939  0.00  0.00    +0.000 A 
BRANCH  20  22
ATOM     22  O   UNL     1      46.707   8.090  13.152  0.00  0.00    +0.000 OA
BRANCH  22  23
ATOM     23  C   UNL     1      47.436   8.603  12.014  0.00  0.00    +0.000 C 
ATOM     24  C   UNL     1      48.969   8.738  12.167  0.00  0.00    +0.000 C 
ATOM     25  C   UNL     1      48.882  10.173  11.628  0.00  0.00    +0.000 C 
ATOM     26  C   UNL     1      47.368  10.142  11.867  0.00  0.00    +0.000 C 
ENDBRANCH  22  23
ENDBRANCH  20  22
ENDBRANCH  15  16
ENDBRANCH  14  15
ENDBRANCH   1  14
TORSDOF 7
ENDMDL
MODEL 3
REMARK VINA RESULT:    -7.151      3.059      5.080
REMARK INTER + INTRA:         -11.157
REMARK INTER:                 -10.409
REMARK INTRA:                  -0.748
REMARK UNBOUND:                -1.080
REMARK  Name = 
REMARK  7 active torsions:
REMARK  status: ('A' for Active; 'I' for Inactive)
REMARK    1  A    between atoms: C_2  and  C_4
REMARK    2  A    between atoms: C_7  and  N_8
REMARK    3  A    between atoms: N_8  and  C_9
REMARK    4  A    between atoms: C_9  and  C_10
REMARK    5  A    between atoms: C_10  and  C_11
REMARK    6  A    between atoms: C_15  and  O_16
REMARK    7  A    between atoms: O_16  and  C_17
REMARK                            x       y       z     vdW  Elec       q    Type
REMARK                         _______ _______ _______ _____ _____    ______ ____
ROOT
ATOM      1  N   UNL     1      43.706   4.898   9.920  0.00  0.00    +0.000 N 
ATOM      2  H   UNL     1      43.595   5.787   9.435  0.00  0.00    +0.000 HD
ENDROOT
BRANCH   1   6
ATOM      3  C   UNL     1      46.185   2.130   8.041  0.00  0.00    +0.000 A 
ATOM      4  C   UNL     1      46.331   3.464   7.694  0.00  0.00    +0.000 A 
ATOM      5  C   UNL     1      45.485   4.405   8.288  0.00  0.00    +0.000 A 
ATOM      6  C   UNL     1      44.505   4.005   9.198  0.00  0.00    +0.000 A 
ATOM      7  C   UNL     1      44.471   2.634   9.489  0.00  0.00    +0.000 A 
ATOM      8  N   UNL     1      45.257   1.679   8.926  0.00  0.00    +0.000 NA
BRANCH   3  10
ATOM      9  N   UNL     1      48.120   1.598   6.675  0.00  0.00    +0.000 N 
ATOM     10  C   UNL     1      47.094   1.107   7.435  0.00  0.00    +0.000 C 
ATOM     11  O   UNL     1      46.939  -0.095   7.600  0.00  0.00    +0.000 OA
ATOM     12  H   UNL     1      48.780   0.958   6.258  0.00  0.00    +0.000 HD
ATOM     13  H   UNL     1      48.242   2.599   6.585  0.00  0.00    +0.000 HD
ENDBRANCH   3  10
ENDBRANCH   1   6
BRANCH   1  14
ATOM     14  C   UNL     1      43.942   5.070  11.359  0.00  0.00    +0.000 C 
BRANCH  14  15
ATOM     15  C   UNL     1      45.450   5.180  11.631  0.00  0.00    +0.000 C 
BRANCH  15  16
ATOM     16  C   UNL     1      45.888   6.609  11.831  0.00  0.00    +0.000 A 
ATOM     17  C   UNL     1      47.237   6.914  12.060  0.00  0.00    +0.000 A 
ATOM     18  C   UNL     1      47.644   8.241  12.210  0.00  0.00    +0.000 A 
ATOM     19  C   UNL     1      46.712   9.280  12.130  0.00  0.00    +0.000 A 
ATOM     20  C   UNL     1      45.367   8.990  11.918  0.00  0.00    +0.000 A 
ATOM     21  C   UNL     1      44.962   7.661  11.753  0.00  0.00    +0.000 A 
BRANCH  20  22
ATOM     22  O   UNL     1      44.367   9.926  11.796  0.00  0.00    +0.000 OA
BRANCH  22  23
ATOM     23  C   UNL     1      43.404   9.793  10.726  0.00  0.00    +0.000 C 
ATOM     24  C   UNL     1      43.645  10.640   9.455  0.00  0.00    +0.000 C 
ATOM     25  C   UNL     1      42.186  11.112   9.509  0.00  0.00    +0.000 C 
ATOM     26  C   UNL     1      42.101  10.597  10.951  0.00  0.00    +0.000 C 
ENDBRANCH  22  23
ENDBRANCH  20  22
ENDBRANCH  15  16
ENDBRANCH  14  15
ENDBRANCH   1  14
TORSDOF 7
ENDMDL
MODEL 4
REMARK VINA RESULT:    -7.055      2.811      7.405
REMARK INTER + INTRA:         -11.022
REMARK INTER:                 -10.131
REMARK INTRA:                  -0.891
REMARK UNBOUND:                -1.080
REMARK  Name = 
REMARK  7 active torsions:
REMARK  status: ('A' for Active; 'I' for Inactive)
REMARK    1  A    between atoms: C_2  and  C_4
REMARK    2  A    between atoms: C_7  and  N_8
REMARK    3  A    between atoms: N_8  and  C_9
REMARK    4  A    between atoms: C_9  and  C_10
REMARK    5  A    between atoms: C_10  and  C_11
REMARK    6  A    between atoms: C_15  and  O_16
REMARK    7  A    between atoms: O_16  and  C_17
REMARK                            x       y       z     vdW  Elec       q    Type
REMARK                         _______ _______ _______ _____ _____    ______ ____
ROOT
ATOM      1  N   UNL     1      47.105   6.253  12.366  0.00  0.00    +0.000 N 
ATOM      2  H   UNL     1      47.950   6.686  11.999  0.00  0.00    +0.000 HD
ENDROOT
BRANCH   1   6
ATOM      3  C   UNL     1      47.532   4.108  15.910  0.00  0.00    +0.000 A 
ATOM      4  C   UNL     1      48.044   5.396  15.872  0.00  0.00    +0.000 A 
ATOM      5  C   UNL     1      47.941   6.120  14.680  0.00  0.00    +0.000 A 
ATOM      6  C   UNL     1      47.350   5.551  13.551  0.00  0.00    +0.000 A 
ATOM      7  C   UNL     1      46.847   4.252  13.720  0.00  0.00    +0.000 A 
ATOM      8  N   UNL     1      46.938   3.502  14.848  0.00  0.00    +0.000 NA
BRANCH   3  10
ATOM      9  N   UNL     1      48.815   3.357  17.829  0.00  0.00    +0.000 N 
ATOM     10  C   UNL     1      47.610   3.321  17.180  0.00  0.00    +0.000 C 
ATOM     11  O   UNL     1      46.666   2.680  17.620  0.00  0.00    +0.000 OA
ATOM     12  H   UNL     1      48.923   2.864  18.703  0.00  0.00    +0.000 HD
ATOM     13  H   UNL     1      49.567   3.924  17.458  0.00  0.00    +0.000 HD
ENDBRANCH   3  10
ENDBRANCH   1   6
BRANCH   1  14
ATOM     14  C   UNL     1      45.938   7.141  12.287  0.00  0.00    +0.000 C 
BRANCH  14  15
ATOM     15  C   UNL     1      45.119   6.817  11.029  0.00  0.00    +0.000 C 
BRANCH  15  16
ATOM     16  C   UNL     1      44.610   5.397  11.034  0.00  0.00    +0.000 A 
ATOM     17  C   UNL     1      43.797   4.937  12.080  0.00  0.00    +0.000 A 
ATOM     18  C   UNL     1      43.300   3.633  12.065  0.00  0.00    +0.000 A 
ATOM     19  C   UNL     1      43.604   2.772  11.006  0.00  0.00    +0.000 A 
ATOM     20  C   UNL     1      44.422   3.211   9.969  0.00  0.00    +0.000 A 
ATOM     21  C   UNL     1      44.908   4.523   9.977  0.00  0.00    +0.000 A 
BRANCH  20  22
ATOM     22  O   UNL     1      44.767   2.466   8.866  0.00  0.00    +0.000 OA
BRANCH  22  23
ATOM     23  C   UNL     1      46.097   2.597   8.315  0.00  0.00    +0.000 C 
ATOM     24  C   UNL     1      46.212   3.202   6.896  0.00  0.00    +0.000 C 
ATOM     25  C   UNL     1      47.124   2.037   6.488  0.00  0.00    +0.000 C 
ATOM     26  C   UNL     1      46.672   1.279   7.742  0.00  0.00    +0.000 C 
ENDBRANCH  22  23
ENDBRANCH  20  22
ENDBRANCH  15  16
ENDBRANCH  14  15
ENDBRANCH   1  14
TORSDOF 7
ENDMDL
MODEL 5
REMARK VINA RESULT:    -6.588      3.630      8.489
REMARK INTER + INTRA:         -10.364
REMARK INTER:                  -9.755
REMARK INTRA:                  -0.610
REMARK UNBOUND:                -1.080
REMARK  Name = 
REMARK  7 active torsions:
REMARK  status: ('A' for Active; 'I' for Inactive)
REMARK    1  A    between atoms: C_2  and  C_4
REMARK    2  A    between atoms: C_7  and  N_8
REMARK    3  A    between atoms: N_8  and  C_9
REMARK    4  A    between atoms: C_9  and  C_10
REMARK    5  A    between atoms: C_10  and  C_11
REMARK    6  A    between atoms: C_15  and  O_16
REMARK    7  A    between atoms: O_16  and  C_17
REMARK                            x       y       z     vdW  Elec       q    Type
REMARK                         _______ _______ _______ _____ _____    ______ ____
ROOT
ATOM      1  N   UNL     1      46.737   4.810  14.582  0.00  0.00    +0.000 N 
ATOM      2  H   UNL     1      46.457   3.892  14.242  0.00  0.00    +0.000 HD
ENDROOT
BRANCH   1   6
ATOM      3  C   UNL     1      48.727   4.527  18.229  0.00  0.00    +0.000 A 
ATOM      4  C   UNL     1      48.999   5.629  17.432  0.00  0.00    +0.000 A 
ATOM      5  C   UNL     1      48.366   5.725  16.188  0.00  0.00    +0.000 A 
ATOM      6  C   UNL     1      47.495   4.725  15.755  0.00  0.00    +0.000 A 
ATOM      7  C   UNL     1      47.280   3.674  16.659  0.00  0.00    +0.000 A 
ATOM      8  N   UNL     1      47.882   3.526  17.868  0.00  0.00    +0.000 NA
BRANCH   3  10
ATOM      9  N   UNL     1      48.577   3.937  20.579  0.00  0.00    +0.000 N 
ATOM     10  C   UNL     1      49.374   4.413  19.573  0.00  0.00    +0.000 C 
ATOM     11  O   UNL     1      50.540   4.724  19.775  0.00  0.00    +0.000 OA
ATOM     12  H   UNL     1      48.963   3.817  21.504  0.00  0.00    +0.000 HD
ATOM     13  H   UNL     1      47.626   3.656  20.374  0.00  0.00    +0.000 HD
ENDBRANCH   3  10
ENDBRANCH   1   6
BRANCH   1  14
ATOM     14  C   UNL     1      47.187   5.696  13.500  0.00  0.00    +0.000 C 
BRANCH  14  15
ATOM     15  C   UNL     1      45.986   6.450  12.910  0.00  0.00    +0.000 C 
BRANCH  15  16
ATOM     16  C   UNL     1      45.256   5.632  11.875  0.00  0.00    +0.000 A 
ATOM     17  C   UNL     1      44.021   5.041  12.177  0.00  0.00    +0.000 A 
ATOM     18  C   UNL     1      43.331   4.313  11.206  0.00  0.00    +0.000 A 
ATOM     19  C   UNL     1      43.862   4.169   9.920  0.00  0.00    +0.000 A 
ATOM     20  C   UNL     1      45.094   4.739   9.611  0.00  0.00    +0.000 A 
ATOM     21  C   UNL     1      45.777   5.481  10.581  0.00  0.00    +0.000 A 
BRANCH  20  22
ATOM     22  O   UNL     1      45.700   4.686   8.378  0.00  0.00    +0.000 OA
BRANCH  22  23
ATOM     23  C   UNL     1      45.603   3.475   7.596  0.00  0.00    +0.000 C 
ATOM     24  C   UNL     1      46.158   2.181   8.235  0.00  0.00    +0.000 C 
ATOM     25  C   UNL     1      46.933   1.892   6.944  0.00  0.00    +0.000 C 
ATOM     26  C   UNL     1      46.693   3.341   6.506  0.00  0.00    +0.000 C 
ENDBRANCH  22  23
ENDBRANCH  20  22
ENDBRANCH  15  16
ENDBRANCH  14  15
ENDBRANCH   1  14
TORSDOF 7
ENDMDL
MODEL 6
REMARK VINA RESULT:    -6.493      4.051      8.373
REMARK INTER + INTRA:         -10.230
REMARK INTER:                  -9.572
REMARK INTRA:                  -0.658
REMARK UNBOUND:                -1.080
REMARK  Name = 
REMARK  7 active torsions:
REMARK  status: ('A' for Active; 'I' for Inactive)
REMARK    1  A    between atoms: C_2  and  C_4
REMARK    2  A    between atoms: C_7  and  N_8
REMARK    3  A    between atoms: N_8  and  C_9
REMARK    4  A    between atoms: C_9  and  C_10
REMARK    5  A    between atoms: C_10  and  C_11
REMARK    6  A    between atoms: C_15  and  O_16
REMARK    7  A    between atoms: O_16  and  C_17
REMARK                            x       y       z     vdW  Elec       q    Type
REMARK                         _______ _______ _______ _____ _____    ______ ____
ROOT
ATOM      1  N   UNL     1      46.841   3.709  15.662  0.00  0.00    +0.000 N 
ATOM      2  H   UNL     1      46.197   2.957  15.902  0.00  0.00    +0.000 HD
ENDROOT
BRANCH   1   6
ATOM      3  C   UNL     1      50.442   3.768  17.754  0.00  0.00    +0.000 A 
ATOM      4  C   UNL     1      49.950   2.534  17.354  0.00  0.00    +0.000 A 
ATOM      5  C   UNL     1      48.726   2.490  16.680  0.00  0.00    +0.000 A 
ATOM      6  C   UNL     1      48.009   3.662  16.433  0.00  0.00    +0.000 A 
ATOM      7  C   UNL     1      48.619   4.849  16.862  0.00  0.00    +0.000 A 
ATOM      8  N   UNL     1      49.796   4.943  17.535  0.00  0.00    +0.000 NA
BRANCH   3  10
ATOM      9  N   UNL     1      51.709   4.168  19.786  0.00  0.00    +0.000 N 
ATOM     10  C   UNL     1      51.760   3.843  18.457  0.00  0.00    +0.000 C 
ATOM     11  O   UNL     1      52.824   3.630  17.892  0.00  0.00    +0.000 OA
ATOM     12  H   UNL     1      52.565   4.212  20.319  0.00  0.00    +0.000 HD
ATOM     13  H   UNL     1      50.812   4.304  20.234  0.00  0.00    +0.000 HD
ENDBRANCH   3  10
ENDBRANCH   1   6
BRANCH   1  14
ATOM     14  C   UNL     1      46.946   3.917  14.213  0.00  0.00    +0.000 C 
BRANCH  14  15
ATOM     15  C   UNL     1      46.214   5.208  13.817  0.00  0.00    +0.000 C 
BRANCH  15  16
ATOM     16  C   UNL     1      45.256   4.988  12.672  0.00  0.00    +0.000 A 
ATOM     17  C   UNL     1      43.887   4.814  12.914  0.00  0.00    +0.000 A 
ATOM     18  C   UNL     1      42.999   4.646  11.851  0.00  0.00    +0.000 A 
ATOM     19  C   UNL     1      43.464   4.652  10.532  0.00  0.00    +0.000 A 
ATOM     20  C   UNL     1      44.824   4.810  10.278  0.00  0.00    +0.000 A 
ATOM     21  C   UNL     1      45.712   4.994  11.345  0.00  0.00    +0.000 A 
BRANCH  20  22
ATOM     22  O   UNL     1      45.393   4.859   9.028  0.00  0.00    +0.000 OA
BRANCH  22  23
ATOM     23  C   UNL     1      45.276   3.712   8.155  0.00  0.00    +0.000 C 
ATOM     24  C   UNL     1      45.643   2.335   8.754  0.00  0.00    +0.000 C 
ATOM     25  C   UNL     1      46.528   2.055   7.532  0.00  0.00    +0.000 C 
ATOM     26  C   UNL     1      46.464   3.544   7.177  0.00  0.00    +0.000 C 
ENDBRANCH  22  23
ENDBRANCH  20  22
ENDBRANCH  15  16
ENDBRANCH  14  15
ENDBRANCH   1  14
TORSDOF 7
ENDMDL
MODEL 7
REMARK VINA RESULT:    -6.427      2.433      2.986
REMARK INTER + INTRA:         -10.137
REMARK INTER:                  -9.607
REMARK INTRA:                  -0.531
REMARK UNBOUND:                -1.080
REMARK  Name = 
REMARK  7 active torsions:
REMARK  status: ('A' for Active; 'I' for Inactive)
REMARK    1  A    between atoms: C_2  and  C_4
REMARK    2  A    between atoms: C_7  and  N_8
REMARK    3  A    between atoms: N_8  and  C_9
REMARK    4  A    between atoms: C_9  and  C_10
REMARK    5  A    between atoms: C_10  and  C_11
REMARK    6  A    between atoms: C_15  and  O_16
REMARK    7  A    between atoms: O_16  and  C_17
REMARK                            x       y       z     vdW  Elec       q    Type
REMARK                         _______ _______ _______ _____ _____    ______ ____
ROOT
ATOM      1  N   UNL     1      43.622   3.701  10.483  0.00  0.00    +0.000 N 
ATOM      2  H   UNL     1      43.443   4.703  10.463  0.00  0.00    +0.000 HD
ENDROOT
BRANCH   1   6
ATOM      3  C   UNL     1      46.436   2.729   7.570  0.00  0.00    +0.000 A 
ATOM      4  C   UNL     1      45.947   1.700   8.362  0.00  0.00    +0.000 A 
ATOM      5  C   UNL     1      45.027   2.011   9.368  0.00  0.00    +0.000 A 
ATOM      6  C   UNL     1      44.625   3.331   9.579  0.00  0.00    +0.000 A 
ATOM      7  C   UNL     1      45.168   4.279   8.701  0.00  0.00    +0.000 A 
ATOM      8  N   UNL     1      46.076   4.031   7.721  0.00  0.00    +0.000 NA
BRANCH   3  10
ATOM      9  N   UNL     1      47.331   3.225   5.369  0.00  0.00    +0.000 N 
ATOM     10  C   UNL     1      47.404   2.419   6.473  0.00  0.00    +0.000 C 
ATOM     11  O   UNL     1      48.213   1.504   6.544  0.00  0.00    +0.000 OA
ATOM     12  H   UNL     1      47.974   3.079   4.604  0.00  0.00    +0.000 HD
ATOM     13  H   UNL     1      46.675   3.995   5.354  0.00  0.00    +0.000 HD
ENDBRANCH   3  10
ENDBRANCH   1   6
BRANCH   1  14
ATOM     14  C   UNL     1      43.655   3.164  11.850  0.00  0.00    +0.000 C 
BRANCH  14  15
ATOM     15  C   UNL     1      43.452   4.302  12.862  0.00  0.00    +0.000 C 
BRANCH  15  16
ATOM     16  C   UNL     1      43.829   5.645  12.289  0.00  0.00    +0.000 A 
ATOM     17  C   UNL     1      42.889   6.404  11.578  0.00  0.00    +0.000 A 
ATOM     18  C   UNL     1      43.231   7.662  11.079  0.00  0.00    +0.000 A 
ATOM     19  C   UNL     1      44.514   8.180  11.285  0.00  0.00    +0.000 A 
ATOM     20  C   UNL     1      45.462   7.429  11.976  0.00  0.00    +0.000 A 
ATOM     21  C   UNL     1      45.113   6.175  12.489  0.00  0.00    +0.000 A 
BRANCH  20  22
ATOM     22  O   UNL     1      46.741   7.844  12.261  0.00  0.00    +0.000 OA
BRANCH  22  23
ATOM     23  C   UNL     1      47.550   7.061  13.168  0.00  0.00    +0.000 C 
ATOM     24  C   UNL     1      48.128   7.792  14.401  0.00  0.00    +0.000 C 
ATOM     25  C   UNL     1      49.511   7.209  14.081  0.00  0.00    +0.000 C 
ATOM     26  C   UNL     1      49.003   6.841  12.683  0.00  0.00    +0.000 C 
ENDBRANCH  22  23
ENDBRANCH  20  22
ENDBRANCH  15  16
ENDBRANCH  14  15
ENDBRANCH   1  14
TORSDOF 7
ENDMDL
MODEL 8
REMARK VINA RESULT:    -6.092      3.229      7.151
REMARK INTER + INTRA:          -9.666
REMARK INTER:                  -9.178
REMARK INTRA:                  -0.488
REMARK UNBOUND:                -1.080
REMARK  Name = 
REMARK  7 active torsions:
REMARK  status: ('A' for Active; 'I' for Inactive)
REMARK    1  A    between atoms: C_2  and  C_4
REMARK    2  A    between atoms: C_7  and  N_8
REMARK    3  A    between atoms: N_8  and  C_9
REMARK    4  A    between atoms: C_9  and  C_10
REMARK    5  A    between atoms: C_10  and  C_11
REMARK    6  A    between atoms: C_15  and  O_16
REMARK    7  A    between atoms: O_16  and  C_17
REMARK                            x       y       z     vdW  Elec       q    Type
REMARK                         _______ _______ _______ _____ _____    ______ ____
ROOT
ATOM      1  N   UNL     1      45.318   5.262  13.036  0.00  0.00    +0.000 N 
ATOM      2  H   UNL     1      45.377   4.342  12.603  0.00  0.00    +0.000 HD
ENDROOT
BRANCH   1   6
ATOM      3  C   UNL     1      48.785   7.530  12.620  0.00  0.00    +0.000 A 
ATOM      4  C   UNL     1      47.606   8.059  12.115  0.00  0.00    +0.000 A 
ATOM      5  C   UNL     1      46.437   7.298  12.215  0.00  0.00    +0.000 A 
ATOM      6  C   UNL     1      46.463   6.028  12.794  0.00  0.00    +0.000 A 
ATOM      7  C   UNL     1      47.708   5.613  13.290  0.00  0.00    +0.000 A 
ATOM      8  N   UNL     1      48.873   6.306  13.202  0.00  0.00    +0.000 NA
BRANCH   3  10
ATOM      9  N   UNL     1      51.067   7.917  13.354  0.00  0.00    +0.000 N 
ATOM     10  C   UNL     1      50.044   8.335  12.545  0.00  0.00    +0.000 C 
ATOM     11  O   UNL     1      50.165   9.308  11.814  0.00  0.00    +0.000 OA
ATOM     12  H   UNL     1      51.949   8.406  13.332  0.00  0.00    +0.000 HD
ATOM     13  H   UNL     1      50.948   7.088  13.923  0.00  0.00    +0.000 HD
ENDBRANCH   3  10
ENDBRANCH   1   6
BRANCH   1  14
ATOM     14  C   UNL     1      43.995   5.877  12.867  0.00  0.00    +0.000 C 
BRANCH  14  15
ATOM     15  C   UNL     1      43.621   5.911  11.378  0.00  0.00    +0.000 C 
BRANCH  15  16
ATOM     16  C   UNL     1      44.059   4.662  10.654  0.00  0.00    +0.000 A 
ATOM     17  C   UNL     1      43.606   3.403  11.072  0.00  0.00    +0.000 A 
ATOM     18  C   UNL     1      43.985   2.252  10.379  0.00  0.00    +0.000 A 
ATOM     19  C   UNL     1      44.819   2.342   9.260  0.00  0.00    +0.000 A 
ATOM     20  C   UNL     1      45.288   3.585   8.844  0.00  0.00    +0.000 A 
ATOM     21  C   UNL     1      44.894   4.740   9.530  0.00  0.00    +0.000 A 
BRANCH  20  22
ATOM     22  O   UNL     1      46.088   3.799   7.746  0.00  0.00    +0.000 OA
BRANCH  22  23
ATOM     23  C   UNL     1      46.428   2.683   6.894  0.00  0.00    +0.000 C 
ATOM     24  C   UNL     1      47.865   2.125   7.008  0.00  0.00    +0.000 C 
ATOM     25  C   UNL     1      47.994   2.180   5.480  0.00  0.00    +0.000 C 
ATOM     26  C   UNL     1      46.756   3.084   5.435  0.00  0.00    +0.000 C 
ENDBRANCH  22  23
ENDBRANCH  20  22
ENDBRANCH  15  16
ENDBRANCH  14  15
ENDBRANCH   1  14
TORSDOF 7
ENDMDL
MODEL 9
REMARK VINA RESULT:    -5.958      2.870      4.611
REMARK INTER + INTRA:          -9.476
REMARK INTER:                  -8.445
REMARK INTRA:                  -1.032
REMARK UNBOUND:                -1.080
REMARK  Name = 
REMARK  7 active torsions:
REMARK  status: ('A' for Active; 'I' for Inactive)
REMARK    1  A    between atoms: C_2  and  C_4
REMARK    2  A    between atoms: C_7  and  N_8
REMARK    3  A    between atoms: N_8  and  C_9
REMARK    4  A    between atoms: C_9  and  C_10
REMARK    5  A    between atoms: C_10  and  C_11
REMARK    6  A    between atoms: C_15  and  O_16
REMARK    7  A    between atoms: O_16  and  C_17
REMARK                            x       y       z     vdW  Elec       q    Type
REMARK                         _______ _______ _______ _____ _____    ______ ____
ROOT
ATOM      1  N   UNL     1      45.985   7.940  13.275  0.00  0.00    +0.000 N 
ATOM      2  H   UNL     1      45.182   8.424  13.673  0.00  0.00    +0.000 HD
ENDROOT
BRANCH   1   6
ATOM      3  C   UNL     1      44.627   4.353  11.655  0.00  0.00    +0.000 A 
ATOM      4  C   UNL     1      45.616   4.287  12.625  0.00  0.00    +0.000 A 
ATOM      5  C   UNL     1      46.109   5.482  13.157  0.00  0.00    +0.000 A 
ATOM      6  C   UNL     1      45.627   6.712  12.708  0.00  0.00    +0.000 A 
ATOM      7  C   UNL     1      44.611   6.650  11.743  0.00  0.00    +0.000 A 
ATOM      8  N   UNL     1      44.111   5.518  11.183  0.00  0.00    +0.000 NA
BRANCH   3  10
ATOM      9  N   UNL     1      44.884   2.410  10.222  0.00  0.00    +0.000 N 
ATOM     10  C   UNL     1      44.067   3.087  11.087  0.00  0.00    +0.000 C 
ATOM     11  O   UNL     1      42.950   2.673  11.368  0.00  0.00    +0.000 OA
ATOM     12  H   UNL     1      44.570   1.537   9.824  0.00  0.00    +0.000 HD
ATOM     13  H   UNL     1      45.815   2.759  10.036  0.00  0.00    +0.000 HD
ENDBRANCH   3  10
ENDBRANCH   1   6
BRANCH   1  14
ATOM     14  C   UNL     1      46.873   8.843  12.531  0.00  0.00    +0.000 C 
BRANCH  14  15
ATOM     15  C   UNL     1      48.339   8.515  12.852  0.00  0.00    +0.000 C 
BRANCH  15  16
ATOM     16  C   UNL     1      48.552   8.249  14.321  0.00  0.00    +0.000 A 
ATOM     17  C   UNL     1      48.360   9.270  15.263  0.00  0.00    +0.000 A 
ATOM     18  C   UNL     1      48.525   9.012  16.625  0.00  0.00    +0.000 A 
ATOM     19  C   UNL     1      48.880   7.732  17.065  0.00  0.00    +0.000 A 
ATOM     20  C   UNL     1      49.088   6.714  16.139  0.00  0.00    +0.000 A 
ATOM     21  C   UNL     1      48.908   6.970  14.775  0.00  0.00    +0.000 A 
BRANCH  20  22
ATOM     22  O   UNL     1      49.413   5.416  16.453  0.00  0.00    +0.000 OA
BRANCH  22  23
ATOM     23  C   UNL     1      48.596   4.696  17.405  0.00  0.00    +0.000 C 
ATOM     24  C   UNL     1      48.962   3.217  17.665  0.00  0.00    +0.000 C 
ATOM     25  C   UNL     1      47.490   2.832  17.461  0.00  0.00    +0.000 C 
ATOM     26  C   UNL     1      47.246   4.206  16.828  0.00  0.00    +0.000 C 
ENDBRANCH  22  23
ENDBRANCH  20  22
ENDBRANCH  15  16
ENDBRANCH  14  15
ENDBRANCH   1  14
TORSDOF 7
ENDMDL
