MODEL 1
REMARK VINA RESULT:    -7.259      0.000      0.000
REMARK INTER + INTRA:          -9.672
REMARK INTER:                  -8.957
REMARK INTRA:                  -0.715
REMARK UNBOUND:                -0.715
REMARK  Name = 
REMARK  4 active torsions:
REMARK  status: ('A' for Active; 'I' for Inactive)
REMARK    1  A    between atoms: C_5  and  O_6
REMARK    2  A    between atoms: O_6  and  C_7
REMARK    3  A    between atoms: C_7  and  C_8
REMARK    4  A    between atoms: C_12  and  C_13
REMARK                            x       y       z     vdW  Elec       q    Type
REMARK                         _______ _______ _______ _____ _____    ______ ____
ROOT
ATOM      1  C   UNL     1      45.030   4.844  12.068  0.00  0.00    +0.000 A 
ATOM      2  C   UNL     1      45.368   3.734  12.849  0.00  0.00    +0.000 A 
ATOM      3  C   UNL     1      46.563   3.695  13.564  0.00  0.00    +0.000 A 
ATOM      4  C   UNL     1      47.467   4.755  13.479  0.00  0.00    +0.000 A 
ATOM      5  C   UNL     1      47.192   5.874  12.687  0.00  0.00    +0.000 A 
ATOM      6  C   UNL     1      45.933   5.925  12.057  0.00  0.00    +0.000 A 
ENDROOT
BRANCH   5   7
ATOM      7  C   UNL     1      48.180   7.017  12.456  0.00  0.00    +0.000 C 
ATOM      8  C   UNL     1      49.115   7.241  13.669  0.00  0.00    +0.000 C 
ATOM      9  C   UNL     1      48.392   7.929  14.826  0.00  0.00    +0.000 C 
ATOM     10  N   UNL     1      47.838   9.223  14.423  0.00  0.00    +0.000 NA
ATOM     11  C   UNL     1      46.916   9.074  13.297  0.00  0.00    +0.000 C 
ATOM     12  C   UNL     1      47.567   8.383  12.093  0.00  0.00    +0.000 C 
ATOM     13  H   UNL     1      48.606   9.840  14.149  0.00  0.00    +0.000 HD
ENDBRANCH   5   7
BRANCH   1  14
ATOM     14  C   UNL     1      43.763   4.864  11.231  0.00  0.00    +0.000 C 
ATOM     15  C   UNL     1      42.463   5.287  11.916  0.00  0.00    +0.000 C 
ATOM     16  C   UNL     1      43.100   6.193  10.919  0.00  0.00    +0.000 C 
BRANCH  14  17
ATOM     17  O   UNL     1      43.572   3.749  10.326  0.00  0.00    +0.000 OA
BRANCH  17  22
ATOM     18 CL   UNL     1      47.411   2.134   6.351  0.00  0.00    +0.000 Cl
ATOM     19  C   UNL     1      46.361   2.675   7.588  0.00  0.00    +0.000 A 
ATOM     20  C   UNL     1      45.955   3.997   7.674  0.00  0.00    +0.000 A 
ATOM     21  N   UNL     1      45.071   4.428   8.610  0.00  0.00    +0.000 NA
ATOM     22  C   UNL     1      44.601   3.473   9.445  0.00  0.00    +0.000 A 
ATOM     23  C   UNL     1      45.034   2.154   9.367  0.00  0.00    +0.000 A 
ATOM     24  N   UNL     1      45.927   1.722   8.440  0.00  0.00    +0.000 NA
ENDBRANCH  17  22
ENDBRANCH  14  17
ENDBRANCH   1  14
TORSDOF 4
ENDMDL
MODEL 2
REMARK VINA RESULT:    -6.728      1.699      2.872
REMARK INTER + INTRA:          -9.016
REMARK INTER:                  -8.461
REMARK INTRA:                  -0.555
REMARK UNBOUND:                -0.715
REMARK  Name = 
REMARK  4 active torsions:
REMARK  status: ('A' for Active; 'I' for Inactive)
REMARK    1  A    between atoms: C_5  and  O_6
REMARK    2  A    between atoms: O_6  and  C_7
REMARK    3  A    between atoms: C_7  and  C_8
REMARK    4  A    between atoms: C_12  and  C_13
REMARK                            x       y       z     vdW  Elec       q    Type
REMARK                         _______ _______ _______ _____ _____    ______ ____
ROOT
ATOM      1  C   UNL     1      44.608   6.911  11.892  0.00  0.00    +0.000 A 
ATOM      2  C   UNL     1      43.976   7.981  11.250  0.00  0.00    +0.000 A 
ATOM      3  C   UNL     1      44.485   9.275  11.340  0.00  0.00    +0.000 A 
ATOM      4  C   UNL     1      45.618   9.532  12.114  0.00  0.00    +0.000 A 
ATOM      5  C   UNL     1      46.267   8.503  12.803  0.00  0.00    +0.000 A 
ATOM      6  C   UNL     1      45.787   7.193  12.609  0.00  0.00    +0.000 A 
ENDROOT
BRANCH   5   7
ATOM      7  C   UNL     1      47.441   8.726  13.756  0.00  0.00    +0.000 C 
ATOM      8  C   UNL     1      48.427   9.799  13.235  0.00  0.00    +0.000 C 
ATOM      9  C   UNL     1      49.291   9.270  12.090  0.00  0.00    +0.000 C 
ATOM     10  N   UNL     1      50.060   8.091  12.495  0.00  0.00    +0.000 NA
ATOM     11  C   UNL     1      49.178   7.024  12.968  0.00  0.00    +0.000 C 
ATOM     12  C   UNL     1      48.271   7.478  14.117  0.00  0.00    +0.000 C 
ATOM     13  H   UNL     1      50.700   8.356  13.247  0.00  0.00    +0.000 HD
ENDBRANCH   5   7
BRANCH   1  14
ATOM     14  C   UNL     1      44.021   5.511  11.855  0.00  0.00    +0.000 C 
ATOM     15  C   UNL     1      42.977   5.147  12.910  0.00  0.00    +0.000 C 
ATOM     16  C   UNL     1      42.558   5.329  11.492  0.00  0.00    +0.000 C 
BRANCH  14  17
ATOM     17  O   UNL     1      44.952   4.429  11.604  0.00  0.00    +0.000 OA
BRANCH  17  22
ATOM     18 CL   UNL     1      46.356   3.009   6.203  0.00  0.00    +0.000 Cl
ATOM     19  C   UNL     1      45.821   3.415   7.776  0.00  0.00    +0.000 A 
ATOM     20  C   UNL     1      45.305   2.462   8.640  0.00  0.00    +0.000 A 
ATOM     21  N   UNL     1      44.937   2.756   9.914  0.00  0.00    +0.000 NA
ATOM     22  C   UNL     1      45.124   4.043  10.287  0.00  0.00    +0.000 A 
ATOM     23  C   UNL     1      45.618   4.997   9.406  0.00  0.00    +0.000 A 
ATOM     24  N   UNL     1      45.976   4.709   8.127  0.00  0.00    +0.000 NA
ENDBRANCH  17  22
ENDBRANCH  14  17
ENDBRANCH   1  14
TORSDOF 4
ENDMDL
MODEL 3
REMARK VINA RESULT:    -6.722      2.907      4.044
REMARK INTER + INTRA:          -9.008
REMARK INTER:                  -8.590
REMARK INTRA:                  -0.419
REMARK UNBOUND:                -0.715
REMARK  Name = 
REMARK  4 active torsions:
REMARK  status: ('A' for Active; 'I' for Inactive)
REMARK    1  A    between atoms: C_5  and  O_6
REMARK    2  A    between atoms: O_6  and  C_7
REMARK    3  A    between atoms: C_7  and  C_8
REMARK    4  A    between atoms: C_12  and  C_13
REMARK                            x       y       z     vdW  Elec       q    Type
REMARK                         _______ _______ _______ _____ _____    ______ ____
ROOT
ATOM      1  C   UNL     1      44.592   6.898  12.049  0.00  0.00    +0.000 A 
ATOM      2  C   UNL     1      45.731   7.206  12.801  0.00  0.00    +0.000 A 
ATOM      3  C   UNL     1      46.263   8.494  12.807  0.00  0.00    +0.000 A 
ATOM      4  C   UNL     1      45.688   9.495  12.022  0.00  0.00    +0.000 A 
ATOM      5  C   UNL     1      44.568   9.230  11.227  0.00  0.00    +0.000 A 
ATOM      6  C   UNL     1      43.997   7.947  11.321  0.00  0.00    +0.000 A 
ENDROOT
BRANCH   5   7
ATOM      7  C   UNL     1      43.955  10.242  10.258  0.00  0.00    +0.000 C 
ATOM      8  C   UNL     1      44.659  11.619  10.322  0.00  0.00    +0.000 C 
ATOM      9  C   UNL     1      44.275  12.398  11.581  0.00  0.00    +0.000 C 
ATOM     10  N   UNL     1      42.829  12.612  11.662  0.00  0.00    +0.000 NA
ATOM     11  C   UNL     1      42.105  11.341  11.640  0.00  0.00    +0.000 C 
ATOM     12  C   UNL     1      42.442  10.495  10.407  0.00  0.00    +0.000 C 
ATOM     13  H   UNL     1      42.534  13.180  10.864  0.00  0.00    +0.000 HD
ENDBRANCH   5   7
BRANCH   1  14
ATOM     14  C   UNL     1      44.049   5.482  11.984  0.00  0.00    +0.000 C 
ATOM     15  C   UNL     1      43.038   5.057  13.049  0.00  0.00    +0.000 C 
ATOM     16  C   UNL     1      42.586   5.263  11.644  0.00  0.00    +0.000 C 
BRANCH  14  17
ATOM     17  O   UNL     1      45.008   4.437  11.686  0.00  0.00    +0.000 OA
BRANCH  17  22
ATOM     18 CL   UNL     1      46.274   3.110   6.228  0.00  0.00    +0.000 Cl
ATOM     19  C   UNL     1      45.780   3.489   7.821  0.00  0.00    +0.000 A 
ATOM     20  C   UNL     1      45.285   2.521   8.681  0.00  0.00    +0.000 A 
ATOM     21  N   UNL     1      44.951   2.793   9.969  0.00  0.00    +0.000 NA
ATOM     22  C   UNL     1      45.147   4.074  10.359  0.00  0.00    +0.000 A 
ATOM     23  C   UNL     1      45.618   5.043   9.481  0.00  0.00    +0.000 A 
ATOM     24  N   UNL     1      45.943   4.777   8.189  0.00  0.00    +0.000 NA
ENDBRANCH  17  22
ENDBRANCH  14  17
ENDBRANCH   1  14
TORSDOF 4
ENDMDL
MODEL 4
REMARK VINA RESULT:    -6.548      1.136      2.102
REMARK INTER + INTRA:          -8.794
REMARK INTER:                  -9.077
REMARK INTRA:                   0.283
REMARK UNBOUND:                -0.715
REMARK  Name = 
REMARK  4 active torsions:
REMARK  status: ('A' for Active; 'I' for Inactive)
REMARK    1  A    between atoms: C_5  and  O_6
REMARK    2  A    between atoms: O_6  and  C_7
REMARK    3  A    between atoms: C_7  and  C_8
REMARK    4  A    between atoms: C_12  and  C_13
REMARK                            x       y       z     vdW  Elec       q    Type
REMARK                         _______ _______ _______ _____ _____    ______ ____
ROOT
ATOM      1  C   UNL     1      44.665   5.591  11.362  0.00  0.00    +0.000 A 
ATOM      2  C   UNL     1      43.737   6.637  11.288  0.00  0.00    +0.000 A 
ATOM      3  C   UNL     1      44.140   7.965  11.410  0.00  0.00    +0.000 A 
ATOM      4  C   UNL     1      45.479   8.274  11.652  0.00  0.00    +0.000 A 
ATOM      5  C   UNL     1      46.440   7.264  11.769  0.00  0.00    +0.000 A 
ATOM      6  C   UNL     1      46.017   5.941  11.541  0.00  0.00    +0.000 A 
ENDROOT
BRANCH   5   7
ATOM      7  C   UNL     1      47.900   7.519  12.145  0.00  0.00    +0.000 C 
ATOM      8  C   UNL     1      48.502   6.365  12.982  0.00  0.00    +0.000 C 
ATOM      9  C   UNL     1      47.994   6.381  14.423  0.00  0.00    +0.000 C 
ATOM     10  N   UNL     1      48.303   7.647  15.090  0.00  0.00    +0.000 NA
ATOM     11  C   UNL     1      47.730   8.780  14.363  0.00  0.00    +0.000 C 
ATOM     12  C   UNL     1      48.188   8.831  12.901  0.00  0.00    +0.000 C 
ATOM     13  H   UNL     1      49.319   7.757  15.136  0.00  0.00    +0.000 HD
ENDBRANCH   5   7
BRANCH   1  14
ATOM     14  C   UNL     1      44.224   4.140  11.300  0.00  0.00    +0.000 C 
ATOM     15  C   UNL     1      45.002   3.122  12.132  0.00  0.00    +0.000 C 
ATOM     16  C   UNL     1      43.616   3.494  12.531  0.00  0.00    +0.000 C 
BRANCH  14  17
ATOM     17  O   UNL     1      43.875   3.629   9.989  0.00  0.00    +0.000 OA
BRANCH  17  22
ATOM     18 CL   UNL     1      47.771   2.049   6.055  0.00  0.00    +0.000 Cl
ATOM     19  C   UNL     1      46.704   2.574   7.284  0.00  0.00    +0.000 A 
ATOM     20  C   UNL     1      46.334   3.904   7.409  0.00  0.00    +0.000 A 
ATOM     21  N   UNL     1      45.437   4.326   8.338  0.00  0.00    +0.000 NA
ATOM     22  C   UNL     1      44.920   3.355   9.125  0.00  0.00    +0.000 A 
ATOM     23  C   UNL     1      45.317   2.029   9.009  0.00  0.00    +0.000 A 
ATOM     24  N   UNL     1      46.222   1.604   8.089  0.00  0.00    +0.000 NA
ENDBRANCH  17  22
ENDBRANCH  14  17
ENDBRANCH   1  14
TORSDOF 4
ENDMDL
MODEL 5
REMARK VINA RESULT:    -6.112      3.605      6.717
REMARK INTER + INTRA:          -8.256
REMARK INTER:                  -8.002
REMARK INTRA:                  -0.254
REMARK UNBOUND:                -0.715
REMARK  Name = 
REMARK  4 active torsions:
REMARK  status: ('A' for Active; 'I' for Inactive)
REMARK    1  A    between atoms: C_5  and  O_6
REMARK    2  A    between atoms: O_6  and  C_7
REMARK    3  A    between atoms: C_7  and  C_8
REMARK    4  A    between atoms: C_12  and  C_13
REMARK                            x       y       z     vdW  Elec       q    Type
REMARK                         _______ _______ _______ _____ _____    ______ ____
ROOT
ATOM      1  C   UNL     1      46.894   7.607  12.169  0.00  0.00    +0.000 A 
ATOM      2  C   UNL     1      46.392   8.913  12.164  0.00  0.00    +0.000 A 
ATOM      3  C   UNL     1      45.066   9.172  11.822  0.00  0.00    +0.000 A 
ATOM      4  C   UNL     1      44.224   8.128  11.435  0.00  0.00    +0.000 A 
ATOM      5  C   UNL     1      44.686   6.809  11.391  0.00  0.00    +0.000 A 
ATOM      6  C   UNL     1      45.999   6.570  11.838  0.00  0.00    +0.000 A 
ENDROOT
BRANCH   5   7
ATOM      7  C   UNL     1      43.857   5.635  10.870  0.00  0.00    +0.000 C 
ATOM      8  C   UNL     1      42.605   5.367  11.739  0.00  0.00    +0.000 C 
ATOM      9  C   UNL     1      42.964   4.693  13.064  0.00  0.00    +0.000 C 
ATOM     10  N   UNL     1      43.662   3.423  12.851  0.00  0.00    +0.000 NA
ATOM     11  C   UNL     1      44.877   3.614  12.060  0.00  0.00    +0.000 C 
ATOM     12  C   UNL     1      44.601   4.294  10.714  0.00  0.00    +0.000 C 
ATOM     13  H   UNL     1      43.037   2.782  12.356  0.00  0.00    +0.000 HD
ENDBRANCH   5   7
BRANCH   1  14
ATOM     14  C   UNL     1      48.355   7.324  12.473  0.00  0.00    +0.000 C 
ATOM     15  C   UNL     1      49.401   7.838  11.484  0.00  0.00    +0.000 C 
ATOM     16  C   UNL     1      49.276   8.477  12.824  0.00  0.00    +0.000 C 
BRANCH  14  17
ATOM     17  O   UNL     1      48.665   5.996  12.963  0.00  0.00    +0.000 OA
BRANCH  17  22
ATOM     18 CL   UNL     1      47.349   4.127  18.248  0.00  0.00    +0.000 Cl
ATOM     19  C   UNL     1      47.687   4.789  16.707  0.00  0.00    +0.000 A 
ATOM     20  C   UNL     1      48.650   5.771  16.531  0.00  0.00    +0.000 A 
ATOM     21  N   UNL     1      48.976   6.259  15.306  0.00  0.00    +0.000 NA
ATOM     22  C   UNL     1      48.305   5.710  14.267  0.00  0.00    +0.000 A 
ATOM     23  C   UNL     1      47.323   4.745  14.457  0.00  0.00    +0.000 A 
ATOM     24  N   UNL     1      46.986   4.262  15.682  0.00  0.00    +0.000 NA
ENDBRANCH  17  22
ENDBRANCH  14  17
ENDBRANCH   1  14
TORSDOF 4
ENDMDL
MODEL 6
REMARK VINA RESULT:    -5.981      3.455      6.855
REMARK INTER + INTRA:          -8.094
REMARK INTER:                  -7.955
REMARK INTRA:                  -0.139
REMARK UNBOUND:                -0.715
REMARK  Name = 
REMARK  4 active torsions:
REMARK  status: ('A' for Active; 'I' for Inactive)
REMARK    1  A    between atoms: C_5  and  O_6
REMARK    2  A    between atoms: O_6  and  C_7
REMARK    3  A    between atoms: C_7  and  C_8
REMARK    4  A    between atoms: C_12  and  C_13
REMARK                            x       y       z     vdW  Elec       q    Type
REMARK                         _______ _______ _______ _____ _____    ______ ____
ROOT
ATOM      1  C   UNL     1      47.332   6.576  12.679  0.00  0.00    +0.000 A 
ATOM      2  C   UNL     1      47.377   5.792  13.837  0.00  0.00    +0.000 A 
ATOM      3  C   UNL     1      46.527   4.700  13.999  0.00  0.00    +0.000 A 
ATOM      4  C   UNL     1      45.582   4.393  13.019  0.00  0.00    +0.000 A 
ATOM      5  C   UNL     1      45.474   5.165  11.858  0.00  0.00    +0.000 A 
ATOM      6  C   UNL     1      46.412   6.199  11.680  0.00  0.00    +0.000 A 
ENDROOT
BRANCH   5   7
ATOM      7  C   UNL     1      44.391   4.959  10.798  0.00  0.00    +0.000 C 
ATOM      8  C   UNL     1      43.150   4.224  11.359  0.00  0.00    +0.000 C 
ATOM      9  C   UNL     1      43.416   2.732  11.562  0.00  0.00    +0.000 C 
ATOM     10  N   UNL     1      43.816   2.081  10.313  0.00  0.00    +0.000 NA
ATOM     11  C   UNL     1      45.008   2.712   9.748  0.00  0.00    +0.000 C 
ATOM     12  C   UNL     1      44.824   4.216   9.520  0.00  0.00    +0.000 C 
ATOM     13  H   UNL     1      43.047   2.153   9.642  0.00  0.00    +0.000 HD
ENDBRANCH   5   7
BRANCH   1  14
ATOM     14  C   UNL     1      48.206   7.808  12.525  0.00  0.00    +0.000 C 
ATOM     15  C   UNL     1      49.713   7.642  12.719  0.00  0.00    +0.000 C 
ATOM     16  C   UNL     1      49.168   7.894  11.355  0.00  0.00    +0.000 C 
BRANCH  14  17
ATOM     17  O   UNL     1      47.705   9.031  13.120  0.00  0.00    +0.000 OA
BRANCH  17  22
ATOM     18 CL   UNL     1      44.185  12.648  10.349  0.00  0.00    +0.000 Cl
ATOM     19  C   UNL     1      45.270  11.535  11.063  0.00  0.00    +0.000 A 
ATOM     20  C   UNL     1      46.642  11.736  11.040  0.00  0.00    +0.000 A 
ATOM     21  N   UNL     1      47.511  10.896  11.659  0.00  0.00    +0.000 NA
ATOM     22  C   UNL     1      46.945   9.855  12.312  0.00  0.00    +0.000 A 
ATOM     23  C   UNL     1      45.570   9.648  12.307  0.00  0.00    +0.000 A 
ATOM     24  N   UNL     1      44.698  10.479  11.679  0.00  0.00    +0.000 NA
ENDBRANCH  17  22
ENDBRANCH  14  17
ENDBRANCH   1  14
TORSDOF 4
ENDMDL
MODEL 7
REMARK VINA RESULT:    -5.810      3.314      5.484
REMARK INTER + INTRA:          -7.884
REMARK INTER:                  -7.228
REMARK INTRA:                  -0.656
REMARK UNBOUND:                -0.715
REMARK  Name = 
REMARK  4 active torsions:
REMARK  status: ('A' for Active; 'I' for Inactive)
REMARK    1  A    between atoms: C_5  and  O_6
REMARK    2  A    between atoms: O_6  and  C_7
REMARK    3  A    between atoms: C_7  and  C_8
REMARK    4  A    between atoms: C_12  and  C_13
REMARK                            x       y       z     vdW  Elec       q    Type
REMARK                         _______ _______ _______ _____ _____    ______ ____
ROOT
ATOM      1  C   UNL     1      48.297   7.884  14.321  0.00  0.00    +0.000 A 
ATOM      2  C   UNL     1      48.103   9.156  14.871  0.00  0.00    +0.000 A 
ATOM      3  C   UNL     1      48.339   9.398  16.223  0.00  0.00    +0.000 A 
ATOM      4  C   UNL     1      48.735   8.358  17.065  0.00  0.00    +0.000 A 
ATOM      5  C   UNL     1      48.911   7.061  16.571  0.00  0.00    +0.000 A 
ATOM      6  C   UNL     1      48.762   6.872  15.184  0.00  0.00    +0.000 A 
ENDROOT
BRANCH   5   7
ATOM      7  C   UNL     1      49.232   5.853  17.451  0.00  0.00    +0.000 C 
ATOM      8  C   UNL     1      48.747   4.523  16.825  0.00  0.00    +0.000 C 
ATOM      9  C   UNL     1      47.231   4.362  16.935  0.00  0.00    +0.000 C 
ATOM     10  N   UNL     1      46.783   4.409  18.328  0.00  0.00    +0.000 NA
ATOM     11  C   UNL     1      47.184   5.662  18.969  0.00  0.00    +0.000 C 
ATOM     12  C   UNL     1      48.696   5.901  18.895  0.00  0.00    +0.000 C 
ATOM     13  H   UNL     1      47.199   3.624  18.836  0.00  0.00    +0.000 HD
ENDBRANCH   5   7
BRANCH   1  14
ATOM     14  C   UNL     1      47.976   7.597  12.866  0.00  0.00    +0.000 C 
ATOM     15  C   UNL     1      48.846   8.261  11.799  0.00  0.00    +0.000 C 
ATOM     16  C   UNL     1      48.958   6.793  12.033  0.00  0.00    +0.000 C 
BRANCH  14  17
ATOM     17  O   UNL     1      46.572   7.589  12.505  0.00  0.00    +0.000 OA
BRANCH  17  22
ATOM     18 CL   UNL     1      43.599   2.676  12.080  0.00  0.00    +0.000 Cl
ATOM     19  C   UNL     1      44.575   4.080  12.150  0.00  0.00    +0.000 A 
ATOM     20  C   UNL     1      44.858   4.828  11.018  0.00  0.00    +0.000 A 
ATOM     21  N   UNL     1      45.575   5.980  11.067  0.00  0.00    +0.000 NA
ATOM     22  C   UNL     1      45.985   6.354  12.301  0.00  0.00    +0.000 A 
ATOM     23  C   UNL     1      45.718   5.583  13.426  0.00  0.00    +0.000 A 
ATOM     24  N   UNL     1      45.010   4.425  13.380  0.00  0.00    +0.000 NA
ENDBRANCH  17  22
ENDBRANCH  14  17
ENDBRANCH   1  14
TORSDOF 4
ENDMDL
MODEL 8
REMARK VINA RESULT:    -5.677      3.998      7.652
REMARK INTER + INTRA:          -7.720
REMARK INTER:                  -7.414
REMARK INTRA:                  -0.306
REMARK UNBOUND:                -0.715
REMARK  Name = 
REMARK  4 active torsions:
REMARK  status: ('A' for Active; 'I' for Inactive)
REMARK    1  A    between atoms: C_5  and  O_6
REMARK    2  A    between atoms: O_6  and  C_7
REMARK    3  A    between atoms: C_7  and  C_8
REMARK    4  A    between atoms: C_12  and  C_13
REMARK                            x       y       z     vdW  Elec       q    Type
REMARK                         _______ _______ _______ _____ _____    ______ ____
ROOT
ATOM      1  C   UNL     1      47.439   7.213  13.207  0.00  0.00    +0.000 A 
ATOM      2  C   UNL     1      46.712   8.281  12.668  0.00  0.00    +0.000 A 
ATOM      3  C   UNL     1      45.359   8.149  12.364  0.00  0.00    +0.000 A 
ATOM      4  C   UNL     1      44.712   6.927  12.554  0.00  0.00    +0.000 A 
ATOM      5  C   UNL     1      45.401   5.819  13.059  0.00  0.00    +0.000 A 
ATOM      6  C   UNL     1      46.740   6.014  13.449  0.00  0.00    +0.000 A 
ENDROOT
BRANCH   5   7
ATOM      7  C   UNL     1      44.790   4.424  13.187  0.00  0.00    +0.000 C 
ATOM      8  C   UNL     1      45.416   3.414  12.196  0.00  0.00    +0.000 C 
ATOM      9  C   UNL     1      44.924   3.638  10.766  0.00  0.00    +0.000 C 
ATOM     10  N   UNL     1      43.466   3.534  10.675  0.00  0.00    +0.000 NA
ATOM     11  C   UNL     1      42.812   4.491  11.568  0.00  0.00    +0.000 C 
ATOM     12  C   UNL     1      43.260   4.334  13.026  0.00  0.00    +0.000 C 
ATOM     13  H   UNL     1      43.186   2.586  10.937  0.00  0.00    +0.000 HD
ENDBRANCH   5   7
BRANCH   1  14
ATOM     14  C   UNL     1      48.928   7.328  13.476  0.00  0.00    +0.000 C 
ATOM     15  C   UNL     1      49.869   7.379  12.272  0.00  0.00    +0.000 C 
ATOM     16  C   UNL     1      49.656   8.604  13.093  0.00  0.00    +0.000 C 
BRANCH  14  17
ATOM     17  O   UNL     1      49.453   6.511  14.552  0.00  0.00    +0.000 OA
BRANCH  17  22
ATOM     18 CL   UNL     1      47.921   7.095  20.071  0.00  0.00    +0.000 Cl
ATOM     19  C   UNL     1      48.270   6.976  18.401  0.00  0.00    +0.000 A 
ATOM     20  C   UNL     1      48.599   8.089  17.643  0.00  0.00    +0.000 A 
ATOM     21  N   UNL     1      48.944   8.002  16.333  0.00  0.00    +0.000 NA
ATOM     22  C   UNL     1      48.956   6.750  15.820  0.00  0.00    +0.000 A 
ATOM     23  C   UNL     1      48.600   5.643  16.581  0.00  0.00    +0.000 A 
ATOM     24  N   UNL     1      48.244   5.727  17.889  0.00  0.00    +0.000 NA
ENDBRANCH  17  22
ENDBRANCH  14  17
ENDBRANCH   1  14
TORSDOF 4
ENDMDL
MODEL 9
REMARK VINA RESULT:    -5.314      4.933      6.794
REMARK INTER + INTRA:          -7.272
REMARK INTER:                  -6.721
REMARK INTRA:                  -0.551
REMARK UNBOUND:                -0.715
REMARK  Name = 
REMARK  4 active torsions:
REMARK  status: ('A' for Active; 'I' for Inactive)
REMARK    1  A    between atoms: C_5  and  O_6
REMARK    2  A    between atoms: O_6  and  C_7
REMARK    3  A    between atoms: C_7  and  C_8
REMARK    4  A    between atoms: C_12  and  C_13
REMARK                            x       y       z     vdW  Elec       q    Type
REMARK                         _______ _______ _______ _____ _____    ______ ____
ROOT
ATOM      1  C   UNL     1      49.470   3.280  17.129  0.00  0.00    +0.000 A 
ATOM      2  C   UNL     1      50.157   2.063  17.051  0.00  0.00    +0.000 A 
ATOM      3  C   UNL     1      51.502   1.973  17.405  0.00  0.00    +0.000 A 
ATOM      4  C   UNL     1      52.201   3.113  17.804  0.00  0.00    +0.000 A 
ATOM      5  C   UNL     1      51.569   4.359  17.866  0.00  0.00    +0.000 A 
ATOM      6  C   UNL     1      50.187   4.397  17.599  0.00  0.00    +0.000 A 
ENDROOT
BRANCH   5   7
ATOM      7  C   UNL     1      52.296   5.666  18.184  0.00  0.00    +0.000 C 
ATOM      8  C   UNL     1      51.612   6.893  17.533  0.00  0.00    +0.000 C 
ATOM      9  C   UNL     1      51.878   6.962  16.029  0.00  0.00    +0.000 C 
ATOM     10  N   UNL     1      53.312   7.020  15.737  0.00  0.00    +0.000 NA
ATOM     11  C   UNL     1      54.012   5.865  16.299  0.00  0.00    +0.000 C 
ATOM     12  C   UNL     1      53.789   5.722  17.809  0.00  0.00    +0.000 C 
ATOM     13  H   UNL     1      53.697   7.876  16.142  0.00  0.00    +0.000 HD
ENDBRANCH   5   7
BRANCH   1  14
ATOM     14  C   UNL     1      48.024   3.399  16.680  0.00  0.00    +0.000 C 
ATOM     15  C   UNL     1      46.944   2.820  17.593  0.00  0.00    +0.000 C 
ATOM     16  C   UNL     1      47.078   4.298  17.454  0.00  0.00    +0.000 C 
BRANCH  14  17
ATOM     17  O   UNL     1      47.761   3.136  15.279  0.00  0.00    +0.000 OA
BRANCH  17  22
ATOM     18 CL   UNL     1      45.517   7.633  12.471  0.00  0.00    +0.000 Cl
ATOM     19  C   UNL     1      46.267   6.289  13.216  0.00  0.00    +0.000 A 
ATOM     20  C   UNL     1      47.508   6.392  13.827  0.00  0.00    +0.000 A 
ATOM     21  N   UNL     1      48.087   5.351  14.480  0.00  0.00    +0.000 NA
ATOM     22  C   UNL     1      47.362   4.209  14.504  0.00  0.00    +0.000 A 
ATOM     23  C   UNL     1      46.131   4.108  13.866  0.00  0.00    +0.000 A 
ATOM     24  N   UNL     1      45.554   5.143  13.202  0.00  0.00    +0.000 NA
ENDBRANCH  17  22
ENDBRANCH  14  17
ENDBRANCH   1  14
TORSDOF 4
ENDMDL
