MODEL 1
REMARK VINA RESULT:    -8.171      0.000      0.000
REMARK INTER + INTRA:         -11.711
REMARK INTER:                 -10.559
REMARK INTRA:                  -1.153
REMARK UNBOUND:                -1.153
REMARK  Name = 
REMARK  6 active torsions:
REMARK  status: ('A' for Active; 'I' for Inactive)
REMARK    1  A    between atoms: C_1  and  C_2
REMARK    2  A    between atoms: C_3  and  C_4
REMARK    3  A    between atoms: C_10  and  N_11
REMARK    4  A    between atoms: N_11  and  C_12
REMARK    5  A    between atoms: C_12  and  C_13
REMARK    6  A    between atoms: C_17  and  C_18
REMARK                            x       y       z     vdW  Elec       q    Type
REMARK                         _______ _______ _______ _____ _____    ______ ____
ROOT
ATOM      1  N   UNL     1      44.300   6.851  12.465  0.00  0.00    +0.000 N 
ATOM      2  H   UNL     1      44.376   6.036  13.061  0.00  0.00    +0.000 HD
ENDROOT
BRANCH   1   9
ATOM      3  C   UNL     1      46.744   5.431  12.973  0.00  0.00    +0.000 C 
ATOM      4  C   UNL     1      46.736   6.912  12.703  0.00  0.00    +0.000 A 
ATOM      5  C   UNL     1      47.905   7.707  12.735  0.00  0.00    +0.000 A 
ATOM      6  C   UNL     1      47.828   9.073  12.453  0.00  0.00    +0.000 A 
ATOM      7  C   UNL     1      46.596   9.602  12.147  0.00  0.00    +0.000 A 
ATOM      8  N   UNL     1      45.464   8.878  12.123  0.00  0.00    +0.000 NA
ATOM      9  C   UNL     1      45.519   7.556  12.404  0.00  0.00    +0.000 A 
BRANCH   5  10
ATOM     10  C   UNL     1      49.242   7.173  13.132  0.00  0.00    +0.000 C 
ATOM     11  N   UNL     1      50.207   7.119  12.161  0.00  0.00    +0.000 N 
ATOM     12  O   UNL     1      49.500   6.813  14.271  0.00  0.00    +0.000 OA
ATOM     13  H   UNL     1      50.048   7.317  11.185  0.00  0.00    +0.000 HD
ATOM     14  H   UNL     1      51.110   6.745  12.432  0.00  0.00    +0.000 HD
ENDBRANCH   5  10
ENDBRANCH   1   9
BRANCH   1  15
ATOM     15  C   UNL     1      43.746   6.516  11.154  0.00  0.00    +0.000 C 
BRANCH  15  16
ATOM     16  C   UNL     1      43.876   5.034  10.886  0.00  0.00    +0.000 A 
ATOM     17  C   UNL     1      43.153   4.112  11.649  0.00  0.00    +0.000 A 
ATOM     18  C   UNL     1      43.303   2.744  11.436  0.00  0.00    +0.000 A 
ATOM     19  C   UNL     1      44.152   2.285  10.428  0.00  0.00    +0.000 A 
ATOM     20  C   UNL     1      44.851   3.178   9.594  0.00  0.00    +0.000 A 
ATOM     21  C   UNL     1      44.720   4.556   9.864  0.00  0.00    +0.000 A 
BRANCH  20  22
ATOM     22  C   UNL     1      45.640   2.700   8.440  0.00  0.00    +0.000 A 
ATOM     23  C   UNL     1      45.976   3.547   7.380  0.00  0.00    +0.000 A 
ATOM     24  C   UNL     1      46.795   3.078   6.356  0.00  0.00    +0.000 A 
ATOM     25  C   UNL     1      47.260   1.773   6.406  0.00  0.00    +0.000 A 
ATOM     26  C   UNL     1      46.878   0.987   7.480  0.00  0.00    +0.000 A 
ATOM     27  N   UNL     1      46.086   1.420   8.491  0.00  0.00    +0.000 NA
ENDBRANCH  20  22
ENDBRANCH  15  16
ENDBRANCH   1  15
TORSDOF 5
ENDMDL
MODEL 2
REMARK VINA RESULT:    -7.445      3.200      7.069
REMARK INTER + INTRA:         -10.774
REMARK INTER:                  -9.791
REMARK INTRA:                  -0.983
REMARK UNBOUND:                -1.153
REMARK  Name = 
REMARK  6 active torsions:
REMARK  status: ('A' for Active; 'I' for Inactive)
REMARK    1  A    between atoms: C_1  and  C_2
REMARK    2  A    between atoms: C_3  and  C_4
REMARK    3  A    between atoms: C_10  and  N_11
REMARK    4  A    between atoms: N_11  and  C_12
REMARK    5  A    between atoms: C_12  and  C_13
REMARK    6  A    between atoms: C_17  and  C_18
REMARK                            x       y       z     vdW  Elec       q    Type
REMARK                         _______ _______ _______ _____ _____    ______ ____
ROOT
ATOM      1  N   UNL     1      44.133   4.693   9.873  0.00  0.00    +0.000 N 
ATOM      2  H   UNL     1      44.595   5.544   9.577  0.00  0.00    +0.000 HD
ENDROOT
BRANCH   1   9
ATOM      3  C   UNL     1      46.394   5.058   8.139  0.00  0.00    +0.000 C 
ATOM      4  C   UNL     1      45.816   3.692   8.403  0.00  0.00    +0.000 A 
ATOM      5  C   UNL     1      46.302   2.518   7.783  0.00  0.00    +0.000 A 
ATOM      6  C   UNL     1      45.733   1.279   8.091  0.00  0.00    +0.000 A 
ATOM      7  C   UNL     1      44.705   1.249   9.004  0.00  0.00    +0.000 A 
ATOM      8  N   UNL     1      44.209   2.347   9.598  0.00  0.00    +0.000 NA
ATOM      9  C   UNL     1      44.742   3.556   9.305  0.00  0.00    +0.000 A 
BRANCH   5  10
ATOM     10  C   UNL     1      47.369   2.531   6.737  0.00  0.00    +0.000 C 
ATOM     11  N   UNL     1      47.080   3.163   5.557  0.00  0.00    +0.000 N 
ATOM     12  O   UNL     1      48.469   2.027   6.908  0.00  0.00    +0.000 OA
ATOM     13  H   UNL     1      46.172   3.525   5.310  0.00  0.00    +0.000 HD
ATOM     14  H   UNL     1      47.803   3.159   4.846  0.00  0.00    +0.000 HD
ENDBRANCH   5  10
ENDBRANCH   1   9
BRANCH   1  15
ATOM     15  C   UNL     1      43.998   4.625  11.326  0.00  0.00    +0.000 C 
BRANCH  15  16
ATOM     16  C   UNL     1      45.243   5.154  12.001  0.00  0.00    +0.000 A 
ATOM     17  C   UNL     1      45.863   6.315  11.528  0.00  0.00    +0.000 A 
ATOM     18  C   UNL     1      47.034   6.782  12.117  0.00  0.00    +0.000 A 
ATOM     19  C   UNL     1      47.578   6.112  13.215  0.00  0.00    +0.000 A 
ATOM     20  C   UNL     1      46.953   4.977  13.764  0.00  0.00    +0.000 A 
ATOM     21  C   UNL     1      45.796   4.496  13.117  0.00  0.00    +0.000 A 
BRANCH  20  22
ATOM     22  C   UNL     1      47.448   4.348  15.006  0.00  0.00    +0.000 A 
ATOM     23  C   UNL     1      47.529   5.059  16.206  0.00  0.00    +0.000 A 
ATOM     24  C   UNL     1      47.918   4.403  17.371  0.00  0.00    +0.000 A 
ATOM     25  C   UNL     1      48.223   3.052  17.316  0.00  0.00    +0.000 A 
ATOM     26  C   UNL     1      48.132   2.413  16.091  0.00  0.00    +0.000 A 
ATOM     27  N   UNL     1      47.752   3.027  14.944  0.00  0.00    +0.000 NA
ENDBRANCH  20  22
ENDBRANCH  15  16
ENDBRANCH   1  15
TORSDOF 5
ENDMDL
MODEL 3
REMARK VINA RESULT:    -7.377      2.702      3.365
REMARK INTER + INTRA:         -10.686
REMARK INTER:                  -9.748
REMARK INTRA:                  -0.939
REMARK UNBOUND:                -1.153
REMARK  Name = 
REMARK  6 active torsions:
REMARK  status: ('A' for Active; 'I' for Inactive)
REMARK    1  A    between atoms: C_1  and  C_2
REMARK    2  A    between atoms: C_3  and  C_4
REMARK    3  A    between atoms: C_10  and  N_11
REMARK    4  A    between atoms: N_11  and  C_12
REMARK    5  A    between atoms: C_12  and  C_13
REMARK    6  A    between atoms: C_17  and  C_18
REMARK                            x       y       z     vdW  Elec       q    Type
REMARK                         _______ _______ _______ _____ _____    ______ ____
ROOT
ATOM      1  N   UNL     1      47.386   6.392  12.756  0.00  0.00    +0.000 N 
ATOM      2  H   UNL     1      48.066   6.955  12.260  0.00  0.00    +0.000 HD
ENDROOT
BRANCH   1   9
ATOM      3  C   UNL     1      46.920   3.780  13.858  0.00  0.00    +0.000 C 
ATOM      4  C   UNL     1      47.544   4.881  14.676  0.00  0.00    +0.000 A 
ATOM      5  C   UNL     1      47.887   4.726  16.039  0.00  0.00    +0.000 A 
ATOM      6  C   UNL     1      48.483   5.783  16.732  0.00  0.00    +0.000 A 
ATOM      7  C   UNL     1      48.719   6.953  16.050  0.00  0.00    +0.000 A 
ATOM      8  N   UNL     1      48.390   7.138  14.760  0.00  0.00    +0.000 NA
ATOM      9  C   UNL     1      47.804   6.129  14.076  0.00  0.00    +0.000 A 
BRANCH   5  10
ATOM     10  C   UNL     1      47.578   3.492  16.822  0.00  0.00    +0.000 C 
ATOM     11  N   UNL     1      48.618   2.637  17.076  0.00  0.00    +0.000 N 
ATOM     12  O   UNL     1      46.461   3.241  17.249  0.00  0.00    +0.000 OA
ATOM     13  H   UNL     1      49.543   2.731  16.689  0.00  0.00    +0.000 HD
ATOM     14  H   UNL     1      48.401   1.795  17.598  0.00  0.00    +0.000 HD
ENDBRANCH   5  10
ENDBRANCH   1   9
BRANCH   1  15
ATOM     15  C   UNL     1      46.041   6.957  12.665  0.00  0.00    +0.000 C 
BRANCH  15  16
ATOM     16  C   UNL     1      45.160   6.093  11.792  0.00  0.00    +0.000 A 
ATOM     17  C   UNL     1      43.768   6.148  11.921  0.00  0.00    +0.000 A 
ATOM     18  C   UNL     1      42.953   5.322  11.152  0.00  0.00    +0.000 A 
ATOM     19  C   UNL     1      43.522   4.457  10.215  0.00  0.00    +0.000 A 
ATOM     20  C   UNL     1      44.914   4.414  10.008  0.00  0.00    +0.000 A 
ATOM     21  C   UNL     1      45.719   5.224  10.835  0.00  0.00    +0.000 A 
BRANCH  20  22
ATOM     22  C   UNL     1      45.508   3.603   8.925  0.00  0.00    +0.000 A 
ATOM     23  C   UNL     1      46.113   4.195   7.813  0.00  0.00    +0.000 A 
ATOM     24  C   UNL     1      46.738   3.395   6.861  0.00  0.00    +0.000 A 
ATOM     25  C   UNL     1      46.744   2.019   7.032  0.00  0.00    +0.000 A 
ATOM     26  C   UNL     1      46.115   1.501   8.152  0.00  0.00    +0.000 A 
ATOM     27  N   UNL     1      45.505   2.257   9.096  0.00  0.00    +0.000 NA
ENDBRANCH  20  22
ENDBRANCH  15  16
ENDBRANCH   1  15
TORSDOF 5
ENDMDL
MODEL 4
REMARK VINA RESULT:    -7.266      1.250      1.503
REMARK INTER + INTRA:         -10.542
REMARK INTER:                  -9.387
REMARK INTRA:                  -1.155
REMARK UNBOUND:                -1.153
REMARK  Name = 
REMARK  6 active torsions:
REMARK  status: ('A' for Active; 'I' for Inactive)
REMARK    1  A    between atoms: C_1  and  C_2
REMARK    2  A    between atoms: C_3  and  C_4
REMARK    3  A    between atoms: C_10  and  N_11
REMARK    4  A    between atoms: N_11  and  C_12
REMARK    5  A    between atoms: C_12  and  C_13
REMARK    6  A    between atoms: C_17  and  C_18
REMARK                            x       y       z     vdW  Elec       q    Type
REMARK                         _______ _______ _______ _____ _____    ______ ____
ROOT
ATOM      1  N   UNL     1      45.005   7.592  12.651  0.00  0.00    +0.000 N 
ATOM      2  H   UNL     1      45.193   6.755  13.189  0.00  0.00    +0.000 HD
ENDROOT
BRANCH   1   9
ATOM      3  C   UNL     1      47.465   6.110  12.612  0.00  0.00    +0.000 C 
ATOM      4  C   UNL     1      47.435   7.592  12.347  0.00  0.00    +0.000 A 
ATOM      5  C   UNL     1      48.601   8.358  12.119  0.00  0.00    +0.000 A 
ATOM      6  C   UNL     1      48.498   9.726  11.857  0.00  0.00    +0.000 A 
ATOM      7  C   UNL     1      47.242  10.286  11.829  0.00  0.00    +0.000 A 
ATOM      8  N   UNL     1      46.116   9.591  12.057  0.00  0.00    +0.000 NA
ATOM      9  C   UNL     1      46.198   8.267  12.321  0.00  0.00    +0.000 A 
BRANCH   5  10
ATOM     10  C   UNL     1      49.980   7.789  12.213  0.00  0.00    +0.000 C 
ATOM     11  N   UNL     1      50.518   7.660  13.466  0.00  0.00    +0.000 N 
ATOM     12  O   UNL     1      50.614   7.426  11.234  0.00  0.00    +0.000 OA
ATOM     13  H   UNL     1      50.095   8.013  14.310  0.00  0.00    +0.000 HD
ATOM     14  H   UNL     1      51.458   7.284  13.524  0.00  0.00    +0.000 HD
ENDBRANCH   5  10
ENDBRANCH   1   9
BRANCH   1  15
ATOM     15  C   UNL     1      44.145   7.318  11.502  0.00  0.00    +0.000 C 
BRANCH  15  16
ATOM     16  C   UNL     1      44.084   5.833  11.226  0.00  0.00    +0.000 A 
ATOM     17  C   UNL     1      43.213   5.015  11.954  0.00  0.00    +0.000 A 
ATOM     18  C   UNL     1      43.184   3.641  11.735  0.00  0.00    +0.000 A 
ATOM     19  C   UNL     1      44.001   3.073  10.756  0.00  0.00    +0.000 A 
ATOM     20  C   UNL     1      44.846   3.866   9.956  0.00  0.00    +0.000 A 
ATOM     21  C   UNL     1      44.893   5.248  10.232  0.00  0.00    +0.000 A 
BRANCH  20  22
ATOM     22  C   UNL     1      45.607   3.289   8.829  0.00  0.00    +0.000 A 
ATOM     23  C   UNL     1      45.865   1.918   8.743  0.00  0.00    +0.000 A 
ATOM     24  C   UNL     1      46.510   1.406   7.621  0.00  0.00    +0.000 A 
ATOM     25  C   UNL     1      46.888   2.272   6.606  0.00  0.00    +0.000 A 
ATOM     26  C   UNL     1      46.611   3.619   6.763  0.00  0.00    +0.000 A 
ATOM     27  N   UNL     1      45.982   4.142   7.842  0.00  0.00    +0.000 NA
ENDBRANCH  20  22
ENDBRANCH  15  16
ENDBRANCH   1  15
TORSDOF 5
ENDMDL
MODEL 5
REMARK VINA RESULT:    -7.223      1.517      2.125
REMARK INTER + INTRA:         -10.487
REMARK INTER:                  -9.733
REMARK INTRA:                  -0.754
REMARK UNBOUND:                -1.153
REMARK  Name = 
REMARK  6 active torsions:
REMARK  status: ('A' for Active; 'I' for Inactive)
REMARK    1  A    between atoms: C_1  and  C_2
REMARK    2  A    between atoms: C_3  and  C_4
REMARK    3  A    between atoms: C_10  and  N_11
REMARK    4  A    between atoms: N_11  and  C_12
REMARK    5  A    between atoms: C_12  and  C_13
REMARK    6  A    between atoms: C_17  and  C_18
REMARK                            x       y       z     vdW  Elec       q    Type
REMARK                         _______ _______ _______ _____ _____    ______ ____
ROOT
ATOM      1  N   UNL     1      44.700   7.058  12.635  0.00  0.00    +0.000 N 
ATOM      2  H   UNL     1      44.567   6.259  13.242  0.00  0.00    +0.000 HD
ENDROOT
BRANCH   1   9
ATOM      3  C   UNL     1      45.245   9.863  12.344  0.00  0.00    +0.000 C 
ATOM      4  C   UNL     1      46.357   8.851  12.448  0.00  0.00    +0.000 A 
ATOM      5  C   UNL     1      47.724   9.198  12.354  0.00  0.00    +0.000 A 
ATOM      6  C   UNL     1      48.704   8.210  12.482  0.00  0.00    +0.000 A 
ATOM      7  C   UNL     1      48.294   6.916  12.698  0.00  0.00    +0.000 A 
ATOM      8  N   UNL     1      47.003   6.551  12.776  0.00  0.00    +0.000 NA
ATOM      9  C   UNL     1      46.041   7.492  12.645  0.00  0.00    +0.000 A 
BRANCH   5  10
ATOM     10  C   UNL     1      48.194  10.583  12.050  0.00  0.00    +0.000 C 
ATOM     11  N   UNL     1      48.395  10.899  10.732  0.00  0.00    +0.000 N 
ATOM     12  O   UNL     1      48.379  11.425  12.917  0.00  0.00    +0.000 OA
ATOM     13  H   UNL     1      48.347  10.239   9.972  0.00  0.00    +0.000 HD
ATOM     14  H   UNL     1      48.725  11.837  10.532  0.00  0.00    +0.000 HD
ENDBRANCH   5  10
ENDBRANCH   1   9
BRANCH   1  15
ATOM     15  C   UNL     1      44.169   6.816  11.295  0.00  0.00    +0.000 C 
BRANCH  15  16
ATOM     16  C   UNL     1      44.125   5.334  11.001  0.00  0.00    +0.000 A 
ATOM     17  C   UNL     1      43.284   4.493  11.737  0.00  0.00    +0.000 A 
ATOM     18  C   UNL     1      43.272   3.121  11.501  0.00  0.00    +0.000 A 
ATOM     19  C   UNL     1      44.074   2.580  10.495  0.00  0.00    +0.000 A 
ATOM     20  C   UNL     1      44.888   3.396   9.688  0.00  0.00    +0.000 A 
ATOM     21  C   UNL     1      44.920   4.775   9.981  0.00  0.00    +0.000 A 
BRANCH  20  22
ATOM     22  C   UNL     1      45.632   2.846   8.536  0.00  0.00    +0.000 A 
ATOM     23  C   UNL     1      46.019   3.650   7.460  0.00  0.00    +0.000 A 
ATOM     24  C   UNL     1      46.794   3.110   6.438  0.00  0.00    +0.000 A 
ATOM     25  C   UNL     1      47.166   1.776   6.505  0.00  0.00    +0.000 A 
ATOM     26  C   UNL     1      46.737   1.035   7.594  0.00  0.00    +0.000 A 
ATOM     27  N   UNL     1      45.987   1.538   8.603  0.00  0.00    +0.000 NA
ENDBRANCH  20  22
ENDBRANCH  15  16
ENDBRANCH   1  15
TORSDOF 5
ENDMDL
MODEL 6
REMARK VINA RESULT:    -6.644      2.565      3.099
REMARK INTER + INTRA:          -9.739
REMARK INTER:                  -8.947
REMARK INTRA:                  -0.792
REMARK UNBOUND:                -1.153
REMARK  Name = 
REMARK  6 active torsions:
REMARK  status: ('A' for Active; 'I' for Inactive)
REMARK    1  A    between atoms: C_1  and  C_2
REMARK    2  A    between atoms: C_3  and  C_4
REMARK    3  A    between atoms: C_10  and  N_11
REMARK    4  A    between atoms: N_11  and  C_12
REMARK    5  A    between atoms: C_12  and  C_13
REMARK    6  A    between atoms: C_17  and  C_18
REMARK                            x       y       z     vdW  Elec       q    Type
REMARK                         _______ _______ _______ _____ _____    ______ ____
ROOT
ATOM      1  N   UNL     1      46.596   3.630  13.697  0.00  0.00    +0.000 N 
ATOM      2  H   UNL     1      46.935   3.287  12.807  0.00  0.00    +0.000 HD
ENDROOT
BRANCH   1   9
ATOM      3  C   UNL     1      47.312   3.676  16.478  0.00  0.00    +0.000 C 
ATOM      4  C   UNL     1      47.718   4.785  15.542  0.00  0.00    +0.000 A 
ATOM      5  C   UNL     1      48.419   5.935  15.969  0.00  0.00    +0.000 A 
ATOM      6  C   UNL     1      48.783   6.915  15.042  0.00  0.00    +0.000 A 
ATOM      7  C   UNL     1      48.440   6.718  13.725  0.00  0.00    +0.000 A 
ATOM      8  N   UNL     1      47.760   5.645  13.289  0.00  0.00    +0.000 NA
ATOM      9  C   UNL     1      47.391   4.691  14.174  0.00  0.00    +0.000 A 
BRANCH   5  10
ATOM     10  C   UNL     1      48.742   6.207  17.402  0.00  0.00    +0.000 C 
ATOM     11  N   UNL     1      47.812   6.899  18.132  0.00  0.00    +0.000 N 
ATOM     12  O   UNL     1      49.774   5.822  17.933  0.00  0.00    +0.000 OA
ATOM     13  H   UNL     1      46.982   7.321  17.747  0.00  0.00    +0.000 HD
ATOM     14  H   UNL     1      48.041   7.090  19.101  0.00  0.00    +0.000 HD
ENDBRANCH   5  10
ENDBRANCH   1   9
BRANCH   1  15
ATOM     15  C   UNL     1      45.168   3.936  13.653  0.00  0.00    +0.000 C 
BRANCH  15  16
ATOM     16  C   UNL     1      44.712   4.142  12.226  0.00  0.00    +0.000 A 
ATOM     17  C   UNL     1      43.686   5.047  11.936  0.00  0.00    +0.000 A 
ATOM     18  C   UNL     1      43.233   5.207  10.629  0.00  0.00    +0.000 A 
ATOM     19  C   UNL     1      43.829   4.490   9.591  0.00  0.00    +0.000 A 
ATOM     20  C   UNL     1      44.906   3.615   9.829  0.00  0.00    +0.000 A 
ATOM     21  C   UNL     1      45.313   3.433  11.166  0.00  0.00    +0.000 A 
BRANCH  20  22
ATOM     22  C   UNL     1      45.628   2.960   8.718  0.00  0.00    +0.000 A 
ATOM     23  C   UNL     1      46.174   3.696   7.663  0.00  0.00    +0.000 A 
ATOM     24  C   UNL     1      46.922   3.047   6.684  0.00  0.00    +0.000 A 
ATOM     25  C   UNL     1      47.107   1.676   6.773  0.00  0.00    +0.000 A 
ATOM     26  C   UNL     1      46.527   1.009   7.839  0.00  0.00    +0.000 A 
ATOM     27  N   UNL     1      45.800   1.617   8.807  0.00  0.00    +0.000 NA
ENDBRANCH  20  22
ENDBRANCH  15  16
ENDBRANCH   1  15
TORSDOF 5
ENDMDL
MODEL 7
REMARK VINA RESULT:    -6.485      3.486      5.126
REMARK INTER + INTRA:          -9.533
REMARK INTER:                  -8.682
REMARK INTRA:                  -0.851
REMARK UNBOUND:                -1.153
REMARK  Name = 
REMARK  6 active torsions:
REMARK  status: ('A' for Active; 'I' for Inactive)
REMARK    1  A    between atoms: C_1  and  C_2
REMARK    2  A    between atoms: C_3  and  C_4
REMARK    3  A    between atoms: C_10  and  N_11
REMARK    4  A    between atoms: N_11  and  C_12
REMARK    5  A    between atoms: C_12  and  C_13
REMARK    6  A    between atoms: C_17  and  C_18
REMARK                            x       y       z     vdW  Elec       q    Type
REMARK                         _______ _______ _______ _____ _____    ______ ____
ROOT
ATOM      1  N   UNL     1      48.100   7.218  15.178  0.00  0.00    +0.000 N 
ATOM      2  H   UNL     1      47.137   6.960  15.355  0.00  0.00    +0.000 HD
ENDROOT
BRANCH   1   9
ATOM      3  C   UNL     1      47.310   4.559  15.921  0.00  0.00    +0.000 C 
ATOM      4  C   UNL     1      48.618   5.149  16.379  0.00  0.00    +0.000 A 
ATOM      5  C   UNL     1      49.510   4.469  17.239  0.00  0.00    +0.000 A 
ATOM      6  C   UNL     1      50.718   5.067  17.607  0.00  0.00    +0.000 A 
ATOM      7  C   UNL     1      50.998   6.317  17.108  0.00  0.00    +0.000 A 
ATOM      8  N   UNL     1      50.166   6.997  16.302  0.00  0.00    +0.000 NA
ATOM      9  C   UNL     1      48.988   6.437  15.943  0.00  0.00    +0.000 A 
BRANCH   5  10
ATOM     10  C   UNL     1      49.199   3.141  17.851  0.00  0.00    +0.000 C 
ATOM     11  N   UNL     1      48.466   3.144  19.009  0.00  0.00    +0.000 N 
ATOM     12  O   UNL     1      49.551   2.083  17.351  0.00  0.00    +0.000 OA
ATOM     13  H   UNL     1      48.213   3.972  19.524  0.00  0.00    +0.000 HD
ATOM     14  H   UNL     1      48.267   2.241  19.426  0.00  0.00    +0.000 HD
ENDBRANCH   5  10
ENDBRANCH   1   9
BRANCH   1  15
ATOM     15  C   UNL     1      48.406   7.230  13.749  0.00  0.00    +0.000 C 
BRANCH  15  16
ATOM     16  C   UNL     1      47.133   7.246  12.933  0.00  0.00    +0.000 A 
ATOM     17  C   UNL     1      46.325   8.388  12.907  0.00  0.00    +0.000 A 
ATOM     18  C   UNL     1      45.130   8.393  12.194  0.00  0.00    +0.000 A 
ATOM     19  C   UNL     1      44.747   7.266  11.466  0.00  0.00    +0.000 A 
ATOM     20  C   UNL     1      45.560   6.117  11.412  0.00  0.00    +0.000 A 
ATOM     21  C   UNL     1      46.740   6.120  12.183  0.00  0.00    +0.000 A 
BRANCH  20  22
ATOM     22  C   UNL     1      45.227   4.976  10.534  0.00  0.00    +0.000 A 
ATOM     23  C   UNL     1      45.609   4.949   9.190  0.00  0.00    +0.000 A 
ATOM     24  C   UNL     1      45.351   3.817   8.423  0.00  0.00    +0.000 A 
ATOM     25  C   UNL     1      44.714   2.734   9.008  0.00  0.00    +0.000 A 
ATOM     26  C   UNL     1      44.353   2.835  10.342  0.00  0.00    +0.000 A 
ATOM     27  N   UNL     1      44.596   3.923  11.111  0.00  0.00    +0.000 NA
ENDBRANCH  20  22
ENDBRANCH  15  16
ENDBRANCH   1  15
TORSDOF 5
ENDMDL
MODEL 8
REMARK VINA RESULT:    -6.302      3.721      5.422
REMARK INTER + INTRA:          -9.296
REMARK INTER:                  -8.564
REMARK INTRA:                  -0.732
REMARK UNBOUND:                -1.153
REMARK  Name = 
REMARK  6 active torsions:
REMARK  status: ('A' for Active; 'I' for Inactive)
REMARK    1  A    between atoms: C_1  and  C_2
REMARK    2  A    between atoms: C_3  and  C_4
REMARK    3  A    between atoms: C_10  and  N_11
REMARK    4  A    between atoms: N_11  and  C_12
REMARK    5  A    between atoms: C_12  and  C_13
REMARK    6  A    between atoms: C_17  and  C_18
REMARK                            x       y       z     vdW  Elec       q    Type
REMARK                         _______ _______ _______ _____ _____    ______ ____
ROOT
ATOM      1  N   UNL     1      48.161   6.879  15.528  0.00  0.00    +0.000 N 
ATOM      2  H   UNL     1      47.199   7.165  15.662  0.00  0.00    +0.000 HD
ENDROOT
BRANCH   1   9
ATOM      3  C   UNL     1      50.449   6.701  17.256  0.00  0.00    +0.000 C 
ATOM      4  C   UNL     1      49.570   5.507  16.987  0.00  0.00    +0.000 A 
ATOM      5  C   UNL     1      49.836   4.222  17.512  0.00  0.00    +0.000 A 
ATOM      6  C   UNL     1      48.966   3.163  17.241  0.00  0.00    +0.000 A 
ATOM      7  C   UNL     1      47.863   3.417  16.460  0.00  0.00    +0.000 A 
ATOM      8  N   UNL     1      47.590   4.622  15.932  0.00  0.00    +0.000 NA
ATOM      9  C   UNL     1      48.427   5.656  16.177  0.00  0.00    +0.000 A 
BRANCH   5  10
ATOM     10  C   UNL     1      51.063   3.904  18.304  0.00  0.00    +0.000 C 
ATOM     11  N   UNL     1      51.056   4.246  19.630  0.00  0.00    +0.000 N 
ATOM     12  O   UNL     1      52.035   3.342  17.821  0.00  0.00    +0.000 OA
ATOM     13  H   UNL     1      50.331   4.784  20.079  0.00  0.00    +0.000 HD
ATOM     14  H   UNL     1      51.895   4.038  20.161  0.00  0.00    +0.000 HD
ENDBRANCH   5  10
ENDBRANCH   1   9
BRANCH   1  15
ATOM     15  C   UNL     1      48.541   6.892  14.117  0.00  0.00    +0.000 C 
BRANCH  15  16
ATOM     16  C   UNL     1      47.318   7.035  13.240  0.00  0.00    +0.000 A 
ATOM     17  C   UNL     1      46.575   8.220  13.251  0.00  0.00    +0.000 A 
ATOM     18  C   UNL     1      45.423   8.341  12.478  0.00  0.00    +0.000 A 
ATOM     19  C   UNL     1      45.022   7.287  11.655  0.00  0.00    +0.000 A 
ATOM     20  C   UNL     1      45.774   6.101  11.565  0.00  0.00    +0.000 A 
ATOM     21  C   UNL     1      46.908   5.985  12.394  0.00  0.00    +0.000 A 
BRANCH  20  22
ATOM     22  C   UNL     1      45.430   5.041  10.594  0.00  0.00    +0.000 A 
ATOM     23  C   UNL     1      44.709   3.905  10.972  0.00  0.00    +0.000 A 
ATOM     24  C   UNL     1      44.331   2.975  10.008  0.00  0.00    +0.000 A 
ATOM     25  C   UNL     1      44.683   3.192   8.685  0.00  0.00    +0.000 A 
ATOM     26  C   UNL     1      45.408   4.333   8.384  0.00  0.00    +0.000 A 
ATOM     27  N   UNL     1      45.784   5.256   9.302  0.00  0.00    +0.000 NA
ENDBRANCH  20  22
ENDBRANCH  15  16
ENDBRANCH   1  15
TORSDOF 5
ENDMDL
MODEL 9
REMARK VINA RESULT:    -6.261      4.472      6.715
REMARK INTER + INTRA:          -9.244
REMARK INTER:                  -8.388
REMARK INTRA:                  -0.856
REMARK UNBOUND:                -1.153
REMARK  Name = 
REMARK  6 active torsions:
REMARK  status: ('A' for Active; 'I' for Inactive)
REMARK    1  A    between atoms: C_1  and  C_2
REMARK    2  A    between atoms: C_3  and  C_4
REMARK    3  A    between atoms: C_10  and  N_11
REMARK    4  A    between atoms: N_11  and  C_12
REMARK    5  A    between atoms: C_12  and  C_13
REMARK    6  A    between atoms: C_17  and  C_18
REMARK                            x       y       z     vdW  Elec       q    Type
REMARK                         _______ _______ _______ _____ _____    ______ ____
ROOT
ATOM      1  N   UNL     1      48.191   6.605  16.218  0.00  0.00    +0.000 N 
ATOM      2  H   UNL     1      47.254   6.706  15.846  0.00  0.00    +0.000 HD
ENDROOT
BRANCH   1   9
ATOM      3  C   UNL     1      48.408   7.041  19.049  0.00  0.00    +0.000 C 
ATOM      4  C   UNL     1      48.451   5.655  18.460  0.00  0.00    +0.000 A 
ATOM      5  C   UNL     1      48.655   4.493  19.239  0.00  0.00    +0.000 A 
ATOM      6  C   UNL     1      48.662   3.236  18.629  0.00  0.00    +0.000 A 
ATOM      7  C   UNL     1      48.465   3.176  17.270  0.00  0.00    +0.000 A 
ATOM      8  N   UNL     1      48.285   4.261  16.498  0.00  0.00    +0.000 NA
ATOM      9  C   UNL     1      48.285   5.487  17.071  0.00  0.00    +0.000 A 
BRANCH   5  10
ATOM     10  C   UNL     1      48.940   4.535  20.705  0.00  0.00    +0.000 C 
ATOM     11  N   UNL     1      50.256   4.558  21.085  0.00  0.00    +0.000 N 
ATOM     12  O   UNL     1      48.058   4.572  21.550  0.00  0.00    +0.000 OA
ATOM     13  H   UNL     1      51.035   4.445  20.455  0.00  0.00    +0.000 HD
ATOM     14  H   UNL     1      50.445   4.575  22.081  0.00  0.00    +0.000 HD
ENDBRANCH   5  10
ENDBRANCH   1   9
BRANCH   1  15
ATOM     15  C   UNL     1      49.201   6.629  15.163  0.00  0.00    +0.000 C 
BRANCH  15  16
ATOM     16  C   UNL     1      48.551   6.802  13.809  0.00  0.00    +0.000 A 
ATOM     17  C   UNL     1      49.238   7.443  12.772  0.00  0.00    +0.000 A 
ATOM     18  C   UNL     1      48.627   7.645  11.538  0.00  0.00    +0.000 A 
ATOM     19  C   UNL     1      47.334   7.171  11.314  0.00  0.00    +0.000 A 
ATOM     20  C   UNL     1      46.629   6.465  12.307  0.00  0.00    +0.000 A 
ATOM     21  C   UNL     1      47.250   6.318  13.564  0.00  0.00    +0.000 A 
BRANCH  20  22
ATOM     22  C   UNL     1      45.318   5.844  12.029  0.00  0.00    +0.000 A 
ATOM     23  C   UNL     1      44.994   5.348  10.763  0.00  0.00    +0.000 A 
ATOM     24  C   UNL     1      43.781   4.692  10.569  0.00  0.00    +0.000 A 
ATOM     25  C   UNL     1      42.913   4.546  11.639  0.00  0.00    +0.000 A 
ATOM     26  C   UNL     1      43.293   5.073  12.862  0.00  0.00    +0.000 A 
ATOM     27  N   UNL     1      44.468   5.711  13.079  0.00  0.00    +0.000 NA
ENDBRANCH  20  22
ENDBRANCH  15  16
ENDBRANCH   1  15
TORSDOF 5
ENDMDL
