MODEL 1
REMARK VINA RESULT:    -8.109      0.000      0.000
REMARK INTER + INTRA:         -12.378
REMARK INTER:                 -11.427
REMARK INTRA:                  -0.952
REMARK UNBOUND:                -0.952
REMARK  Name = 
REMARK  7 active torsions:
REMARK  status: ('A' for Active; 'I' for Inactive)
REMARK    1  A    between atoms: C_2  and  C_11
REMARK    2  A    between atoms: N_3  and  C_4
REMARK    3  A    between atoms: C_4  and  C_5
REMARK    4  A    between atoms: C_14  and  C_15
REMARK    5  A    between atoms: C_15  and  N_16
REMARK    6  A    between atoms: N_16  and  C_17
REMARK    7  A    between atoms: C_17  and  C_18
REMARK                            x       y       z     vdW  Elec       q    Type
REMARK                         _______ _______ _______ _____ _____    ______ ____
ROOT
ATOM      1  C   UNL     1      46.845   5.936  12.831  0.00  0.00    +0.000 A 
ATOM      2  C   UNL     1      45.908   5.001  13.283  0.00  0.00    +0.000 A 
ATOM      3  C   UNL     1      44.846   4.613  12.463  0.00  0.00    +0.000 A 
ATOM      4  C   UNL     1      44.708   5.146  11.172  0.00  0.00    +0.000 A 
ATOM      5  C   UNL     1      45.651   6.088  10.728  0.00  0.00    +0.000 A 
ATOM      6  C   UNL     1      46.715   6.480  11.549  0.00  0.00    +0.000 A 
ENDROOT
BRANCH   1   8
ATOM      7  O   UNL     1      49.100   6.470  13.227  0.00  0.00    +0.000 OA
ATOM      8  C   UNL     1      47.994   6.258  13.715  0.00  0.00    +0.000 C 
ATOM      9  N   UNL     1      47.753   6.273  15.073  0.00  0.00    +0.000 N 
ATOM     10  H   UNL     1      46.890   5.875  15.423  0.00  0.00    +0.000 HD
BRANCH   9  11
ATOM     11  C   UNL     1      48.846   6.523  15.992  0.00  0.00    +0.000 C 
BRANCH  11  12
ATOM     12  C   UNL     1      49.064   5.391  17.005  0.00  0.00    +0.000 C 
ATOM     13  C   UNL     1      50.542   4.969  17.052  0.00  0.00    +0.000 C 
ATOM     14  C   UNL     1      50.767   3.784  17.986  0.00  0.00    +0.000 C 
ATOM     15  C   UNL     1      49.884   2.601  17.607  0.00  0.00    +0.000 C 
ATOM     16  C   UNL     1      48.412   2.997  17.578  0.00  0.00    +0.000 C 
ATOM     17  C   UNL     1      48.168   4.190  16.655  0.00  0.00    +0.000 C 
ENDBRANCH  11  12
ENDBRANCH   9  11
ENDBRANCH   1   8
BRANCH   4  18
ATOM     18  C   UNL     1      43.602   4.669  10.253  0.00  0.00    +0.000 C 
BRANCH  18  19
ATOM     19  N   UNL     1      44.134   4.119   9.010  0.00  0.00    +0.000 NA
ATOM     20  H   UNL     1      44.847   4.750   8.643  0.00  0.00    +0.000 HD
BRANCH  19  21
ATOM     21  C   UNL     1      44.727   2.797   9.215  0.00  0.00    +0.000 C 
BRANCH  21  22
ATOM     22  C   UNL     1      45.767   2.519   8.163  0.00  0.00    +0.000 A 
ATOM     23  C   UNL     1      46.182   3.513   7.270  0.00  0.00    +0.000 A 
ATOM     24  C   UNL     1      47.171   3.236   6.333  0.00  0.00    +0.000 A 
ATOM     25  C   UNL     1      47.712   1.961   6.311  0.00  0.00    +0.000 A 
ATOM     26  N   UNL     1      47.330   0.968   7.142  0.00  0.00    +0.000 NA
ATOM     27  C   UNL     1      46.369   1.270   8.047  0.00  0.00    +0.000 A 
ENDBRANCH  21  22
ENDBRANCH  19  21
ENDBRANCH  18  19
ENDBRANCH   4  18
TORSDOF 7
ENDMDL
MODEL 2
REMARK VINA RESULT:    -7.823      1.791      8.562
REMARK INTER + INTRA:         -11.976
REMARK INTER:                 -11.059
REMARK INTRA:                  -0.917
REMARK UNBOUND:                -0.952
REMARK  Name = 
REMARK  7 active torsions:
REMARK  status: ('A' for Active; 'I' for Inactive)
REMARK    1  A    between atoms: C_2  and  C_11
REMARK    2  A    between atoms: N_3  and  C_4
REMARK    3  A    between atoms: C_4  and  C_5
REMARK    4  A    between atoms: C_14  and  C_15
REMARK    5  A    between atoms: C_15  and  N_16
REMARK    6  A    between atoms: N_16  and  C_17
REMARK    7  A    between atoms: C_17  and  C_18
REMARK                            x       y       z     vdW  Elec       q    Type
REMARK                         _______ _______ _______ _____ _____    ______ ____
ROOT
ATOM      1  C   UNL     1      45.771   5.350  11.872  0.00  0.00    +0.000 A 
ATOM      2  C   UNL     1      46.543   6.459  11.513  0.00  0.00    +0.000 A 
ATOM      3  C   UNL     1      47.470   6.994  12.411  0.00  0.00    +0.000 A 
ATOM      4  C   UNL     1      47.648   6.421  13.680  0.00  0.00    +0.000 A 
ATOM      5  C   UNL     1      46.864   5.311  14.034  0.00  0.00    +0.000 A 
ATOM      6  C   UNL     1      45.933   4.775  13.136  0.00  0.00    +0.000 A 
ENDROOT
BRANCH   1   8
ATOM      7  O   UNL     1      43.731   4.405  11.183  0.00  0.00    +0.000 OA
ATOM      8  C   UNL     1      44.853   4.778  10.854  0.00  0.00    +0.000 C 
ATOM      9  N   UNL     1      45.338   4.668   9.567  0.00  0.00    +0.000 N 
ATOM     10  H   UNL     1      46.331   4.780   9.404  0.00  0.00    +0.000 HD
BRANCH   9  11
ATOM     11  C   UNL     1      44.511   4.064   8.540  0.00  0.00    +0.000 C 
BRANCH  11  12
ATOM     12  C   UNL     1      45.258   3.033   7.683  0.00  0.00    +0.000 C 
ATOM     13  C   UNL     1      45.803   1.886   8.550  0.00  0.00    +0.000 C 
ATOM     14  C   UNL     1      46.627   0.896   7.732  0.00  0.00    +0.000 C 
ATOM     15  C   UNL     1      47.762   1.593   6.992  0.00  0.00    +0.000 C 
ATOM     16  C   UNL     1      47.236   2.720   6.109  0.00  0.00    +0.000 C 
ATOM     17  C   UNL     1      46.399   3.717   6.910  0.00  0.00    +0.000 C 
ENDBRANCH  11  12
ENDBRANCH   9  11
ENDBRANCH   1   8
BRANCH   4  18
ATOM     18  C   UNL     1      48.707   6.951  14.626  0.00  0.00    +0.000 C 
BRANCH  18  19
ATOM     19  N   UNL     1      48.249   6.935  16.011  0.00  0.00    +0.000 NA
ATOM     20  H   UNL     1      47.528   6.222  16.117  0.00  0.00    +0.000 HD
BRANCH  19  21
ATOM     21  C   UNL     1      49.344   6.646  16.938  0.00  0.00    +0.000 C 
BRANCH  21  22
ATOM     22  C   UNL     1      49.516   5.160  17.101  0.00  0.00    +0.000 A 
ATOM     23  C   UNL     1      48.421   4.292  17.051  0.00  0.00    +0.000 A 
ATOM     24  C   UNL     1      48.616   2.920  17.169  0.00  0.00    +0.000 A 
ATOM     25  C   UNL     1      49.909   2.456  17.343  0.00  0.00    +0.000 A 
ATOM     26  N   UNL     1      50.993   3.259  17.414  0.00  0.00    +0.000 NA
ATOM     27  C   UNL     1      50.771   4.589  17.290  0.00  0.00    +0.000 A 
ENDBRANCH  21  22
ENDBRANCH  19  21
ENDBRANCH  18  19
ENDBRANCH   4  18
TORSDOF 7
ENDMDL
MODEL 3
REMARK VINA RESULT:    -7.797      0.958      1.660
REMARK INTER + INTRA:         -11.940
REMARK INTER:                 -11.026
REMARK INTRA:                  -0.913
REMARK UNBOUND:                -0.952
REMARK  Name = 
REMARK  7 active torsions:
REMARK  status: ('A' for Active; 'I' for Inactive)
REMARK    1  A    between atoms: C_2  and  C_11
REMARK    2  A    between atoms: N_3  and  C_4
REMARK    3  A    between atoms: C_4  and  C_5
REMARK    4  A    between atoms: C_14  and  C_15
REMARK    5  A    between atoms: C_15  and  N_16
REMARK    6  A    between atoms: N_16  and  C_17
REMARK    7  A    between atoms: C_17  and  C_18
REMARK                            x       y       z     vdW  Elec       q    Type
REMARK                         _______ _______ _______ _____ _____    ______ ____
ROOT
ATOM      1  C   UNL     1      46.917   5.459  12.979  0.00  0.00    +0.000 A 
ATOM      2  C   UNL     1      46.549   6.110  11.797  0.00  0.00    +0.000 A 
ATOM      3  C   UNL     1      45.520   5.600  11.002  0.00  0.00    +0.000 A 
ATOM      4  C   UNL     1      44.834   4.435  11.381  0.00  0.00    +0.000 A 
ATOM      5  C   UNL     1      45.214   3.786  12.567  0.00  0.00    +0.000 A 
ATOM      6  C   UNL     1      46.247   4.294  13.364  0.00  0.00    +0.000 A 
ENDROOT
BRANCH   1   8
ATOM      7  O   UNL     1      48.981   6.538  13.300  0.00  0.00    +0.000 OA
ATOM      8  C   UNL     1      47.967   6.084  13.822  0.00  0.00    +0.000 C 
ATOM      9  N   UNL     1      47.753   6.092  15.185  0.00  0.00    +0.000 N 
ATOM     10  H   UNL     1      47.018   5.512  15.570  0.00  0.00    +0.000 HD
BRANCH   9  11
ATOM     11  C   UNL     1      48.768   6.635  16.067  0.00  0.00    +0.000 C 
BRANCH  11  12
ATOM     12  C   UNL     1      49.232   5.646  17.145  0.00  0.00    +0.000 C 
ATOM     13  C   UNL     1      48.212   4.510  17.329  0.00  0.00    +0.000 C 
ATOM     14  C   UNL     1      48.609   3.564  18.458  0.00  0.00    +0.000 C 
ATOM     15  C   UNL     1      48.813   4.316  19.767  0.00  0.00    +0.000 C 
ATOM     16  C   UNL     1      49.840   5.433  19.609  0.00  0.00    +0.000 C 
ATOM     17  C   UNL     1      49.464   6.385  18.474  0.00  0.00    +0.000 C 
ENDBRANCH  11  12
ENDBRANCH   9  11
ENDBRANCH   1   8
BRANCH   4  18
ATOM     18  C   UNL     1      43.667   3.924  10.561  0.00  0.00    +0.000 C 
BRANCH  18  19
ATOM     19  N   UNL     1      44.084   3.523   9.222  0.00  0.00    +0.000 NA
ATOM     20  H   UNL     1      44.631   4.274   8.802  0.00  0.00    +0.000 HD
BRANCH  19  21
ATOM     21  C   UNL     1      44.892   2.304   9.251  0.00  0.00    +0.000 C 
BRANCH  21  22
ATOM     22  C   UNL     1      45.876   2.299   8.112  0.00  0.00    +0.000 A 
ATOM     23  C   UNL     1      46.025   3.410   7.276  0.00  0.00    +0.000 A 
ATOM     24  C   UNL     1      46.969   3.389   6.255  0.00  0.00    +0.000 A 
ATOM     25  C   UNL     1      47.735   2.246   6.095  0.00  0.00    +0.000 A 
ATOM     26  N   UNL     1      47.613   1.146   6.869  0.00  0.00    +0.000 NA
ATOM     27  C   UNL     1      46.689   1.198   7.857  0.00  0.00    +0.000 A 
ENDBRANCH  21  22
ENDBRANCH  19  21
ENDBRANCH  18  19
ENDBRANCH   4  18
TORSDOF 7
ENDMDL
MODEL 4
REMARK VINA RESULT:    -7.559      2.663      4.407
REMARK INTER + INTRA:         -11.603
REMARK INTER:                 -10.525
REMARK INTRA:                  -1.078
REMARK UNBOUND:                -0.952
REMARK  Name = 
REMARK  7 active torsions:
REMARK  status: ('A' for Active; 'I' for Inactive)
REMARK    1  A    between atoms: C_2  and  C_11
REMARK    2  A    between atoms: N_3  and  C_4
REMARK    3  A    between atoms: C_4  and  C_5
REMARK    4  A    between atoms: C_14  and  C_15
REMARK    5  A    between atoms: C_15  and  N_16
REMARK    6  A    between atoms: N_16  and  C_17
REMARK    7  A    between atoms: C_17  and  C_18
REMARK                            x       y       z     vdW  Elec       q    Type
REMARK                         _______ _______ _______ _____ _____    ______ ____
ROOT
ATOM      1  C   UNL     1      46.715   5.709  12.733  0.00  0.00    +0.000 A 
ATOM      2  C   UNL     1      46.134   6.120  11.529  0.00  0.00    +0.000 A 
ATOM      3  C   UNL     1      45.197   5.309  10.884  0.00  0.00    +0.000 A 
ATOM      4  C   UNL     1      44.817   4.076  11.439  0.00  0.00    +0.000 A 
ATOM      5  C   UNL     1      45.410   3.669  12.645  0.00  0.00    +0.000 A 
ATOM      6  C   UNL     1      46.352   4.479  13.291  0.00  0.00    +0.000 A 
ENDROOT
BRANCH   1   8
ATOM      7  O   UNL     1      48.774   6.259  13.726  0.00  0.00    +0.000 OA
ATOM      8  C   UNL     1      47.650   6.641  13.412  0.00  0.00    +0.000 C 
ATOM      9  N   UNL     1      47.181   7.909  13.684  0.00  0.00    +0.000 N 
ATOM     10  H   UNL     1      46.189   8.093  13.607  0.00  0.00    +0.000 HD
BRANCH   9  11
ATOM     11  C   UNL     1      48.026   8.847  14.398  0.00  0.00    +0.000 C 
BRANCH  11  12
ATOM     12  C   UNL     1      48.621   9.939  13.498  0.00  0.00    +0.000 C 
ATOM     13  C   UNL     1      47.927   9.963  12.126  0.00  0.00    +0.000 C 
ATOM     14  C   UNL     1      48.563  10.980  11.183  0.00  0.00    +0.000 C 
ATOM     15  C   UNL     1      50.057  10.730  11.021  0.00  0.00    +0.000 C 
ATOM     16  C   UNL     1      50.766  10.725  12.371  0.00  0.00    +0.000 C 
ATOM     17  C   UNL     1      50.136   9.719  13.334  0.00  0.00    +0.000 C 
ENDBRANCH  11  12
ENDBRANCH   9  11
ENDBRANCH   1   8
BRANCH   4  18
ATOM     18  C   UNL     1      43.744   3.231  10.782  0.00  0.00    +0.000 C 
BRANCH  18  19
ATOM     19  N   UNL     1      44.014   3.025   9.363  0.00  0.00    +0.000 NA
ATOM     20  H   UNL     1      44.545   3.819   9.004  0.00  0.00    +0.000 HD
BRANCH  19  21
ATOM     21  C   UNL     1      44.776   1.798   9.131  0.00  0.00    +0.000 C 
BRANCH  21  22
ATOM     22  C   UNL     1      45.878   2.044   8.136  0.00  0.00    +0.000 A 
ATOM     23  C   UNL     1      46.048   3.295   7.535  0.00  0.00    +0.000 A 
ATOM     24  C   UNL     1      47.098   3.502   6.646  0.00  0.00    +0.000 A 
ATOM     25  C   UNL     1      47.946   2.441   6.378  0.00  0.00    +0.000 A 
ATOM     26  N   UNL     1      47.810   1.213   6.923  0.00  0.00    +0.000 NA
ATOM     27  C   UNL     1      46.781   1.044   7.788  0.00  0.00    +0.000 A 
ENDBRANCH  21  22
ENDBRANCH  19  21
ENDBRANCH  18  19
ENDBRANCH   4  18
TORSDOF 7
ENDMDL
MODEL 5
REMARK VINA RESULT:    -7.333      1.877      2.765
REMARK INTER + INTRA:         -11.285
REMARK INTER:                 -10.391
REMARK INTRA:                  -0.894
REMARK UNBOUND:                -0.952
REMARK  Name = 
REMARK  7 active torsions:
REMARK  status: ('A' for Active; 'I' for Inactive)
REMARK    1  A    between atoms: C_2  and  C_11
REMARK    2  A    between atoms: N_3  and  C_4
REMARK    3  A    between atoms: C_4  and  C_5
REMARK    4  A    between atoms: C_14  and  C_15
REMARK    5  A    between atoms: C_15  and  N_16
REMARK    6  A    between atoms: N_16  and  C_17
REMARK    7  A    between atoms: C_17  and  C_18
REMARK                            x       y       z     vdW  Elec       q    Type
REMARK                         _______ _______ _______ _____ _____    ______ ____
ROOT
ATOM      1  C   UNL     1      46.768   5.932  13.042  0.00  0.00    +0.000 A 
ATOM      2  C   UNL     1      46.029   4.895  13.621  0.00  0.00    +0.000 A 
ATOM      3  C   UNL     1      44.863   4.431  13.006  0.00  0.00    +0.000 A 
ATOM      4  C   UNL     1      44.422   4.989  11.796  0.00  0.00    +0.000 A 
ATOM      5  C   UNL     1      45.168   6.034  11.225  0.00  0.00    +0.000 A 
ATOM      6  C   UNL     1      46.335   6.503  11.841  0.00  0.00    +0.000 A 
ENDROOT
BRANCH   1   8
ATOM      7  O   UNL     1      49.039   6.539  13.020  0.00  0.00    +0.000 OA
ATOM      8  C   UNL     1      48.036   6.337  13.699  0.00  0.00    +0.000 C 
ATOM      9  N   UNL     1      48.023   6.438  15.075  0.00  0.00    +0.000 N 
ATOM     10  H   UNL     1      47.244   6.047  15.589  0.00  0.00    +0.000 HD
BRANCH   9  11
ATOM     11  C   UNL     1      49.245   6.773  15.780  0.00  0.00    +0.000 C 
BRANCH  11  12
ATOM     12  C   UNL     1      49.016   7.663  17.009  0.00  0.00    +0.000 C 
ATOM     13  C   UNL     1      48.294   6.890  18.124  0.00  0.00    +0.000 C 
ATOM     14  C   UNL     1      47.975   7.779  19.322  0.00  0.00    +0.000 C 
ATOM     15  C   UNL     1      47.164   9.001  18.906  0.00  0.00    +0.000 C 
ATOM     16  C   UNL     1      47.877   9.794  17.816  0.00  0.00    +0.000 C 
ATOM     17  C   UNL     1      48.215   8.915  16.612  0.00  0.00    +0.000 C 
ENDBRANCH  11  12
ENDBRANCH   9  11
ENDBRANCH   1   8
BRANCH   4  18
ATOM     18  C   UNL     1      43.202   4.435  11.088  0.00  0.00    +0.000 C 
BRANCH  18  19
ATOM     19  N   UNL     1      43.536   3.919   9.764  0.00  0.00    +0.000 NA
ATOM     20  H   UNL     1      44.032   4.639   9.239  0.00  0.00    +0.000 HD
BRANCH  19  21
ATOM     21  C   UNL     1      44.377   2.725   9.847  0.00  0.00    +0.000 C 
BRANCH  21  22
ATOM     22  C   UNL     1      45.398   2.723   8.741  0.00  0.00    +0.000 A 
ATOM     23  C   UNL     1      46.022   1.541   8.330  0.00  0.00    +0.000 A 
ATOM     24  C   UNL     1      46.934   1.566   7.280  0.00  0.00    +0.000 A 
ATOM     25  C   UNL     1      47.202   2.782   6.675  0.00  0.00    +0.000 A 
ATOM     26  N   UNL     1      46.634   3.949   7.050  0.00  0.00    +0.000 NA
ATOM     27  C   UNL     1      45.747   3.892   8.071  0.00  0.00    +0.000 A 
ENDBRANCH  21  22
ENDBRANCH  19  21
ENDBRANCH  18  19
ENDBRANCH   4  18
TORSDOF 7
ENDMDL
MODEL 6
REMARK VINA RESULT:    -7.151      2.121      8.640
REMARK INTER + INTRA:         -11.029
REMARK INTER:                 -10.243
REMARK INTRA:                  -0.786
REMARK UNBOUND:                -0.952
REMARK  Name = 
REMARK  7 active torsions:
REMARK  status: ('A' for Active; 'I' for Inactive)
REMARK    1  A    between atoms: C_2  and  C_11
REMARK    2  A    between atoms: N_3  and  C_4
REMARK    3  A    between atoms: C_4  and  C_5
REMARK    4  A    between atoms: C_14  and  C_15
REMARK    5  A    between atoms: C_15  and  N_16
REMARK    6  A    between atoms: N_16  and  C_17
REMARK    7  A    between atoms: C_17  and  C_18
REMARK                            x       y       z     vdW  Elec       q    Type
REMARK                         _______ _______ _______ _____ _____    ______ ____
ROOT
ATOM      1  C   UNL     1      45.406   6.515  11.688  0.00  0.00    +0.000 A 
ATOM      2  C   UNL     1      46.638   6.038  12.148  0.00  0.00    +0.000 A 
ATOM      3  C   UNL     1      47.475   6.863  12.905  0.00  0.00    +0.000 A 
ATOM      4  C   UNL     1      47.089   8.174  13.223  0.00  0.00    +0.000 A 
ATOM      5  C   UNL     1      45.853   8.645  12.752  0.00  0.00    +0.000 A 
ATOM      6  C   UNL     1      45.014   7.822  11.991  0.00  0.00    +0.000 A 
ENDROOT
BRANCH   1   8
ATOM      7  O   UNL     1      43.311   5.603  11.133  0.00  0.00    +0.000 OA
ATOM      8  C   UNL     1      44.525   5.574  10.951  0.00  0.00    +0.000 C 
ATOM      9  N   UNL     1      45.139   4.678  10.101  0.00  0.00    +0.000 N 
ATOM     10  H   UNL     1      46.142   4.552  10.161  0.00  0.00    +0.000 HD
BRANCH   9  11
ATOM     11  C   UNL     1      44.338   3.695   9.396  0.00  0.00    +0.000 C 
BRANCH  11  12
ATOM     12  C   UNL     1      45.085   3.014   8.242  0.00  0.00    +0.000 C 
ATOM     13  C   UNL     1      45.762   1.715   8.712  0.00  0.00    +0.000 C 
ATOM     14  C   UNL     1      46.585   1.067   7.604  0.00  0.00    +0.000 C 
ATOM     15  C   UNL     1      47.619   2.035   7.040  0.00  0.00    +0.000 C 
ATOM     16  C   UNL     1      46.962   3.320   6.548  0.00  0.00    +0.000 C 
ATOM     17  C   UNL     1      46.124   3.978   7.643  0.00  0.00    +0.000 C 
ENDBRANCH  11  12
ENDBRANCH   9  11
ENDBRANCH   1   8
BRANCH   4  18
ATOM     18  C   UNL     1      47.960   9.043  14.108  0.00  0.00    +0.000 C 
BRANCH  18  19
ATOM     19  N   UNL     1      47.574   8.939  15.512  0.00  0.00    +0.000 NA
ATOM     20  H   UNL     1      46.919   8.165  15.622  0.00  0.00    +0.000 HD
BRANCH  19  21
ATOM     21  C   UNL     1      48.733   8.709  16.374  0.00  0.00    +0.000 C 
BRANCH  21  22
ATOM     22  C   UNL     1      48.701   7.313  16.936  0.00  0.00    +0.000 A 
ATOM     23  C   UNL     1      48.218   7.059  18.225  0.00  0.00    +0.000 A 
ATOM     24  C   UNL     1      48.167   5.754  18.702  0.00  0.00    +0.000 A 
ATOM     25  C   UNL     1      48.612   4.737  17.875  0.00  0.00    +0.000 A 
ATOM     26  N   UNL     1      49.100   4.938  16.633  0.00  0.00    +0.000 NA
ATOM     27  C   UNL     1      49.133   6.218  16.193  0.00  0.00    +0.000 A 
ENDBRANCH  21  22
ENDBRANCH  19  21
ENDBRANCH  18  19
ENDBRANCH   4  18
TORSDOF 7
ENDMDL
MODEL 7
REMARK VINA RESULT:    -7.125      3.239      8.052
REMARK INTER + INTRA:         -10.992
REMARK INTER:                 -10.094
REMARK INTRA:                  -0.899
REMARK UNBOUND:                -0.952
REMARK  Name = 
REMARK  7 active torsions:
REMARK  status: ('A' for Active; 'I' for Inactive)
REMARK    1  A    between atoms: C_2  and  C_11
REMARK    2  A    between atoms: N_3  and  C_4
REMARK    3  A    between atoms: C_4  and  C_5
REMARK    4  A    between atoms: C_14  and  C_15
REMARK    5  A    between atoms: C_15  and  N_16
REMARK    6  A    between atoms: N_16  and  C_17
REMARK    7  A    between atoms: C_17  and  C_18
REMARK                            x       y       z     vdW  Elec       q    Type
REMARK                         _______ _______ _______ _____ _____    ______ ____
ROOT
ATOM      1  C   UNL     1      45.727   5.484  11.806  0.00  0.00    +0.000 A 
ATOM      2  C   UNL     1      46.281   6.737  11.521  0.00  0.00    +0.000 A 
ATOM      3  C   UNL     1      47.213   7.310  12.390  0.00  0.00    +0.000 A 
ATOM      4  C   UNL     1      47.615   6.635  13.553  0.00  0.00    +0.000 A 
ATOM      5  C   UNL     1      47.050   5.380  13.833  0.00  0.00    +0.000 A 
ATOM      6  C   UNL     1      46.114   4.805  12.966  0.00  0.00    +0.000 A 
ENDROOT
BRANCH   1   8
ATOM      7  O   UNL     1      43.656   4.585  11.151  0.00  0.00    +0.000 OA
ATOM      8  C   UNL     1      44.797   4.890  10.814  0.00  0.00    +0.000 C 
ATOM      9  N   UNL     1      45.288   4.681   9.542  0.00  0.00    +0.000 N 
ATOM     10  H   UNL     1      46.286   4.741   9.385  0.00  0.00    +0.000 HD
BRANCH   9  11
ATOM     11  C   UNL     1      44.447   4.050   8.543  0.00  0.00    +0.000 C 
BRANCH  11  12
ATOM     12  C   UNL     1      45.181   2.996   7.704  0.00  0.00    +0.000 C 
ATOM     13  C   UNL     1      45.724   1.863   8.592  0.00  0.00    +0.000 C 
ATOM     14  C   UNL     1      46.535   0.850   7.791  0.00  0.00    +0.000 C 
ATOM     15  C   UNL     1      47.670   1.523   7.029  0.00  0.00    +0.000 C 
ATOM     16  C   UNL     1      47.147   2.635   6.125  0.00  0.00    +0.000 C 
ATOM     17  C   UNL     1      46.322   3.655   6.909  0.00  0.00    +0.000 C 
ENDBRANCH  11  12
ENDBRANCH   9  11
ENDBRANCH   1   8
BRANCH   4  18
ATOM     18  C   UNL     1      48.684   7.219  14.455  0.00  0.00    +0.000 C 
BRANCH  18  19
ATOM     19  N   UNL     1      50.012   7.103  13.863  0.00  0.00    +0.000 NA
ATOM     20  H   UNL     1      49.961   6.501  13.041  0.00  0.00    +0.000 HD
BRANCH  19  21
ATOM     21  C   UNL     1      50.542   8.408  13.465  0.00  0.00    +0.000 C 
BRANCH  21  22
ATOM     22  C   UNL     1      51.398   8.274  12.235  0.00  0.00    +0.000 A 
ATOM     23  C   UNL     1      50.931   7.615  11.092  0.00  0.00    +0.000 A 
ATOM     24  C   UNL     1      51.733   7.540   9.958  0.00  0.00    +0.000 A 
ATOM     25  C   UNL     1      52.988   8.122  10.005  0.00  0.00    +0.000 A 
ATOM     26  N   UNL     1      53.484   8.753  11.091  0.00  0.00    +0.000 NA
ATOM     27  C   UNL     1      52.679   8.815  12.177  0.00  0.00    +0.000 A 
ENDBRANCH  21  22
ENDBRANCH  19  21
ENDBRANCH  18  19
ENDBRANCH   4  18
TORSDOF 7
ENDMDL
MODEL 8
REMARK VINA RESULT:    -6.826      1.533      2.175
REMARK INTER + INTRA:         -10.571
REMARK INTER:                  -9.659
REMARK INTRA:                  -0.912
REMARK UNBOUND:                -0.952
REMARK  Name = 
REMARK  7 active torsions:
REMARK  status: ('A' for Active; 'I' for Inactive)
REMARK    1  A    between atoms: C_2  and  C_11
REMARK    2  A    between atoms: N_3  and  C_4
REMARK    3  A    between atoms: C_4  and  C_5
REMARK    4  A    between atoms: C_14  and  C_15
REMARK    5  A    between atoms: C_15  and  N_16
REMARK    6  A    between atoms: N_16  and  C_17
REMARK    7  A    between atoms: C_17  and  C_18
REMARK                            x       y       z     vdW  Elec       q    Type
REMARK                         _______ _______ _______ _____ _____    ______ ____
ROOT
ATOM      1  C   UNL     1      46.624   6.211  12.728  0.00  0.00    +0.000 A 
ATOM      2  C   UNL     1      46.213   6.386  11.402  0.00  0.00    +0.000 A 
ATOM      3  C   UNL     1      45.239   5.551  10.850  0.00  0.00    +0.000 A 
ATOM      4  C   UNL     1      44.651   4.533  11.617  0.00  0.00    +0.000 A 
ATOM      5  C   UNL     1      45.074   4.361  12.945  0.00  0.00    +0.000 A 
ATOM      6  C   UNL     1      46.052   5.195  13.501  0.00  0.00    +0.000 A 
ENDROOT
BRANCH   1   8
ATOM      7  O   UNL     1      47.371   8.375  13.262  0.00  0.00    +0.000 OA
ATOM      8  C   UNL     1      47.609   7.171  13.287  0.00  0.00    +0.000 C 
ATOM      9  N   UNL     1      48.781   6.643  13.789  0.00  0.00    +0.000 N 
ATOM     10  H   UNL     1      49.015   5.681  13.581  0.00  0.00    +0.000 HD
BRANCH   9  11
ATOM     11  C   UNL     1      49.807   7.533  14.295  0.00  0.00    +0.000 C 
BRANCH  11  12
ATOM     12  C   UNL     1      50.082   7.357  15.795  0.00  0.00    +0.000 C 
ATOM     13  C   UNL     1      51.590   7.223  16.068  0.00  0.00    +0.000 C 
ATOM     14  C   UNL     1      51.881   6.957  17.542  0.00  0.00    +0.000 C 
ATOM     15  C   UNL     1      51.135   5.726  18.042  0.00  0.00    +0.000 C 
ATOM     16  C   UNL     1      49.635   5.852  17.800  0.00  0.00    +0.000 C 
ATOM     17  C   UNL     1      49.324   6.130  16.330  0.00  0.00    +0.000 C 
ENDBRANCH  11  12
ENDBRANCH   9  11
ENDBRANCH   1   8
BRANCH   4  18
ATOM     18  C   UNL     1      43.539   3.677  11.044  0.00  0.00    +0.000 C 
BRANCH  18  19
ATOM     19  N   UNL     1      43.751   3.396   9.628  0.00  0.00    +0.000 NA
ATOM     20  H   UNL     1      44.268   4.168   9.207  0.00  0.00    +0.000 HD
BRANCH  19  21
ATOM     21  C   UNL     1      44.502   2.156   9.430  0.00  0.00    +0.000 C 
BRANCH  21  22
ATOM     22  C   UNL     1      45.575   2.351   8.393  0.00  0.00    +0.000 A 
ATOM     23  C   UNL     1      46.450   1.315   8.048  0.00  0.00    +0.000 A 
ATOM     24  C   UNL     1      47.407   1.515   7.060  0.00  0.00    +0.000 A 
ATOM     25  C   UNL     1      47.467   2.756   6.448  0.00  0.00    +0.000 A 
ATOM     26  N   UNL     1      46.653   3.787   6.760  0.00  0.00    +0.000 NA
ATOM     27  C   UNL     1      45.728   3.561   7.722  0.00  0.00    +0.000 A 
ENDBRANCH  21  22
ENDBRANCH  19  21
ENDBRANCH  18  19
ENDBRANCH   4  18
TORSDOF 7
ENDMDL
MODEL 9
REMARK VINA RESULT:    -6.772      2.836      9.492
REMARK INTER + INTRA:         -10.495
REMARK INTER:                  -9.911
REMARK INTRA:                  -0.584
REMARK UNBOUND:                -0.952
REMARK  Name = 
REMARK  7 active torsions:
REMARK  status: ('A' for Active; 'I' for Inactive)
REMARK    1  A    between atoms: C_2  and  C_11
REMARK    2  A    between atoms: N_3  and  C_4
REMARK    3  A    between atoms: C_4  and  C_5
REMARK    4  A    between atoms: C_14  and  C_15
REMARK    5  A    between atoms: C_15  and  N_16
REMARK    6  A    between atoms: N_16  and  C_17
REMARK    7  A    between atoms: C_17  and  C_18
REMARK                            x       y       z     vdW  Elec       q    Type
REMARK                         _______ _______ _______ _____ _____    ______ ____
ROOT
ATOM      1  C   UNL     1      45.278   6.170  11.697  0.00  0.00    +0.000 A 
ATOM      2  C   UNL     1      44.929   7.523  11.765  0.00  0.00    +0.000 A 
ATOM      3  C   UNL     1      45.719   8.420  12.487  0.00  0.00    +0.000 A 
ATOM      4  C   UNL     1      46.878   7.982  13.146  0.00  0.00    +0.000 A 
ATOM      5  C   UNL     1      47.219   6.621  13.077  0.00  0.00    +0.000 A 
ATOM      6  C   UNL     1      46.427   5.719  12.356  0.00  0.00    +0.000 A 
ENDROOT
BRANCH   1   8
ATOM      7  O   UNL     1      43.227   5.425  10.824  0.00  0.00    +0.000 OA
ATOM      8  C   UNL     1      44.444   5.273  10.858  0.00  0.00    +0.000 C 
ATOM      9  N   UNL     1      45.099   4.275  10.167  0.00  0.00    +0.000 N 
ATOM     10  H   UNL     1      46.059   4.060  10.407  0.00  0.00    +0.000 HD
BRANCH   9  11
ATOM     11  C   UNL     1      44.334   3.331   9.376  0.00  0.00    +0.000 C 
BRANCH  11  12
ATOM     12  C   UNL     1      45.107   2.777   8.171  0.00  0.00    +0.000 C 
ATOM     13  C   UNL     1      45.935   1.543   8.565  0.00  0.00    +0.000 C 
ATOM     14  C   UNL     1      46.782   1.030   7.405  0.00  0.00    +0.000 C 
ATOM     15  C   UNL     1      47.684   2.124   6.848  0.00  0.00    +0.000 C 
ATOM     16  C   UNL     1      46.876   3.348   6.430  0.00  0.00    +0.000 C 
ATOM     17  C   UNL     1      46.013   3.871   7.578  0.00  0.00    +0.000 C 
ENDBRANCH  11  12
ENDBRANCH   9  11
ENDBRANCH   1   8
BRANCH   4  18
ATOM     18  C   UNL     1      47.778   8.968  13.864  0.00  0.00    +0.000 C 
BRANCH  18  19
ATOM     19  N   UNL     1      47.421   9.095  15.273  0.00  0.00    +0.000 NA
ATOM     20  H   UNL     1      46.797   8.331  15.531  0.00  0.00    +0.000 HD
BRANCH  19  21
ATOM     21  C   UNL     1      48.603   9.058  16.135  0.00  0.00    +0.000 C 
BRANCH  21  22
ATOM     22  C   UNL     1      48.200   8.869  17.572  0.00  0.00    +0.000 A 
ATOM     23  C   UNL     1      48.266   7.613  18.186  0.00  0.00    +0.000 A 
ATOM     24  C   UNL     1      47.921   7.478  19.527  0.00  0.00    +0.000 A 
ATOM     25  C   UNL     1      47.509   8.607  20.214  0.00  0.00    +0.000 A 
ATOM     26  N   UNL     1      47.415   9.833  19.656  0.00  0.00    +0.000 NA
ATOM     27  C   UNL     1      47.762   9.935  18.352  0.00  0.00    +0.000 A 
ENDBRANCH  21  22
ENDBRANCH  19  21
ENDBRANCH  18  19
ENDBRANCH   4  18
TORSDOF 7
ENDMDL
