MODEL 1
REMARK VINA RESULT:    -7.498      0.000      0.000
REMARK INTER + INTRA:         -11.379
REMARK INTER:                 -10.128
REMARK INTRA:                  -1.251
REMARK UNBOUND:                -1.251
REMARK  Name = 
REMARK  7 active torsions:
REMARK  status: ('A' for Active; 'I' for Inactive)
REMARK    1  A    between atoms: C_1  and  N_2
REMARK    2  A    between atoms: N_2  and  C_3
REMARK    3  A    between atoms: C_3  and  C_4
REMARK    4  A    between atoms: C_10  and  C_12
REMARK    5  A    between atoms: C_15  and  C_16
REMARK    6  A    between atoms: C_16  and  N_17
REMARK    7  A    between atoms: C_18  and  C_20
REMARK                            x       y       z     vdW  Elec       q    Type
REMARK                         _______ _______ _______ _____ _____    ______ ____
ROOT
ATOM      1  C   UNL     1      48.736   6.251  17.319  0.00  0.00    +0.000 A 
ATOM      2  C   UNL     1      49.244   7.456  16.842  0.00  0.00    +0.000 A 
ATOM      3  C   UNL     1      49.128   7.787  15.499  0.00  0.00    +0.000 A 
ATOM      4  C   UNL     1      48.588   6.854  14.626  0.00  0.00    +0.000 A 
ATOM      5  N   UNL     1      48.140   5.641  15.045  0.00  0.00    +0.000 NA
ATOM      6  C   UNL     1      48.228   5.367  16.375  0.00  0.00    +0.000 A 
ENDROOT
BRANCH   1   9
ATOM      7  C   UNL     1      49.788   4.789  20.687  0.00  0.00    +0.000 C 
ATOM      8  N   UNL     1      49.871   5.149  19.279  0.00  0.00    +0.000 N 
ATOM      9  C   UNL     1      48.776   5.846  18.745  0.00  0.00    +0.000 C 
ATOM     10  O   UNL     1      47.809   6.160  19.441  0.00  0.00    +0.000 OA
BRANCH   8  11
ATOM     11  C   UNL     1      51.199   5.041  18.664  0.00  0.00    +0.000 C 
BRANCH  11  12
ATOM     12  C   UNL     1      51.569   3.651  18.199  0.00  0.00    +0.000 A 
ATOM     13  C   UNL     1      52.785   3.020  18.491  0.00  0.00    +0.000 A 
ATOM     14  C   UNL     1      52.992   1.693  18.118  0.00  0.00    +0.000 A 
ATOM     15  C   UNL     1      51.980   1.038  17.437  0.00  0.00    +0.000 A 
ATOM     16  N   UNL     1      50.806   1.616  17.110  0.00  0.00    +0.000 NA
ATOM     17  C   UNL     1      50.627   2.899  17.498  0.00  0.00    +0.000 A 
ENDBRANCH  11  12
ENDBRANCH   8  11
ENDBRANCH   1   9
BRANCH   4  18
ATOM     18  C   UNL     1      48.493   7.186  13.157  0.00  0.00    +0.000 C 
BRANCH  18  19
ATOM     19  N   UNL     1      47.634   6.267  12.447  0.00  0.00    +0.000 N 
ATOM     20  C   UNL     1      46.513   6.671  11.773  0.00  0.00    +0.000 C 
ATOM     21  O   UNL     1      46.160   7.848  11.742  0.00  0.00    +0.000 OA
ATOM     22  H   UNL     1      47.769   5.284  12.666  0.00  0.00    +0.000 HD
BRANCH  20  23
ATOM     23  C   UNL     1      45.795   5.635  11.022  0.00  0.00    +0.000 A 
ATOM     24  C   UNL     1      45.837   5.637   9.633  0.00  0.00    +0.000 A 
ATOM     25  S   UNL     1      45.007   4.331   8.919  0.00  0.00    +0.000 S 
ATOM     26  C   UNL     1      44.513   3.742  10.438  0.00  0.00    +0.000 A 
ATOM     27  N   UNL     1      43.735   2.632  10.538  0.00  0.00    +0.000 NA
ATOM     28  C   UNL     1      43.412   2.314  11.747  0.00  0.00    +0.000 A 
ATOM     29  N   UNL     1      43.801   3.005  12.865  0.00  0.00    +0.000 N 
ATOM     30  C   UNL     1      44.623   4.102  12.813  0.00  0.00    +0.000 A 
ATOM     31  O   UNL     1      45.017   4.653  13.838  0.00  0.00    +0.000 OA
ATOM     32  C   UNL     1      44.994   4.521  11.475  0.00  0.00    +0.000 A 
ATOM     33  H   UNL     1      43.532   2.694  13.787  0.00  0.00    +0.000 HD
ENDBRANCH  20  23
ENDBRANCH  18  19
ENDBRANCH   4  18
TORSDOF 6
ENDMDL
MODEL 2
REMARK VINA RESULT:    -7.305      2.230      3.007
REMARK INTER + INTRA:         -11.119
REMARK INTER:                  -9.718
REMARK INTRA:                  -1.401
REMARK UNBOUND:                -1.251
REMARK  Name = 
REMARK  7 active torsions:
REMARK  status: ('A' for Active; 'I' for Inactive)
REMARK    1  A    between atoms: C_1  and  N_2
REMARK    2  A    between atoms: N_2  and  C_3
REMARK    3  A    between atoms: C_3  and  C_4
REMARK    4  A    between atoms: C_10  and  C_12
REMARK    5  A    between atoms: C_15  and  C_16
REMARK    6  A    between atoms: C_16  and  N_17
REMARK    7  A    between atoms: C_18  and  C_20
REMARK                            x       y       z     vdW  Elec       q    Type
REMARK                         _______ _______ _______ _____ _____    ______ ____
ROOT
ATOM      1  C   UNL     1      49.348   7.891  16.008  0.00  0.00    +0.000 A 
ATOM      2  C   UNL     1      48.374   8.815  15.642  0.00  0.00    +0.000 A 
ATOM      3  C   UNL     1      47.774   8.747  14.391  0.00  0.00    +0.000 A 
ATOM      4  C   UNL     1      48.233   7.806  13.481  0.00  0.00    +0.000 A 
ATOM      5  N   UNL     1      49.226   6.929  13.781  0.00  0.00    +0.000 NA
ATOM      6  C   UNL     1      49.762   6.995  15.031  0.00  0.00    +0.000 A 
ENDROOT
BRANCH   1   9
ATOM      7  C   UNL     1      50.077   7.403  19.726  0.00  0.00    +0.000 C 
ATOM      8  N   UNL     1      49.342   7.357  18.470  0.00  0.00    +0.000 N 
ATOM      9  C   UNL     1      50.001   7.866  17.340  0.00  0.00    +0.000 C 
ATOM     10  O   UNL     1      51.151   8.303  17.405  0.00  0.00    +0.000 OA
BRANCH   8  11
ATOM     11  C   UNL     1      48.149   6.503  18.452  0.00  0.00    +0.000 C 
BRANCH  11  12
ATOM     12  C   UNL     1      48.348   5.152  17.802  0.00  0.00    +0.000 A 
ATOM     13  C   UNL     1      49.468   4.336  18.004  0.00  0.00    +0.000 A 
ATOM     14  C   UNL     1      49.510   3.057  17.453  0.00  0.00    +0.000 A 
ATOM     15  C   UNL     1      48.437   2.637  16.688  0.00  0.00    +0.000 A 
ATOM     16  N   UNL     1      47.352   3.400  16.443  0.00  0.00    +0.000 NA
ATOM     17  C   UNL     1      47.331   4.631  17.003  0.00  0.00    +0.000 A 
ENDBRANCH  11  12
ENDBRANCH   8  11
ENDBRANCH   1   9
BRANCH   4  18
ATOM     18  C   UNL     1      47.616   7.748  12.105  0.00  0.00    +0.000 C 
BRANCH  18  19
ATOM     19  N   UNL     1      46.908   6.510  11.878  0.00  0.00    +0.000 N 
ATOM     20  C   UNL     1      45.566   6.373  12.106  0.00  0.00    +0.000 C 
ATOM     21  O   UNL     1      44.878   7.297  12.533  0.00  0.00    +0.000 OA
ATOM     22  H   UNL     1      47.492   5.687  11.767  0.00  0.00    +0.000 HD
BRANCH  20  23
ATOM     23  C   UNL     1      44.971   5.081  11.740  0.00  0.00    +0.000 A 
ATOM     24  C   UNL     1      44.263   4.355  12.690  0.00  0.00    +0.000 A 
ATOM     25  S   UNL     1      43.583   2.914  12.087  0.00  0.00    +0.000 S 
ATOM     26  C   UNL     1      44.255   3.177  10.545  0.00  0.00    +0.000 A 
ATOM     27  N   UNL     1      44.069   2.282   9.539  0.00  0.00    +0.000 NA
ATOM     28  C   UNL     1      44.657   2.594   8.432  0.00  0.00    +0.000 A 
ATOM     29  N   UNL     1      45.411   3.722   8.241  0.00  0.00    +0.000 N 
ATOM     30  C   UNL     1      45.586   4.673   9.213  0.00  0.00    +0.000 A 
ATOM     31  O   UNL     1      46.203   5.711   8.986  0.00  0.00    +0.000 OA
ATOM     32  C   UNL     1      44.970   4.360  10.488  0.00  0.00    +0.000 A 
ATOM     33  H   UNL     1      45.830   3.920   7.344  0.00  0.00    +0.000 HD
ENDBRANCH  20  23
ENDBRANCH  18  19
ENDBRANCH   4  18
TORSDOF 6
ENDMDL
MODEL 3
REMARK VINA RESULT:    -7.260      1.844      2.220
REMARK INTER + INTRA:         -11.058
REMARK INTER:                  -9.636
REMARK INTRA:                  -1.422
REMARK UNBOUND:                -1.251
REMARK  Name = 
REMARK  7 active torsions:
REMARK  status: ('A' for Active; 'I' for Inactive)
REMARK    1  A    between atoms: C_1  and  N_2
REMARK    2  A    between atoms: N_2  and  C_3
REMARK    3  A    between atoms: C_3  and  C_4
REMARK    4  A    between atoms: C_10  and  C_12
REMARK    5  A    between atoms: C_15  and  C_16
REMARK    6  A    between atoms: C_16  and  N_17
REMARK    7  A    between atoms: C_18  and  C_20
REMARK                            x       y       z     vdW  Elec       q    Type
REMARK                         _______ _______ _______ _____ _____    ______ ____
ROOT
ATOM      1  C   UNL     1      49.062   7.732  16.337  0.00  0.00    +0.000 A 
ATOM      2  C   UNL     1      48.151   8.662  15.845  0.00  0.00    +0.000 A 
ATOM      3  C   UNL     1      47.889   8.739  14.483  0.00  0.00    +0.000 A 
ATOM      4  C   UNL     1      48.624   7.943  13.617  0.00  0.00    +0.000 A 
ATOM      5  N   UNL     1      49.568   7.070  14.056  0.00  0.00    +0.000 NA
ATOM      6  C   UNL     1      49.767   6.988  15.400  0.00  0.00    +0.000 A 
ENDROOT
BRANCH   1   9
ATOM      7  C   UNL     1      48.897   6.725  20.018  0.00  0.00    +0.000 C 
ATOM      8  N   UNL     1      48.511   6.814  18.617  0.00  0.00    +0.000 N 
ATOM      9  C   UNL     1      49.360   7.554  17.780  0.00  0.00    +0.000 C 
ATOM     10  O   UNL     1      50.392   8.076  18.204  0.00  0.00    +0.000 OA
BRANCH   8  11
ATOM     11  C   UNL     1      47.480   5.870  18.173  0.00  0.00    +0.000 C 
BRANCH  11  12
ATOM     12  C   UNL     1      48.011   4.612  17.524  0.00  0.00    +0.000 A 
ATOM     13  C   UNL     1      49.001   3.794  18.083  0.00  0.00    +0.000 A 
ATOM     14  C   UNL     1      49.345   2.592  17.467  0.00  0.00    +0.000 A 
ATOM     15  C   UNL     1      48.705   2.253  16.288  0.00  0.00    +0.000 A 
ATOM     16  N   UNL     1      47.767   3.024  15.700  0.00  0.00    +0.000 NA
ATOM     17  C   UNL     1      47.443   4.177  16.327  0.00  0.00    +0.000 A 
ENDBRANCH  11  12
ENDBRANCH   8  11
ENDBRANCH   1   9
BRANCH   4  18
ATOM     18  C   UNL     1      48.378   8.047  12.132  0.00  0.00    +0.000 C 
BRANCH  18  19
ATOM     19  N   UNL     1      47.624   6.923  11.626  0.00  0.00    +0.000 N 
ATOM     20  C   UNL     1      46.268   6.963  11.444  0.00  0.00    +0.000 C 
ATOM     21  O   UNL     1      45.603   7.961  11.713  0.00  0.00    +0.000 OA
ATOM     22  H   UNL     1      48.110   6.031  11.635  0.00  0.00    +0.000 HD
BRANCH  20  23
ATOM     23  C   UNL     1      45.657   5.775  10.835  0.00  0.00    +0.000 A 
ATOM     24  C   UNL     1      45.825   5.534   9.477  0.00  0.00    +0.000 A 
ATOM     25  S   UNL     1      45.110   4.082   8.943  0.00  0.00    +0.000 S 
ATOM     26  C   UNL     1      44.501   3.747  10.496  0.00  0.00    +0.000 A 
ATOM     27  N   UNL     1      43.756   2.634  10.730  0.00  0.00    +0.000 NA
ATOM     28  C   UNL     1      43.335   2.518  11.946  0.00  0.00    +0.000 A 
ATOM     29  N   UNL     1      43.597   3.415  12.949  0.00  0.00    +0.000 N 
ATOM     30  C   UNL     1      44.381   4.526  12.769  0.00  0.00    +0.000 A 
ATOM     31  O   UNL     1      44.661   5.268  13.706  0.00  0.00    +0.000 OA
ATOM     32  C   UNL     1      44.857   4.720  11.413  0.00  0.00    +0.000 A 
ATOM     33  H   UNL     1      43.255   3.259  13.886  0.00  0.00    +0.000 HD
ENDBRANCH  20  23
ENDBRANCH  18  19
ENDBRANCH   4  18
TORSDOF 6
ENDMDL
MODEL 4
REMARK VINA RESULT:    -6.986      5.766      8.593
REMARK INTER + INTRA:         -10.688
REMARK INTER:                  -9.453
REMARK INTRA:                  -1.236
REMARK UNBOUND:                -1.251
REMARK  Name = 
REMARK  7 active torsions:
REMARK  status: ('A' for Active; 'I' for Inactive)
REMARK    1  A    between atoms: C_1  and  N_2
REMARK    2  A    between atoms: N_2  and  C_3
REMARK    3  A    between atoms: C_3  and  C_4
REMARK    4  A    between atoms: C_10  and  C_12
REMARK    5  A    between atoms: C_15  and  C_16
REMARK    6  A    between atoms: C_16  and  N_17
REMARK    7  A    between atoms: C_18  and  C_20
REMARK                            x       y       z     vdW  Elec       q    Type
REMARK                         _______ _______ _______ _____ _____    ______ ____
ROOT
ATOM      1  C   UNL     1      45.699   5.943  12.574  0.00  0.00    +0.000 A 
ATOM      2  C   UNL     1      46.964   6.150  12.033  0.00  0.00    +0.000 A 
ATOM      3  C   UNL     1      47.471   7.436  11.900  0.00  0.00    +0.000 A 
ATOM      4  C   UNL     1      46.656   8.511  12.222  0.00  0.00    +0.000 A 
ATOM      5  N   UNL     1      45.392   8.349  12.693  0.00  0.00    +0.000 NA
ATOM      6  C   UNL     1      44.943   7.074  12.853  0.00  0.00    +0.000 A 
ENDROOT
BRANCH   1   9
ATOM      7  C   UNL     1      43.638   2.744  12.238  0.00  0.00    +0.000 C 
ATOM      8  N   UNL     1      44.164   4.061  11.907  0.00  0.00    +0.000 N 
ATOM      9  C   UNL     1      45.107   4.601  12.795  0.00  0.00    +0.000 C 
ATOM     10  O   UNL     1      45.489   3.979  13.787  0.00  0.00    +0.000 OA
BRANCH   8  11
ATOM     11  C   UNL     1      43.907   4.532  10.541  0.00  0.00    +0.000 C 
BRANCH  11  12
ATOM     12  C   UNL     1      44.870   4.007   9.500  0.00  0.00    +0.000 A 
ATOM     13  C   UNL     1      45.004   2.654   9.160  0.00  0.00    +0.000 A 
ATOM     14  C   UNL     1      45.834   2.277   8.106  0.00  0.00    +0.000 A 
ATOM     15  C   UNL     1      46.532   3.265   7.436  0.00  0.00    +0.000 A 
ATOM     16  N   UNL     1      46.457   4.575   7.748  0.00  0.00    +0.000 NA
ATOM     17  C   UNL     1      45.631   4.914   8.765  0.00  0.00    +0.000 A 
ENDBRANCH  11  12
ENDBRANCH   8  11
ENDBRANCH   1   9
BRANCH   4  18
ATOM     18  C   UNL     1      47.181   9.915  12.044  0.00  0.00    +0.000 C 
BRANCH  18  19
ATOM     19  N   UNL     1      48.416   9.943  11.295  0.00  0.00    +0.000 N 
ATOM     20  C   UNL     1      49.461  10.764  11.620  0.00  0.00    +0.000 C 
ATOM     21  O   UNL     1      49.408  11.544  12.569  0.00  0.00    +0.000 OA
ATOM     22  H   UNL     1      48.383   9.498  10.382  0.00  0.00    +0.000 HD
BRANCH  20  23
ATOM     23  C   UNL     1      50.683  10.611  10.822  0.00  0.00    +0.000 A 
ATOM     24  C   UNL     1      51.089  11.638   9.979  0.00  0.00    +0.000 A 
ATOM     25  S   UNL     1      52.560  11.329   9.176  0.00  0.00    +0.000 S 
ATOM     26  C   UNL     1      52.684   9.785   9.882  0.00  0.00    +0.000 A 
ATOM     27  N   UNL     1      53.728   8.964   9.591  0.00  0.00    +0.000 NA
ATOM     28  C   UNL     1      53.682   7.813  10.175  0.00  0.00    +0.000 A 
ATOM     29  N   UNL     1      52.687   7.412  11.029  0.00  0.00    +0.000 N 
ATOM     30  C   UNL     1      51.641   8.224  11.386  0.00  0.00    +0.000 A 
ATOM     31  O   UNL     1      50.808   7.864  12.213  0.00  0.00    +0.000 OA
ATOM     32  C   UNL     1      51.628   9.520  10.735  0.00  0.00    +0.000 A 
ATOM     33  H   UNL     1      52.717   6.505  11.470  0.00  0.00    +0.000 HD
ENDBRANCH  20  23
ENDBRANCH  18  19
ENDBRANCH   4  18
TORSDOF 6
ENDMDL
MODEL 5
REMARK VINA RESULT:    -6.928      2.020      3.954
REMARK INTER + INTRA:         -10.610
REMARK INTER:                  -9.178
REMARK INTRA:                  -1.432
REMARK UNBOUND:                -1.251
REMARK  Name = 
REMARK  7 active torsions:
REMARK  status: ('A' for Active; 'I' for Inactive)
REMARK    1  A    between atoms: C_1  and  N_2
REMARK    2  A    between atoms: N_2  and  C_3
REMARK    3  A    between atoms: C_3  and  C_4
REMARK    4  A    between atoms: C_10  and  C_12
REMARK    5  A    between atoms: C_15  and  C_16
REMARK    6  A    between atoms: C_16  and  N_17
REMARK    7  A    between atoms: C_18  and  C_20
REMARK                            x       y       z     vdW  Elec       q    Type
REMARK                         _______ _______ _______ _____ _____    ______ ____
ROOT
ATOM      1  C   UNL     1      49.008   5.490  17.245  0.00  0.00    +0.000 A 
ATOM      2  C   UNL     1      49.699   6.600  16.768  0.00  0.00    +0.000 A 
ATOM      3  C   UNL     1      49.398   7.136  15.523  0.00  0.00    +0.000 A 
ATOM      4  C   UNL     1      48.468   6.487  14.725  0.00  0.00    +0.000 A 
ATOM      5  N   UNL     1      47.820   5.363  15.131  0.00  0.00    +0.000 NA
ATOM      6  C   UNL     1      48.107   4.891  16.375  0.00  0.00    +0.000 A 
ENDROOT
BRANCH   1   9
ATOM      7  C   UNL     1      48.863   4.682  20.976  0.00  0.00    +0.000 C 
ATOM      8  N   UNL     1      48.540   5.336  19.715  0.00  0.00    +0.000 N 
ATOM      9  C   UNL     1      49.237   4.889  18.582  0.00  0.00    +0.000 C 
ATOM     10  O   UNL     1      50.058   3.973  18.648  0.00  0.00    +0.000 OA
BRANCH   8  11
ATOM     11  C   UNL     1      47.314   6.142  19.703  0.00  0.00    +0.000 C 
BRANCH  11  12
ATOM     12  C   UNL     1      47.507   7.592  20.085  0.00  0.00    +0.000 A 
ATOM     13  C   UNL     1      47.824   8.611  19.178  0.00  0.00    +0.000 A 
ATOM     14  C   UNL     1      47.868   9.938  19.603  0.00  0.00    +0.000 A 
ATOM     15  C   UNL     1      47.620  10.207  20.938  0.00  0.00    +0.000 A 
ATOM     16  N   UNL     1      47.341   9.254  21.851  0.00  0.00    +0.000 NA
ATOM     17  C   UNL     1      47.289   7.978  21.407  0.00  0.00    +0.000 A 
ENDBRANCH  11  12
ENDBRANCH   8  11
ENDBRANCH   1   9
BRANCH   4  18
ATOM     18  C   UNL     1      48.161   7.036  13.353  0.00  0.00    +0.000 C 
BRANCH  18  19
ATOM     19  N   UNL     1      47.371   6.119  12.565  0.00  0.00    +0.000 N 
ATOM     20  C   UNL     1      46.358   6.532  11.742  0.00  0.00    +0.000 C 
ATOM     21  O   UNL     1      46.049   7.716  11.631  0.00  0.00    +0.000 OA
ATOM     22  H   UNL     1      47.446   5.140  12.828  0.00  0.00    +0.000 HD
BRANCH  20  23
ATOM     23  C   UNL     1      45.709   5.492  10.935  0.00  0.00    +0.000 A 
ATOM     24  C   UNL     1      45.807   5.534   9.549  0.00  0.00    +0.000 A 
ATOM     25  S   UNL     1      45.056   4.219   8.767  0.00  0.00    +0.000 S 
ATOM     26  C   UNL     1      44.523   3.572  10.248  0.00  0.00    +0.000 A 
ATOM     27  N   UNL     1      43.783   2.432  10.287  0.00  0.00    +0.000 NA
ATOM     28  C   UNL     1      43.423   2.069  11.473  0.00  0.00    +0.000 A 
ATOM     29  N   UNL     1      43.741   2.742  12.623  0.00  0.00    +0.000 N 
ATOM     30  C   UNL     1      44.523   3.869  12.634  0.00  0.00    +0.000 A 
ATOM     31  O   UNL     1      44.855   4.404  13.688  0.00  0.00    +0.000 OA
ATOM     32  C   UNL     1      44.932   4.338  11.324  0.00  0.00    +0.000 A 
ATOM     33  H   UNL     1      43.446   2.396  13.524  0.00  0.00    +0.000 HD
ENDBRANCH  20  23
ENDBRANCH  18  19
ENDBRANCH   4  18
TORSDOF 6
ENDMDL
MODEL 6
REMARK VINA RESULT:    -6.908      3.394      8.870
REMARK INTER + INTRA:         -10.582
REMARK INTER:                  -9.610
REMARK INTRA:                  -0.972
REMARK UNBOUND:                -1.251
REMARK  Name = 
REMARK  7 active torsions:
REMARK  status: ('A' for Active; 'I' for Inactive)
REMARK    1  A    between atoms: C_1  and  N_2
REMARK    2  A    between atoms: N_2  and  C_3
REMARK    3  A    between atoms: C_3  and  C_4
REMARK    4  A    between atoms: C_10  and  C_12
REMARK    5  A    between atoms: C_15  and  C_16
REMARK    6  A    between atoms: C_16  and  N_17
REMARK    7  A    between atoms: C_18  and  C_20
REMARK                            x       y       z     vdW  Elec       q    Type
REMARK                         _______ _______ _______ _____ _____    ______ ____
ROOT
ATOM      1  C   UNL     1      44.937   4.390  11.291  0.00  0.00    +0.000 A 
ATOM      2  C   UNL     1      45.594   4.241  12.508  0.00  0.00    +0.000 A 
ATOM      3  C   UNL     1      46.227   5.324  13.105  0.00  0.00    +0.000 A 
ATOM      4  C   UNL     1      46.276   6.528  12.418  0.00  0.00    +0.000 A 
ATOM      5  N   UNL     1      45.701   6.693  11.198  0.00  0.00    +0.000 NA
ATOM      6  C   UNL     1      45.051   5.623  10.663  0.00  0.00    +0.000 A 
ENDROOT
BRANCH   1   9
ATOM      7  C   UNL     1      43.957   1.499   8.994  0.00  0.00    +0.000 C 
ATOM      8  N   UNL     1      44.788   2.532   9.597  0.00  0.00    +0.000 N 
ATOM      9  C   UNL     1      44.197   3.296  10.614  0.00  0.00    +0.000 C 
ATOM     10  O   UNL     1      43.044   3.085  10.995  0.00  0.00    +0.000 OA
BRANCH   8  11
ATOM     11  C   UNL     1      46.226   2.447   9.316  0.00  0.00    +0.000 C 
BRANCH  11  12
ATOM     12  C   UNL     1      46.584   2.454   7.847  0.00  0.00    +0.000 A 
ATOM     13  C   UNL     1      46.223   3.469   6.951  0.00  0.00    +0.000 A 
ATOM     14  C   UNL     1      46.697   3.447   5.641  0.00  0.00    +0.000 A 
ATOM     15  C   UNL     1      47.501   2.390   5.253  0.00  0.00    +0.000 A 
ATOM     16  N   UNL     1      47.849   1.377   6.072  0.00  0.00    +0.000 NA
ATOM     17  C   UNL     1      47.388   1.432   7.342  0.00  0.00    +0.000 A 
ENDBRANCH  11  12
ENDBRANCH   8  11
ENDBRANCH   1   9
BRANCH   4  18
ATOM     18  C   UNL     1      46.996   7.701  13.037  0.00  0.00    +0.000 C 
BRANCH  18  19
ATOM     19  N   UNL     1      47.381   7.443  14.405  0.00  0.00    +0.000 N 
ATOM     20  C   UNL     1      48.628   6.999  14.752  0.00  0.00    +0.000 C 
ATOM     21  O   UNL     1      49.499   6.780  13.914  0.00  0.00    +0.000 OA
ATOM     22  H   UNL     1      46.615   7.381  15.070  0.00  0.00    +0.000 HD
BRANCH  20  23
ATOM     23  C   UNL     1      48.897   6.872  16.190  0.00  0.00    +0.000 A 
ATOM     24  C   UNL     1      49.370   7.969  16.901  0.00  0.00    +0.000 A 
ATOM     25  S   UNL     1      49.568   7.673  18.568  0.00  0.00    +0.000 S 
ATOM     26  C   UNL     1      49.081   6.051  18.394  0.00  0.00    +0.000 A 
ATOM     27  N   UNL     1      49.047   5.213  19.464  0.00  0.00    +0.000 NA
ATOM     28  C   UNL     1      48.686   4.005  19.184  0.00  0.00    +0.000 A 
ATOM     29  N   UNL     1      48.351   3.562  17.931  0.00  0.00    +0.000 N 
ATOM     30  C   UNL     1      48.326   4.385  16.833  0.00  0.00    +0.000 A 
ATOM     31  O   UNL     1      47.947   3.976  15.739  0.00  0.00    +0.000 OA
ATOM     32  C   UNL     1      48.752   5.748  17.085  0.00  0.00    +0.000 A 
ATOM     33  H   UNL     1      48.057   2.609  17.779  0.00  0.00    +0.000 HD
ENDBRANCH  20  23
ENDBRANCH  18  19
ENDBRANCH   4  18
TORSDOF 6
ENDMDL
MODEL 7
REMARK VINA RESULT:    -6.636      2.773      4.659
REMARK INTER + INTRA:         -10.215
REMARK INTER:                  -8.962
REMARK INTRA:                  -1.253
REMARK UNBOUND:                -1.251
REMARK  Name = 
REMARK  7 active torsions:
REMARK  status: ('A' for Active; 'I' for Inactive)
REMARK    1  A    between atoms: C_1  and  N_2
REMARK    2  A    between atoms: N_2  and  C_3
REMARK    3  A    between atoms: C_3  and  C_4
REMARK    4  A    between atoms: C_10  and  C_12
REMARK    5  A    between atoms: C_15  and  C_16
REMARK    6  A    between atoms: C_16  and  N_17
REMARK    7  A    between atoms: C_18  and  C_20
REMARK                            x       y       z     vdW  Elec       q    Type
REMARK                         _______ _______ _______ _____ _____    ______ ____
ROOT
ATOM      1  C   UNL     1      50.315   5.209  19.221  0.00  0.00    +0.000 A 
ATOM      2  C   UNL     1      49.144   4.644  19.719  0.00  0.00    +0.000 A 
ATOM      3  C   UNL     1      48.231   4.045  18.861  0.00  0.00    +0.000 A 
ATOM      4  C   UNL     1      48.459   4.109  17.494  0.00  0.00    +0.000 A 
ATOM      5  N   UNL     1      49.559   4.709  16.968  0.00  0.00    +0.000 NA
ATOM      6  C   UNL     1      50.456   5.247  17.840  0.00  0.00    +0.000 A 
ENDROOT
BRANCH   1   9
ATOM      7  C   UNL     1      52.361   7.650  21.330  0.00  0.00    +0.000 C 
ATOM      8  N   UNL     1      51.263   7.152  20.513  0.00  0.00    +0.000 N 
ATOM      9  C   UNL     1      51.361   5.822  20.075  0.00  0.00    +0.000 C 
ATOM     10  O   UNL     1      52.314   5.107  20.390  0.00  0.00    +0.000 OA
BRANCH   8  11
ATOM     11  C   UNL     1      50.042   7.966  20.510  0.00  0.00    +0.000 C 
BRANCH  11  12
ATOM     12  C   UNL     1      49.660   8.527  19.160  0.00  0.00    +0.000 A 
ATOM     13  C   UNL     1      48.390   8.399  18.583  0.00  0.00    +0.000 A 
ATOM     14  C   UNL     1      48.096   9.050  17.386  0.00  0.00    +0.000 A 
ATOM     15  C   UNL     1      49.095   9.792  16.781  0.00  0.00    +0.000 A 
ATOM     16  N   UNL     1      50.340   9.918  17.285  0.00  0.00    +0.000 NA
ATOM     17  C   UNL     1      50.592   9.289  18.456  0.00  0.00    +0.000 A 
ENDBRANCH  11  12
ENDBRANCH   8  11
ENDBRANCH   1   9
BRANCH   4  18
ATOM     18  C   UNL     1      47.454   3.498  16.548  0.00  0.00    +0.000 C 
BRANCH  18  19
ATOM     19  N   UNL     1      46.931   4.465  15.612  0.00  0.00    +0.000 N 
ATOM     20  C   UNL     1      46.833   4.219  14.269  0.00  0.00    +0.000 C 
ATOM     21  O   UNL     1      47.198   3.156  13.773  0.00  0.00    +0.000 OA
ATOM     22  H   UNL     1      46.859   5.417  15.961  0.00  0.00    +0.000 HD
BRANCH  20  23
ATOM     23  C   UNL     1      46.194   5.263  13.460  0.00  0.00    +0.000 A 
ATOM     24  C   UNL     1      46.851   6.470  13.249  0.00  0.00    +0.000 A 
ATOM     25  S   UNL     1      46.004   7.546  12.235  0.00  0.00    +0.000 S 
ATOM     26  C   UNL     1      44.700   6.463  12.082  0.00  0.00    +0.000 A 
ATOM     27  N   UNL     1      43.604   6.787  11.347  0.00  0.00    +0.000 NA
ATOM     28  C   UNL     1      42.680   5.885  11.339  0.00  0.00    +0.000 A 
ATOM     29  N   UNL     1      42.756   4.686  11.999  0.00  0.00    +0.000 N 
ATOM     30  C   UNL     1      43.861   4.299  12.714  0.00  0.00    +0.000 A 
ATOM     31  O   UNL     1      43.930   3.186  13.229  0.00  0.00    +0.000 OA
ATOM     32  C   UNL     1      44.920   5.288  12.779  0.00  0.00    +0.000 A 
ATOM     33  H   UNL     1      42.007   4.012  11.939  0.00  0.00    +0.000 HD
ENDBRANCH  20  23
ENDBRANCH  18  19
ENDBRANCH   4  18
TORSDOF 6
ENDMDL
MODEL 8
REMARK VINA RESULT:    -6.473      6.374     10.962
REMARK INTER + INTRA:          -9.995
REMARK INTER:                  -9.100
REMARK INTRA:                  -0.895
REMARK UNBOUND:                -1.251
REMARK  Name = 
REMARK  7 active torsions:
REMARK  status: ('A' for Active; 'I' for Inactive)
REMARK    1  A    between atoms: C_1  and  N_2
REMARK    2  A    between atoms: N_2  and  C_3
REMARK    3  A    between atoms: C_3  and  C_4
REMARK    4  A    between atoms: C_10  and  C_12
REMARK    5  A    between atoms: C_15  and  C_16
REMARK    6  A    between atoms: C_16  and  N_17
REMARK    7  A    between atoms: C_18  and  C_20
REMARK                            x       y       z     vdW  Elec       q    Type
REMARK                         _______ _______ _______ _____ _____    ______ ____
ROOT
ATOM      1  C   UNL     1      42.257  11.412  10.246  0.00  0.00    +0.000 A 
ATOM      2  C   UNL     1      42.566  10.058  10.155  0.00  0.00    +0.000 A 
ATOM      3  C   UNL     1      43.593   9.518  10.918  0.00  0.00    +0.000 A 
ATOM      4  C   UNL     1      44.365  10.368  11.695  0.00  0.00    +0.000 A 
ATOM      5  N   UNL     1      44.133  11.705  11.759  0.00  0.00    +0.000 NA
ATOM      6  C   UNL     1      43.091  12.195  11.032  0.00  0.00    +0.000 A 
ENDROOT
BRANCH   1   9
ATOM      7  C   UNL     1      38.819  12.667   9.151  0.00  0.00    +0.000 C 
ATOM      8  N   UNL     1      39.827  12.018   9.978  0.00  0.00    +0.000 N 
ATOM      9  C   UNL     1      41.146  12.055   9.501  0.00  0.00    +0.000 C 
ATOM     10  O   UNL     1      41.438  12.631   8.453  0.00  0.00    +0.000 OA
BRANCH   8  11
ATOM     11  C   UNL     1      39.421  11.690  11.349  0.00  0.00    +0.000 C 
BRANCH  11  12
ATOM     12  C   UNL     1      38.106  10.951  11.460  0.00  0.00    +0.000 A 
ATOM     13  C   UNL     1      36.998  11.417  12.179  0.00  0.00    +0.000 A 
ATOM     14  C   UNL     1      35.790  10.724  12.128  0.00  0.00    +0.000 A 
ATOM     15  C   UNL     1      35.731   9.563  11.377  0.00  0.00    +0.000 A 
ATOM     16  N   UNL     1      36.780   9.063  10.694  0.00  0.00    +0.000 NA
ATOM     17  C   UNL     1      37.936   9.764  10.749  0.00  0.00    +0.000 A 
ENDBRANCH  11  12
ENDBRANCH   8  11
ENDBRANCH   1   9
BRANCH   4  18
ATOM     18  C   UNL     1      45.509   9.799  12.499  0.00  0.00    +0.000 C 
BRANCH  18  19
ATOM     19  N   UNL     1      45.405   8.367  12.653  0.00  0.00    +0.000 N 
ATOM     20  C   UNL     1      46.397   7.507  12.268  0.00  0.00    +0.000 C 
ATOM     21  O   UNL     1      47.440   7.902  11.752  0.00  0.00    +0.000 OA
ATOM     22  H   UNL     1      44.471   8.015  12.843  0.00  0.00    +0.000 HD
BRANCH  20  23
ATOM     23  C   UNL     1      46.185   6.087  12.575  0.00  0.00    +0.000 A 
ATOM     24  C   UNL     1      47.139   5.390  13.308  0.00  0.00    +0.000 A 
ATOM     25  S   UNL     1      46.709   3.774  13.634  0.00  0.00    +0.000 S 
ATOM     26  C   UNL     1      45.256   3.926  12.762  0.00  0.00    +0.000 A 
ATOM     27  N   UNL     1      44.407   2.873  12.627  0.00  0.00    +0.000 NA
ATOM     28  C   UNL     1      43.356   3.120  11.918  0.00  0.00    +0.000 A 
ATOM     29  N   UNL     1      43.077   4.329  11.334  0.00  0.00    +0.000 N 
ATOM     30  C   UNL     1      43.882   5.430  11.482  0.00  0.00    +0.000 A 
ATOM     31  O   UNL     1      43.565   6.519  11.011  0.00  0.00    +0.000 OA
ATOM     32  C   UNL     1      45.092   5.200  12.247  0.00  0.00    +0.000 A 
ATOM     33  H   UNL     1      42.229   4.466  10.806  0.00  0.00    +0.000 HD
ENDBRANCH  20  23
ENDBRANCH  18  19
ENDBRANCH   4  18
TORSDOF 6
ENDMDL
MODEL 9
REMARK VINA RESULT:    -6.287      1.958      2.537
REMARK INTER + INTRA:          -9.743
REMARK INTER:                  -8.471
REMARK INTRA:                  -1.272
REMARK UNBOUND:                -1.251
REMARK  Name = 
REMARK  7 active torsions:
REMARK  status: ('A' for Active; 'I' for Inactive)
REMARK    1  A    between atoms: C_1  and  N_2
REMARK    2  A    between atoms: N_2  and  C_3
REMARK    3  A    between atoms: C_3  and  C_4
REMARK    4  A    between atoms: C_10  and  C_12
REMARK    5  A    between atoms: C_15  and  C_16
REMARK    6  A    between atoms: C_16  and  N_17
REMARK    7  A    between atoms: C_18  and  C_20
REMARK                            x       y       z     vdW  Elec       q    Type
REMARK                         _______ _______ _______ _____ _____    ______ ____
ROOT
ATOM      1  C   UNL     1      50.638   6.893  17.843  0.00  0.00    +0.000 A 
ATOM      2  C   UNL     1      49.345   7.286  17.511  0.00  0.00    +0.000 A 
ATOM      3  C   UNL     1      49.015   7.583  16.195  0.00  0.00    +0.000 A 
ATOM      4  C   UNL     1      50.019   7.577  15.238  0.00  0.00    +0.000 A 
ATOM      5  N   UNL     1      51.306   7.261  15.537  0.00  0.00    +0.000 NA
ATOM      6  C   UNL     1      51.585   6.931  16.828  0.00  0.00    +0.000 A 
ENDROOT
BRANCH   1   9
ATOM      7  C   UNL     1      51.711   4.923  20.935  0.00  0.00    +0.000 C 
ATOM      8  N   UNL     1      51.326   5.177  19.554  0.00  0.00    +0.000 N 
ATOM      9  C   UNL     1      51.057   6.512  19.214  0.00  0.00    +0.000 C 
ATOM     10  O   UNL     1      51.168   7.423  20.036  0.00  0.00    +0.000 OA
BRANCH   8  11
ATOM     11  C   UNL     1      51.576   4.086  18.605  0.00  0.00    +0.000 C 
BRANCH  11  12
ATOM     12  C   UNL     1      50.331   3.454  18.025  0.00  0.00    +0.000 A 
ATOM     13  C   UNL     1      49.026   3.790  18.406  0.00  0.00    +0.000 A 
ATOM     14  C   UNL     1      47.937   3.238  17.734  0.00  0.00    +0.000 A 
ATOM     15  C   UNL     1      48.185   2.340  16.711  0.00  0.00    +0.000 A 
ATOM     16  N   UNL     1      49.424   1.966  16.330  0.00  0.00    +0.000 NA
ATOM     17  C   UNL     1      50.462   2.529  16.990  0.00  0.00    +0.000 A 
ENDBRANCH  11  12
ENDBRANCH   8  11
ENDBRANCH   1   9
BRANCH   4  18
ATOM     18  C   UNL     1      49.682   7.938  13.812  0.00  0.00    +0.000 C 
BRANCH  18  19
ATOM     19  N   UNL     1      48.509   7.240  13.338  0.00  0.00    +0.000 N 
ATOM     20  C   UNL     1      47.265   7.809  13.323  0.00  0.00    +0.000 C 
ATOM     21  O   UNL     1      47.065   8.952  13.727  0.00  0.00    +0.000 OA
ATOM     22  H   UNL     1      48.610   6.234  13.237  0.00  0.00    +0.000 HD
BRANCH  20  23
ATOM     23  C   UNL     1      46.189   7.009  12.726  0.00  0.00    +0.000 A 
ATOM     24  C   UNL     1      45.214   7.631  11.956  0.00  0.00    +0.000 A 
ATOM     25  S   UNL     1      44.079   6.553  11.282  0.00  0.00    +0.000 S 
ATOM     26  C   UNL     1      44.815   5.218  12.039  0.00  0.00    +0.000 A 
ATOM     27  N   UNL     1      44.312   3.964  11.889  0.00  0.00    +0.000 NA
ATOM     28  C   UNL     1      44.952   3.050  12.540  0.00  0.00    +0.000 A 
ATOM     29  N   UNL     1      46.053   3.279  13.323  0.00  0.00    +0.000 N 
ATOM     30  C   UNL     1      46.621   4.519  13.465  0.00  0.00    +0.000 A 
ATOM     31  O   UNL     1      47.653   4.678  14.111  0.00  0.00    +0.000 OA
ATOM     32  C   UNL     1      45.924   5.589  12.777  0.00  0.00    +0.000 A 
ATOM     33  H   UNL     1      46.522   2.518  13.793  0.00  0.00    +0.000 HD
ENDBRANCH  20  23
ENDBRANCH  18  19
ENDBRANCH   4  18
TORSDOF 6
ENDMDL
