MODEL 1
REMARK VINA RESULT:    -8.198      0.000      0.000
REMARK INTER + INTRA:         -12.963
REMARK INTER:                 -11.793
REMARK INTRA:                  -1.171
REMARK UNBOUND:                -1.171
REMARK  Name = 
REMARK  9 active torsions:
REMARK  status: ('A' for Active; 'I' for Inactive)
REMARK    1  A    between atoms: C_1  and  C_2
REMARK    2  A    between atoms: C_6  and  C_7
REMARK    3  A    between atoms: C_7  and  N_8
REMARK    4  A    between atoms: N_8  and  C_9
REMARK    5  A    between atoms: C_9  and  C_10
REMARK    6  A    between atoms: C_13  and  C_14
REMARK    7  A    between atoms: C_14  and  N_15
REMARK    8  A    between atoms: C_16  and  C_18
REMARK    9  A    between atoms: C_25  and  O_26
REMARK                            x       y       z     vdW  Elec       q    Type
REMARK                         _______ _______ _______ _____ _____    ______ ____
ROOT
ATOM      1  C   UNL     1      44.696   5.570  11.876  0.00  0.00    +0.000 A 
ATOM      2  C   UNL     1      45.052   4.842  13.020  0.00  0.00    +0.000 A 
ATOM      3  C   UNL     1      46.215   5.153  13.730  0.00  0.00    +0.000 A 
ATOM      4  C   UNL     1      47.043   6.202  13.312  0.00  0.00    +0.000 A 
ATOM      5  C   UNL     1      46.707   6.907  12.147  0.00  0.00    +0.000 A 
ATOM      6  C   UNL     1      45.544   6.597  11.439  0.00  0.00    +0.000 A 
ENDROOT
BRANCH   1   7
ATOM      7  C   UNL     1      43.405   5.275  11.145  0.00  0.00    +0.000 C 
BRANCH   7   8
ATOM      8  N   UNL     1      43.613   4.683   9.823  0.00  0.00    +0.000 NA
ATOM      9  H   UNL     1      42.725   4.680   9.319  0.00  0.00    +0.000 HD
BRANCH   8  10
ATOM     10  C   UNL     1      44.054   3.283   9.908  0.00  0.00    +0.000 C 
BRANCH  10  16
ATOM     11  C   UNL     1      46.848  -0.028   7.671  0.00  0.00    +0.000 C 
ATOM     12  C   UNL     1      46.466   1.413   7.817  0.00  0.00    +0.000 A 
ATOM     13  C   UNL     1      47.087   2.399   7.057  0.00  0.00    +0.000 A 
ATOM     14  C   UNL     1      46.705   3.724   7.236  0.00  0.00    +0.000 A 
ATOM     15  C   UNL     1      45.720   4.027   8.167  0.00  0.00    +0.000 A 
ATOM     16  C   UNL     1      45.149   2.991   8.901  0.00  0.00    +0.000 A 
ATOM     17  N   UNL     1      45.502   1.691   8.727  0.00  0.00    +0.000 NA
ENDBRANCH  10  16
ENDBRANCH   8  10
ENDBRANCH   7   8
ENDBRANCH   1   7
BRANCH   4  18
ATOM     18  C   UNL     1      48.283   6.559  14.087  0.00  0.00    +0.000 C 
BRANCH  18  19
ATOM     19  N   UNL     1      48.080   6.417  15.504  0.00  0.00    +0.000 N 
ATOM     20  C   UNL     1      49.125   6.150  16.347  0.00  0.00    +0.000 C 
ATOM     21  O   UNL     1      50.284   6.071  15.944  0.00  0.00    +0.000 OA
ATOM     22  H   UNL     1      47.136   6.270  15.845  0.00  0.00    +0.000 HD
BRANCH  20  23
ATOM     23  C   UNL     1      48.796   6.035  17.772  0.00  0.00    +0.000 A 
ATOM     24  C   UNL     1      49.040   4.833  18.425  0.00  0.00    +0.000 A 
ATOM     25  S   UNL     1      48.668   4.873  20.084  0.00  0.00    +0.000 S 
ATOM     26  C   UNL     1      48.113   6.476  19.973  0.00  0.00    +0.000 A 
ATOM     27  N   UNL     1      47.634   7.090  21.074  0.00  0.00    +0.000 NA
ATOM     28  C   UNL     1      47.207   8.348  20.870  0.00  0.00    +0.000 A 
ATOM     29  C   UNL     1      47.228   9.010  19.661  0.00  0.00    +0.000 A 
ATOM     30  C   UNL     1      47.738   8.336  18.555  0.00  0.00    +0.000 A 
ATOM     31  C   UNL     1      48.218   7.006  18.687  0.00  0.00    +0.000 A 
BRANCH  30  32
ATOM     32  O   UNL     1      47.772   8.973  17.339  0.00  0.00    +0.000 OA
ATOM     33  H   UNL     1      47.675   8.313  16.628  0.00  0.00    +0.000 HD
ENDBRANCH  30  32
ENDBRANCH  20  23
ENDBRANCH  18  19
ENDBRANCH   4  18
TORSDOF 8
ENDMDL
MODEL 2
REMARK VINA RESULT:    -8.114      1.242      1.882
REMARK INTER + INTRA:         -12.842
REMARK INTER:                 -11.673
REMARK INTRA:                  -1.169
REMARK UNBOUND:                -1.171
REMARK  Name = 
REMARK  9 active torsions:
REMARK  status: ('A' for Active; 'I' for Inactive)
REMARK    1  A    between atoms: C_1  and  C_2
REMARK    2  A    between atoms: C_6  and  C_7
REMARK    3  A    between atoms: C_7  and  N_8
REMARK    4  A    between atoms: N_8  and  C_9
REMARK    5  A    between atoms: C_9  and  C_10
REMARK    6  A    between atoms: C_13  and  C_14
REMARK    7  A    between atoms: C_14  and  N_15
REMARK    8  A    between atoms: C_16  and  C_18
REMARK    9  A    between atoms: C_25  and  O_26
REMARK                            x       y       z     vdW  Elec       q    Type
REMARK                         _______ _______ _______ _____ _____    ______ ____
ROOT
ATOM      1  C   UNL     1      44.784   5.711  11.921  0.00  0.00    +0.000 A 
ATOM      2  C   UNL     1      45.108   5.033  13.105  0.00  0.00    +0.000 A 
ATOM      3  C   UNL     1      46.306   5.299  13.774  0.00  0.00    +0.000 A 
ATOM      4  C   UNL     1      47.201   6.253  13.274  0.00  0.00    +0.000 A 
ATOM      5  C   UNL     1      46.894   6.905  12.072  0.00  0.00    +0.000 A 
ATOM      6  C   UNL     1      45.696   6.640  11.405  0.00  0.00    +0.000 A 
ENDROOT
BRANCH   1   7
ATOM      7  C   UNL     1      43.459   5.469  11.233  0.00  0.00    +0.000 C 
BRANCH   7   8
ATOM      8  N   UNL     1      43.597   4.831   9.923  0.00  0.00    +0.000 NA
ATOM      9  H   UNL     1      42.679   4.788   9.478  0.00  0.00    +0.000 HD
BRANCH   8  10
ATOM     10  C   UNL     1      44.080   3.446  10.031  0.00  0.00    +0.000 C 
BRANCH  10  16
ATOM     11  C   UNL     1      46.787   0.133   7.693  0.00  0.00    +0.000 C 
ATOM     12  C   UNL     1      46.420   1.575   7.861  0.00  0.00    +0.000 A 
ATOM     13  C   UNL     1      47.029   2.563   7.093  0.00  0.00    +0.000 A 
ATOM     14  C   UNL     1      46.663   3.890   7.293  0.00  0.00    +0.000 A 
ATOM     15  C   UNL     1      45.705   4.192   8.253  0.00  0.00    +0.000 A 
ATOM     16  C   UNL     1      45.145   3.155   8.993  0.00  0.00    +0.000 A 
ATOM     17  N   UNL     1      45.483   1.853   8.799  0.00  0.00    +0.000 NA
ENDBRANCH  10  16
ENDBRANCH   8  10
ENDBRANCH   7   8
ENDBRANCH   1   7
BRANCH   4  18
ATOM     18  C   UNL     1      48.481   6.564  14.004  0.00  0.00    +0.000 C 
BRANCH  18  19
ATOM     19  N   UNL     1      48.228   6.998  15.352  0.00  0.00    +0.000 N 
ATOM     20  C   UNL     1      48.818   6.376  16.420  0.00  0.00    +0.000 C 
ATOM     21  O   UNL     1      49.625   5.460  16.275  0.00  0.00    +0.000 OA
ATOM     22  H   UNL     1      47.428   7.598  15.525  0.00  0.00    +0.000 HD
BRANCH  20  23
ATOM     23  C   UNL     1      48.490   6.913  17.745  0.00  0.00    +0.000 A 
ATOM     24  C   UNL     1      48.197   8.265  17.870  0.00  0.00    +0.000 A 
ATOM     25  S   UNL     1      47.773   8.725  19.452  0.00  0.00    +0.000 S 
ATOM     26  C   UNL     1      48.027   7.148  20.032  0.00  0.00    +0.000 A 
ATOM     27  N   UNL     1      47.846   6.887  21.344  0.00  0.00    +0.000 NA
ATOM     28  C   UNL     1      48.089   5.614  21.698  0.00  0.00    +0.000 A 
ATOM     29  C   UNL     1      48.494   4.612  20.840  0.00  0.00    +0.000 A 
ATOM     30  C   UNL     1      48.660   4.930  19.496  0.00  0.00    +0.000 A 
ATOM     31  C   UNL     1      48.416   6.251  19.037  0.00  0.00    +0.000 A 
BRANCH  30  32
ATOM     32  O   UNL     1      49.062   3.951  18.621  0.00  0.00    +0.000 OA
ATOM     33  H   UNL     1      48.807   3.079  18.974  0.00  0.00    +0.000 HD
ENDBRANCH  30  32
ENDBRANCH  20  23
ENDBRANCH  18  19
ENDBRANCH   4  18
TORSDOF 8
ENDMDL
MODEL 3
REMARK VINA RESULT:    -7.986      2.128      2.524
REMARK INTER + INTRA:         -12.658
REMARK INTER:                 -11.641
REMARK INTRA:                  -1.017
REMARK UNBOUND:                -1.171
REMARK  Name = 
REMARK  9 active torsions:
REMARK  status: ('A' for Active; 'I' for Inactive)
REMARK    1  A    between atoms: C_1  and  C_2
REMARK    2  A    between atoms: C_6  and  C_7
REMARK    3  A    between atoms: C_7  and  N_8
REMARK    4  A    between atoms: N_8  and  C_9
REMARK    5  A    between atoms: C_9  and  C_10
REMARK    6  A    between atoms: C_13  and  C_14
REMARK    7  A    between atoms: C_14  and  N_15
REMARK    8  A    between atoms: C_16  and  C_18
REMARK    9  A    between atoms: C_25  and  O_26
REMARK                            x       y       z     vdW  Elec       q    Type
REMARK                         _______ _______ _______ _____ _____    ______ ____
ROOT
ATOM      1  C   UNL     1      44.321   4.178  12.305  0.00  0.00    +0.000 A 
ATOM      2  C   UNL     1      43.786   5.470  12.397  0.00  0.00    +0.000 A 
ATOM      3  C   UNL     1      44.597   6.556  12.739  0.00  0.00    +0.000 A 
ATOM      4  C   UNL     1      45.962   6.370  12.991  0.00  0.00    +0.000 A 
ATOM      5  C   UNL     1      46.490   5.073  12.934  0.00  0.00    +0.000 A 
ATOM      6  C   UNL     1      45.680   3.989  12.591  0.00  0.00    +0.000 A 
ENDROOT
BRANCH   1   7
ATOM      7  C   UNL     1      43.457   3.015  11.872  0.00  0.00    +0.000 C 
BRANCH   7   8
ATOM      8  N   UNL     1      43.898   2.403  10.617  0.00  0.00    +0.000 NA
ATOM      9  H   UNL     1      44.784   1.922  10.778  0.00  0.00    +0.000 HD
BRANCH   8  10
ATOM     10  C   UNL     1      44.146   3.407   9.571  0.00  0.00    +0.000 C 
BRANCH  10  16
ATOM     11  C   UNL     1      46.810  -0.225   7.704  0.00  0.00    +0.000 C 
ATOM     12  C   UNL     1      46.533   1.246   7.748  0.00  0.00    +0.000 A 
ATOM     13  C   UNL     1      47.275   2.138   6.981  0.00  0.00    +0.000 A 
ATOM     14  C   UNL     1      46.986   3.496   7.063  0.00  0.00    +0.000 A 
ATOM     15  C   UNL     1      45.970   3.924   7.909  0.00  0.00    +0.000 A 
ATOM     16  C   UNL     1      45.276   2.977   8.657  0.00  0.00    +0.000 A 
ATOM     17  N   UNL     1      45.538   1.647   8.576  0.00  0.00    +0.000 NA
ENDBRANCH  10  16
ENDBRANCH   8  10
ENDBRANCH   7   8
ENDBRANCH   1   7
BRANCH   4  18
ATOM     18  C   UNL     1      46.848   7.539  13.333  0.00  0.00    +0.000 C 
BRANCH  18  19
ATOM     19  N   UNL     1      47.568   7.314  14.559  0.00  0.00    +0.000 N 
ATOM     20  C   UNL     1      48.899   6.990  14.550  0.00  0.00    +0.000 C 
ATOM     21  O   UNL     1      49.547   6.928  13.507  0.00  0.00    +0.000 OA
ATOM     22  H   UNL     1      47.038   7.153  15.409  0.00  0.00    +0.000 HD
BRANCH  20  23
ATOM     23  C   UNL     1      49.527   6.793  15.861  0.00  0.00    +0.000 A 
ATOM     24  C   UNL     1      50.679   7.506  16.169  0.00  0.00    +0.000 A 
ATOM     25  S   UNL     1      51.252   7.222  17.745  0.00  0.00    +0.000 S 
ATOM     26  C   UNL     1      50.017   6.094  18.045  0.00  0.00    +0.000 A 
ATOM     27  N   UNL     1      49.967   5.467  19.238  0.00  0.00    +0.000 NA
ATOM     28  C   UNL     1      48.962   4.584  19.364  0.00  0.00    +0.000 A 
ATOM     29  C   UNL     1      48.028   4.298  18.390  0.00  0.00    +0.000 A 
ATOM     30  C   UNL     1      48.117   4.976  17.178  0.00  0.00    +0.000 A 
ATOM     31  C   UNL     1      49.146   5.931  16.967  0.00  0.00    +0.000 A 
BRANCH  30  32
ATOM     32  O   UNL     1      47.200   4.710  16.192  0.00  0.00    +0.000 OA
ATOM     33  H   UNL     1      46.914   5.548  15.784  0.00  0.00    +0.000 HD
ENDBRANCH  30  32
ENDBRANCH  20  23
ENDBRANCH  18  19
ENDBRANCH   4  18
TORSDOF 8
ENDMDL
MODEL 4
REMARK VINA RESULT:    -7.432      3.177      8.901
REMARK INTER + INTRA:         -11.862
REMARK INTER:                 -10.291
REMARK INTRA:                  -1.570
REMARK UNBOUND:                -1.171
REMARK  Name = 
REMARK  9 active torsions:
REMARK  status: ('A' for Active; 'I' for Inactive)
REMARK    1  A    between atoms: C_1  and  C_2
REMARK    2  A    between atoms: C_6  and  C_7
REMARK    3  A    between atoms: C_7  and  N_8
REMARK    4  A    between atoms: N_8  and  C_9
REMARK    5  A    between atoms: C_9  and  C_10
REMARK    6  A    between atoms: C_13  and  C_14
REMARK    7  A    between atoms: C_14  and  N_15
REMARK    8  A    between atoms: C_16  and  C_18
REMARK    9  A    between atoms: C_25  and  O_26
REMARK                            x       y       z     vdW  Elec       q    Type
REMARK                         _______ _______ _______ _____ _____    ______ ____
ROOT
ATOM      1  C   UNL     1      48.790   8.029  16.254  0.00  0.00    +0.000 A 
ATOM      2  C   UNL     1      48.148   9.119  15.650  0.00  0.00    +0.000 A 
ATOM      3  C   UNL     1      47.747   9.059  14.312  0.00  0.00    +0.000 A 
ATOM      4  C   UNL     1      47.976   7.905  13.554  0.00  0.00    +0.000 A 
ATOM      5  C   UNL     1      48.650   6.828  14.147  0.00  0.00    +0.000 A 
ATOM      6  C   UNL     1      49.049   6.888  15.483  0.00  0.00    +0.000 A 
ENDROOT
BRANCH   1   7
ATOM      7  C   UNL     1      49.166   8.072  17.718  0.00  0.00    +0.000 C 
BRANCH   7   8
ATOM      8  N   UNL     1      48.202   7.386  18.581  0.00  0.00    +0.000 NA
ATOM      9  H   UNL     1      47.929   8.016  19.336  0.00  0.00    +0.000 HD
BRANCH   8  10
ATOM     10  C   UNL     1      48.781   6.192  19.215  0.00  0.00    +0.000 C 
BRANCH  10  16
ATOM     11  C   UNL     1      50.665   2.147  17.251  0.00  0.00    +0.000 C 
ATOM     12  C   UNL     1      49.463   3.020  17.439  0.00  0.00    +0.000 A 
ATOM     13  C   UNL     1      48.242   2.690  16.859  0.00  0.00    +0.000 A 
ATOM     14  C   UNL     1      47.156   3.537  17.053  0.00  0.00    +0.000 A 
ATOM     15  C   UNL     1      47.320   4.687  17.816  0.00  0.00    +0.000 A 
ATOM     16  C   UNL     1      48.573   4.960  18.358  0.00  0.00    +0.000 A 
ATOM     17  N   UNL     1      49.639   4.135  18.188  0.00  0.00    +0.000 NA
ENDBRANCH  10  16
ENDBRANCH   8  10
ENDBRANCH   7   8
ENDBRANCH   1   7
BRANCH   4  18
ATOM     18  C   UNL     1      47.522   7.823  12.120  0.00  0.00    +0.000 C 
BRANCH  18  19
ATOM     19  N   UNL     1      46.856   6.577  11.848  0.00  0.00    +0.000 N 
ATOM     20  C   UNL     1      45.507   6.438  12.040  0.00  0.00    +0.000 C 
ATOM     21  O   UNL     1      44.800   7.377  12.401  0.00  0.00    +0.000 OA
ATOM     22  H   UNL     1      47.418   5.738  11.752  0.00  0.00    +0.000 HD
BRANCH  20  23
ATOM     23  C   UNL     1      44.939   5.124  11.720  0.00  0.00    +0.000 A 
ATOM     24  C   UNL     1      44.294   4.407  12.721  0.00  0.00    +0.000 A 
ATOM     25  S   UNL     1      43.632   2.936  12.184  0.00  0.00    +0.000 S 
ATOM     26  C   UNL     1      44.235   3.179  10.615  0.00  0.00    +0.000 A 
ATOM     27  N   UNL     1      44.017   2.242   9.668  0.00  0.00    +0.000 NA
ATOM     28  C   UNL     1      44.552   2.527   8.468  0.00  0.00    +0.000 A 
ATOM     29  C   UNL     1      45.275   3.662   8.167  0.00  0.00    +0.000 A 
ATOM     30  C   UNL     1      45.467   4.601   9.176  0.00  0.00    +0.000 A 
ATOM     31  C   UNL     1      44.928   4.381  10.471  0.00  0.00    +0.000 A 
BRANCH  30  32
ATOM     32  O   UNL     1      46.183   5.741   8.903  0.00  0.00    +0.000 OA
ATOM     33  H   UNL     1      45.756   6.501   9.338  0.00  0.00    +0.000 HD
ENDBRANCH  30  32
ENDBRANCH  20  23
ENDBRANCH  18  19
ENDBRANCH   4  18
TORSDOF 8
ENDMDL
MODEL 5
REMARK VINA RESULT:    -7.138      3.130      8.884
REMARK INTER + INTRA:         -11.438
REMARK INTER:                  -9.833
REMARK INTRA:                  -1.605
REMARK UNBOUND:                -1.171
REMARK  Name = 
REMARK  9 active torsions:
REMARK  status: ('A' for Active; 'I' for Inactive)
REMARK    1  A    between atoms: C_1  and  C_2
REMARK    2  A    between atoms: C_6  and  C_7
REMARK    3  A    between atoms: C_7  and  N_8
REMARK    4  A    between atoms: N_8  and  C_9
REMARK    5  A    between atoms: C_9  and  C_10
REMARK    6  A    between atoms: C_13  and  C_14
REMARK    7  A    between atoms: C_14  and  N_15
REMARK    8  A    between atoms: C_16  and  C_18
REMARK    9  A    between atoms: C_25  and  O_26
REMARK                            x       y       z     vdW  Elec       q    Type
REMARK                         _______ _______ _______ _____ _____    ______ ____
ROOT
ATOM      1  C   UNL     1      49.671   8.266  15.702  0.00  0.00    +0.000 A 
ATOM      2  C   UNL     1      50.234   7.579  14.616  0.00  0.00    +0.000 A 
ATOM      3  C   UNL     1      49.556   7.494  13.397  0.00  0.00    +0.000 A 
ATOM      4  C   UNL     1      48.303   8.099  13.238  0.00  0.00    +0.000 A 
ATOM      5  C   UNL     1      47.724   8.754  14.333  0.00  0.00    +0.000 A 
ATOM      6  C   UNL     1      48.402   8.840  15.551  0.00  0.00    +0.000 A 
ENDROOT
BRANCH   1   7
ATOM      7  C   UNL     1      50.433   8.412  17.000  0.00  0.00    +0.000 C 
BRANCH   7   8
ATOM      8  N   UNL     1      50.620   7.142  17.704  0.00  0.00    +0.000 NA
ATOM      9  H   UNL     1      50.753   6.399  17.017  0.00  0.00    +0.000 HD
BRANCH   8  10
ATOM     10  C   UNL     1      49.441   6.774  18.502  0.00  0.00    +0.000 C 
BRANCH  10  16
ATOM     11  C   UNL     1      47.102   4.364  14.967  0.00  0.00    +0.000 C 
ATOM     12  C   UNL     1      47.739   4.317  16.321  0.00  0.00    +0.000 A 
ATOM     13  C   UNL     1      47.766   3.138  17.059  0.00  0.00    +0.000 A 
ATOM     14  C   UNL     1      48.360   3.146  18.317  0.00  0.00    +0.000 A 
ATOM     15  C   UNL     1      48.906   4.328  18.802  0.00  0.00    +0.000 A 
ATOM     16  C   UNL     1      48.834   5.474  18.014  0.00  0.00    +0.000 A 
ATOM     17  N   UNL     1      48.269   5.477  16.779  0.00  0.00    +0.000 NA
ENDBRANCH  10  16
ENDBRANCH   8  10
ENDBRANCH   7   8
ENDBRANCH   1   7
BRANCH   4  18
ATOM     18  C   UNL     1      47.579   8.034  11.919  0.00  0.00    +0.000 C 
BRANCH  18  19
ATOM     19  N   UNL     1      46.893   6.781  11.754  0.00  0.00    +0.000 N 
ATOM     20  C   UNL     1      45.530   6.700  11.859  0.00  0.00    +0.000 C 
ATOM     21  O   UNL     1      44.831   7.693  12.046  0.00  0.00    +0.000 OA
ATOM     22  H   UNL     1      47.432   5.923  11.806  0.00  0.00    +0.000 HD
BRANCH  20  23
ATOM     23  C   UNL     1      44.943   5.370  11.663  0.00  0.00    +0.000 A 
ATOM     24  C   UNL     1      44.286   4.761  12.726  0.00  0.00    +0.000 A 
ATOM     25  S   UNL     1      43.603   3.255  12.328  0.00  0.00    +0.000 S 
ATOM     26  C   UNL     1      44.212   3.339  10.745  0.00  0.00    +0.000 A 
ATOM     27  N   UNL     1      43.982   2.321   9.890  0.00  0.00    +0.000 NA
ATOM     28  C   UNL     1      44.523   2.483   8.670  0.00  0.00    +0.000 A 
ATOM     29  C   UNL     1      45.263   3.574   8.266  0.00  0.00    +0.000 A 
ATOM     30  C   UNL     1      45.468   4.601   9.182  0.00  0.00    +0.000 A 
ATOM     31  C   UNL     1      44.923   4.512  10.490  0.00  0.00    +0.000 A 
BRANCH  30  32
ATOM     32  O   UNL     1      46.201   5.699   8.804  0.00  0.00    +0.000 OA
ATOM     33  H   UNL     1      46.813   5.940   9.524  0.00  0.00    +0.000 HD
ENDBRANCH  30  32
ENDBRANCH  20  23
ENDBRANCH  18  19
ENDBRANCH   4  18
TORSDOF 8
ENDMDL
MODEL 6
REMARK VINA RESULT:    -7.129      4.175      6.183
REMARK INTER + INTRA:         -11.425
REMARK INTER:                 -10.078
REMARK INTRA:                  -1.348
REMARK UNBOUND:                -1.171
REMARK  Name = 
REMARK  9 active torsions:
REMARK  status: ('A' for Active; 'I' for Inactive)
REMARK    1  A    between atoms: C_1  and  C_2
REMARK    2  A    between atoms: C_6  and  C_7
REMARK    3  A    between atoms: C_7  and  N_8
REMARK    4  A    between atoms: N_8  and  C_9
REMARK    5  A    between atoms: C_9  and  C_10
REMARK    6  A    between atoms: C_13  and  C_14
REMARK    7  A    between atoms: C_14  and  N_15
REMARK    8  A    between atoms: C_16  and  C_18
REMARK    9  A    between atoms: C_25  and  O_26
REMARK                            x       y       z     vdW  Elec       q    Type
REMARK                         _______ _______ _______ _____ _____    ______ ____
ROOT
ATOM      1  C   UNL     1      44.721   5.071  12.375  0.00  0.00    +0.000 A 
ATOM      2  C   UNL     1      45.548   4.360  13.257  0.00  0.00    +0.000 A 
ATOM      3  C   UNL     1      46.796   4.866  13.629  0.00  0.00    +0.000 A 
ATOM      4  C   UNL     1      47.240   6.097  13.130  0.00  0.00    +0.000 A 
ATOM      5  C   UNL     1      46.430   6.791  12.221  0.00  0.00    +0.000 A 
ATOM      6  C   UNL     1      45.182   6.285  11.850  0.00  0.00    +0.000 A 
ENDROOT
BRANCH   1   7
ATOM      7  C   UNL     1      43.344   4.553  12.023  0.00  0.00    +0.000 C 
BRANCH   7   8
ATOM      8  N   UNL     1      43.253   4.040  10.655  0.00  0.00    +0.000 NA
ATOM      9  H   UNL     1      42.274   3.846  10.440  0.00  0.00    +0.000 HD
BRANCH   8  10
ATOM     10  C   UNL     1      43.981   2.774  10.490  0.00  0.00    +0.000 C 
BRANCH  10  16
ATOM     11  C   UNL     1      46.991   0.452   7.436  0.00  0.00    +0.000 C 
ATOM     12  C   UNL     1      46.400   1.754   7.883  0.00  0.00    +0.000 A 
ATOM     13  C   UNL     1      46.757   2.950   7.270  0.00  0.00    +0.000 A 
ATOM     14  C   UNL     1      46.189   4.135   7.727  0.00  0.00    +0.000 A 
ATOM     15  C   UNL     1      45.285   4.092   8.781  0.00  0.00    +0.000 A 
ATOM     16  C   UNL     1      44.982   2.860   9.355  0.00  0.00    +0.000 A 
ATOM     17  N   UNL     1      45.518   1.694   8.910  0.00  0.00    +0.000 NA
ENDBRANCH  10  16
ENDBRANCH   8  10
ENDBRANCH   7   8
ENDBRANCH   1   7
BRANCH   4  18
ATOM     18  C   UNL     1      48.572   6.662  13.547  0.00  0.00    +0.000 C 
BRANCH  18  19
ATOM     19  N   UNL     1      49.057   7.628  12.598  0.00  0.00    +0.000 N 
ATOM     20  C   UNL     1      49.568   8.831  13.008  0.00  0.00    +0.000 C 
ATOM     21  O   UNL     1      49.683   9.118  14.197  0.00  0.00    +0.000 OA
ATOM     22  H   UNL     1      48.795   7.522  11.624  0.00  0.00    +0.000 HD
BRANCH  20  23
ATOM     23  C   UNL     1      50.039   9.730  11.949  0.00  0.00    +0.000 A 
ATOM     24  C   UNL     1      49.440  10.975  11.807  0.00  0.00    +0.000 A 
ATOM     25  S   UNL     1      50.136  11.928  10.582  0.00  0.00    +0.000 S 
ATOM     26  C   UNL     1      51.218  10.687  10.161  0.00  0.00    +0.000 A 
ATOM     27  N   UNL     1      52.086  10.880   9.147  0.00  0.00    +0.000 NA
ATOM     28  C   UNL     1      52.883   9.830   8.888  0.00  0.00    +0.000 A 
ATOM     29  C   UNL     1      52.863   8.628   9.565  0.00  0.00    +0.000 A 
ATOM     30  C   UNL     1      51.954   8.481  10.607  0.00  0.00    +0.000 A 
ATOM     31  C   UNL     1      51.081   9.546  10.951  0.00  0.00    +0.000 A 
BRANCH  30  32
ATOM     32  O   UNL     1      51.913   7.295  11.298  0.00  0.00    +0.000 OA
ATOM     33  H   UNL     1      52.644   6.723  10.999  0.00  0.00    +0.000 HD
ENDBRANCH  30  32
ENDBRANCH  20  23
ENDBRANCH  18  19
ENDBRANCH   4  18
TORSDOF 8
ENDMDL
MODEL 7
REMARK VINA RESULT:    -6.455      3.555      8.447
REMARK INTER + INTRA:         -10.456
REMARK INTER:                  -8.559
REMARK INTRA:                  -1.897
REMARK UNBOUND:                -1.171
REMARK  Name = 
REMARK  9 active torsions:
REMARK  status: ('A' for Active; 'I' for Inactive)
REMARK    1  A    between atoms: C_1  and  C_2
REMARK    2  A    between atoms: C_6  and  C_7
REMARK    3  A    between atoms: C_7  and  N_8
REMARK    4  A    between atoms: N_8  and  C_9
REMARK    5  A    between atoms: C_9  and  C_10
REMARK    6  A    between atoms: C_13  and  C_14
REMARK    7  A    between atoms: C_14  and  N_15
REMARK    8  A    between atoms: C_16  and  C_18
REMARK    9  A    between atoms: C_25  and  O_26
REMARK                            x       y       z     vdW  Elec       q    Type
REMARK                         _______ _______ _______ _____ _____    ______ ____
ROOT
ATOM      1  C   UNL     1      49.676   8.004  18.640  0.00  0.00    +0.000 A 
ATOM      2  C   UNL     1      48.510   8.775  18.528  0.00  0.00    +0.000 A 
ATOM      3  C   UNL     1      48.045   9.187  17.276  0.00  0.00    +0.000 A 
ATOM      4  C   UNL     1      48.735   8.832  16.111  0.00  0.00    +0.000 A 
ATOM      5  C   UNL     1      49.920   8.091  16.225  0.00  0.00    +0.000 A 
ATOM      6  C   UNL     1      50.383   7.678  17.476  0.00  0.00    +0.000 A 
ENDROOT
BRANCH   1   7
ATOM      7  C   UNL     1      50.142   7.504  19.990  0.00  0.00    +0.000 C 
BRANCH   7   8
ATOM      8  N   UNL     1      50.109   6.045  20.108  0.00  0.00    +0.000 NA
ATOM      9  H   UNL     1      50.603   5.639  19.312  0.00  0.00    +0.000 HD
BRANCH   8  10
ATOM     10  C   UNL     1      48.737   5.519  20.066  0.00  0.00    +0.000 C 
BRANCH  10  16
ATOM     11  C   UNL     1      50.377   1.994  17.123  0.00  0.00    +0.000 C 
ATOM     12  C   UNL     1      49.284   2.967  17.444  0.00  0.00    +0.000 A 
ATOM     13  C   UNL     1      48.145   3.051  16.650  0.00  0.00    +0.000 A 
ATOM     14  C   UNL     1      47.162   3.977  16.983  0.00  0.00    +0.000 A 
ATOM     15  C   UNL     1      47.345   4.793  18.093  0.00  0.00    +0.000 A 
ATOM     16  C   UNL     1      48.515   4.662  18.836  0.00  0.00    +0.000 A 
ATOM     17  N   UNL     1      49.477   3.753  18.531  0.00  0.00    +0.000 NA
ENDBRANCH  10  16
ENDBRANCH   8  10
ENDBRANCH   7   8
ENDBRANCH   1   7
BRANCH   4  18
ATOM     18  C   UNL     1      48.226   9.249  14.757  0.00  0.00    +0.000 C 
BRANCH  18  19
ATOM     19  N   UNL     1      47.282   8.299  14.231  0.00  0.00    +0.000 N 
ATOM     20  C   UNL     1      46.898   8.333  12.917  0.00  0.00    +0.000 C 
ATOM     21  O   UNL     1      47.378   9.136  12.119  0.00  0.00    +0.000 OA
ATOM     22  H   UNL     1      46.717   7.766  14.884  0.00  0.00    +0.000 HD
BRANCH  20  23
ATOM     23  C   UNL     1      45.937   7.309  12.496  0.00  0.00    +0.000 A 
ATOM     24  C   UNL     1      44.779   7.703  11.836  0.00  0.00    +0.000 A 
ATOM     25  S   UNL     1      43.796   6.402  11.353  0.00  0.00    +0.000 S 
ATOM     26  C   UNL     1      44.852   5.275  12.062  0.00  0.00    +0.000 A 
ATOM     27  N   UNL     1      44.554   3.960  12.007  0.00  0.00    +0.000 NA
ATOM     28  C   UNL     1      45.447   3.159  12.612  0.00  0.00    +0.000 A 
ATOM     29  C   UNL     1      46.591   3.585  13.255  0.00  0.00    +0.000 A 
ATOM     30  C   UNL     1      46.858   4.950  13.279  0.00  0.00    +0.000 A 
ATOM     31  C   UNL     1      45.969   5.864  12.655  0.00  0.00    +0.000 A 
BRANCH  30  32
ATOM     32  O   UNL     1      47.991   5.400  13.912  0.00  0.00    +0.000 OA
ATOM     33  H   UNL     1      48.722   5.445  13.269  0.00  0.00    +0.000 HD
ENDBRANCH  30  32
ENDBRANCH  20  23
ENDBRANCH  18  19
ENDBRANCH   4  18
TORSDOF 8
ENDMDL
MODEL 8
REMARK VINA RESULT:    -6.352      2.516      3.510
REMARK INTER + INTRA:         -10.307
REMARK INTER:                  -9.066
REMARK INTRA:                  -1.241
REMARK UNBOUND:                -1.171
REMARK  Name = 
REMARK  9 active torsions:
REMARK  status: ('A' for Active; 'I' for Inactive)
REMARK    1  A    between atoms: C_1  and  C_2
REMARK    2  A    between atoms: C_6  and  C_7
REMARK    3  A    between atoms: C_7  and  N_8
REMARK    4  A    between atoms: N_8  and  C_9
REMARK    5  A    between atoms: C_9  and  C_10
REMARK    6  A    between atoms: C_13  and  C_14
REMARK    7  A    between atoms: C_14  and  N_15
REMARK    8  A    between atoms: C_16  and  C_18
REMARK    9  A    between atoms: C_25  and  O_26
REMARK                            x       y       z     vdW  Elec       q    Type
REMARK                         _______ _______ _______ _____ _____    ______ ____
ROOT
ATOM      1  C   UNL     1      46.132   7.792  11.928  0.00  0.00    +0.000 A 
ATOM      2  C   UNL     1      46.743   9.019  12.221  0.00  0.00    +0.000 A 
ATOM      3  C   UNL     1      48.070   9.070  12.654  0.00  0.00    +0.000 A 
ATOM      4  C   UNL     1      48.815   7.892  12.798  0.00  0.00    +0.000 A 
ATOM      5  C   UNL     1      48.194   6.663  12.540  0.00  0.00    +0.000 A 
ATOM      6  C   UNL     1      46.868   6.613  12.106  0.00  0.00    +0.000 A 
ENDROOT
BRANCH   1   7
ATOM      7  C   UNL     1      44.716   7.743  11.398  0.00  0.00    +0.000 C 
BRANCH   7   8
ATOM      8  N   UNL     1      43.837   6.872  12.180  0.00  0.00    +0.000 NA
ATOM      9  H   UNL     1      44.401   6.141  12.618  0.00  0.00    +0.000 HD
BRANCH   8  10
ATOM     10  C   UNL     1      42.843   6.191  11.338  0.00  0.00    +0.000 C 
BRANCH  10  16
ATOM     11  C   UNL     1      45.067   3.468   7.960  0.00  0.00    +0.000 C 
ATOM     12  C   UNL     1      44.415   3.528   9.307  0.00  0.00    +0.000 A 
ATOM     13  C   UNL     1      44.290   2.388  10.094  0.00  0.00    +0.000 A 
ATOM     14  C   UNL     1      43.668   2.492  11.333  0.00  0.00    +0.000 A 
ATOM     15  C   UNL     1      43.186   3.727  11.749  0.00  0.00    +0.000 A 
ATOM     16  C   UNL     1      43.335   4.824  10.905  0.00  0.00    +0.000 A 
ATOM     17  N   UNL     1      43.953   4.740   9.699  0.00  0.00    +0.000 NA
ENDBRANCH  10  16
ENDBRANCH   8  10
ENDBRANCH   7   8
ENDBRANCH   1   7
BRANCH   4  18
ATOM     18  C   UNL     1      50.254   7.941  13.239  0.00  0.00    +0.000 C 
BRANCH  18  19
ATOM     19  N   UNL     1      50.453   7.228  14.473  0.00  0.00    +0.000 N 
ATOM     20  C   UNL     1      50.442   7.880  15.677  0.00  0.00    +0.000 C 
ATOM     21  O   UNL     1      50.212   9.084  15.765  0.00  0.00    +0.000 OA
ATOM     22  H   UNL     1      50.845   6.293  14.434  0.00  0.00    +0.000 HD
BRANCH  20  23
ATOM     23  C   UNL     1      50.648   7.046  16.867  0.00  0.00    +0.000 A 
ATOM     24  C   UNL     1      51.776   7.258  17.651  0.00  0.00    +0.000 A 
ATOM     25  S   UNL     1      51.843   6.262  19.028  0.00  0.00    +0.000 S 
ATOM     26  C   UNL     1      50.401   5.475  18.591  0.00  0.00    +0.000 A 
ATOM     27  N   UNL     1      49.924   4.483  19.371  0.00  0.00    +0.000 NA
ATOM     28  C   UNL     1      48.789   3.919  18.925  0.00  0.00    +0.000 A 
ATOM     29  C   UNL     1      48.121   4.277  17.773  0.00  0.00    +0.000 A 
ATOM     30  C   UNL     1      48.649   5.311  17.005  0.00  0.00    +0.000 A 
ATOM     31  C   UNL     1      49.842   5.966  17.411  0.00  0.00    +0.000 A 
BRANCH  30  32
ATOM     32  O   UNL     1      48.003   5.688  15.854  0.00  0.00    +0.000 OA
ATOM     33  H   UNL     1      48.290   5.112  15.121  0.00  0.00    +0.000 HD
ENDBRANCH  30  32
ENDBRANCH  20  23
ENDBRANCH  18  19
ENDBRANCH   4  18
TORSDOF 8
ENDMDL
MODEL 9
REMARK VINA RESULT:    -6.346      3.776      8.409
REMARK INTER + INTRA:         -10.299
REMARK INTER:                  -8.275
REMARK INTRA:                  -2.024
REMARK UNBOUND:                -1.171
REMARK  Name = 
REMARK  9 active torsions:
REMARK  status: ('A' for Active; 'I' for Inactive)
REMARK    1  A    between atoms: C_1  and  C_2
REMARK    2  A    between atoms: C_6  and  C_7
REMARK    3  A    between atoms: C_7  and  N_8
REMARK    4  A    between atoms: N_8  and  C_9
REMARK    5  A    between atoms: C_9  and  C_10
REMARK    6  A    between atoms: C_13  and  C_14
REMARK    7  A    between atoms: C_14  and  N_15
REMARK    8  A    between atoms: C_16  and  C_18
REMARK    9  A    between atoms: C_25  and  O_26
REMARK                            x       y       z     vdW  Elec       q    Type
REMARK                         _______ _______ _______ _____ _____    ______ ____
ROOT
ATOM      1  C   UNL     1      51.637   7.112  17.226  0.00  0.00    +0.000 A 
ATOM      2  C   UNL     1      50.732   7.793  18.052  0.00  0.00    +0.000 A 
ATOM      3  C   UNL     1      49.683   8.534  17.502  0.00  0.00    +0.000 A 
ATOM      4  C   UNL     1      49.514   8.604  16.113  0.00  0.00    +0.000 A 
ATOM      5  C   UNL     1      50.440   7.952  15.286  0.00  0.00    +0.000 A 
ATOM      6  C   UNL     1      51.488   7.211  15.836  0.00  0.00    +0.000 A 
ENDROOT
BRANCH   1   7
ATOM      7  C   UNL     1      52.734   6.259  17.823  0.00  0.00    +0.000 C 
BRANCH   7   8
ATOM      8  N   UNL     1      52.661   4.856  17.413  0.00  0.00    +0.000 NA
ATOM      9  H   UNL     1      52.128   4.793  16.545  0.00  0.00    +0.000 HD
BRANCH   8  10
ATOM     10  C   UNL     1      51.957   4.027  18.402  0.00  0.00    +0.000 C 
BRANCH  10  16
ATOM     11  C   UNL     1      47.185   4.921  17.957  0.00  0.00    +0.000 C 
ATOM     12  C   UNL     1      48.336   4.014  17.648  0.00  0.00    +0.000 A 
ATOM     13  C   UNL     1      48.149   2.844  16.917  0.00  0.00    +0.000 A 
ATOM     14  C   UNL     1      49.247   2.029  16.663  0.00  0.00    +0.000 A 
ATOM     15  C   UNL     1      50.495   2.401  17.147  0.00  0.00    +0.000 A 
ATOM     16  C   UNL     1      50.607   3.579  17.881  0.00  0.00    +0.000 A 
ATOM     17  N   UNL     1      49.546   4.392  18.124  0.00  0.00    +0.000 NA
ENDBRANCH  10  16
ENDBRANCH   8  10
ENDBRANCH   7   8
ENDBRANCH   1   7
BRANCH   4  18
ATOM     18  C   UNL     1      48.370   9.377  15.514  0.00  0.00    +0.000 C 
BRANCH  18  19
ATOM     19  N   UNL     1      47.444   8.510  14.835  0.00  0.00    +0.000 N 
ATOM     20  C   UNL     1      47.320   8.534  13.472  0.00  0.00    +0.000 C 
ATOM     21  O   UNL     1      48.025   9.252  12.766  0.00  0.00    +0.000 OA
ATOM     22  H   UNL     1      46.713   8.063  15.378  0.00  0.00    +0.000 HD
BRANCH  20  23
ATOM     23  C   UNL     1      46.350   7.598  12.893  0.00  0.00    +0.000 A 
ATOM     24  C   UNL     1      45.295   8.101  12.141  0.00  0.00    +0.000 A 
ATOM     25  S   UNL     1      44.294   6.895  11.482  0.00  0.00    +0.000 S 
ATOM     26  C   UNL     1      45.199   5.666  12.228  0.00  0.00    +0.000 A 
ATOM     27  N   UNL     1      44.830   4.378  12.065  0.00  0.00    +0.000 NA
ATOM     28  C   UNL     1      45.604   3.490  12.711  0.00  0.00    +0.000 A 
ATOM     29  C   UNL     1      46.696   3.805  13.493  0.00  0.00    +0.000 A 
ATOM     30  C   UNL     1      47.040   5.146  13.626  0.00  0.00    +0.000 A 
ATOM     31  C   UNL     1      46.279   6.148  12.968  0.00  0.00    +0.000 A 
BRANCH  30  32
ATOM     32  O   UNL     1      48.122   5.487  14.398  0.00  0.00    +0.000 OA
ATOM     33  H   UNL     1      47.812   5.935  15.207  0.00  0.00    +0.000 HD
ENDBRANCH  30  32
ENDBRANCH  20  23
ENDBRANCH  18  19
ENDBRANCH   4  18
TORSDOF 8
ENDMDL
