MODEL 1
REMARK VINA RESULT:    -8.324      0.000      0.000
REMARK INTER + INTRA:         -13.603
REMARK INTER:                 -12.704
REMARK INTRA:                  -0.899
REMARK UNBOUND:                -0.899
REMARK  Name = 
REMARK  10 active torsions:
REMARK  status: ('A' for Active; 'I' for Inactive)
REMARK    1  A    between atoms: C_2  and  C_22
REMARK    2  A    between atoms: N_3  and  C_4
REMARK    3  A    between atoms: C_4  and  C_5
REMARK    4  A    between atoms: C_8  and  C_9
REMARK    5  A    between atoms: C_9  and  N_10
REMARK    6  A    between atoms: N_10  and  CA_11
REMARK    7  A    between atoms: CA_11  and  C_12
REMARK    8  A    between atoms: CA_11  and  C_14
REMARK    9  A    between atoms: C_12  and  O_13
REMARK   10  A    between atoms: C_29  and  O_30
REMARK                            x       y       z     vdW  Elec       q    Type
REMARK                         _______ _______ _______ _____ _____    ______ ____
ROOT
ATOM      1  C   UNL     1      46.393   7.632  12.849  0.00  0.00    +0.000 A 
ATOM      2  C   UNL     1      45.279   8.235  12.245  0.00  0.00    +0.000 A 
ATOM      3  C   UNL     1      44.389   7.481  11.469  0.00  0.00    +0.000 A 
ATOM      4  C   UNL     1      44.599   6.111  11.280  0.00  0.00    +0.000 A 
ATOM      5  C   UNL     1      45.688   5.504  11.934  0.00  0.00    +0.000 A 
ATOM      6  C   UNL     1      46.573   6.254  12.708  0.00  0.00    +0.000 A 
ENDROOT
BRANCH   1   7
ATOM      7  C   UNL     1      47.359   8.435  13.677  0.00  0.00    +0.000 C 
BRANCH   7  10
ATOM      8  O   UNL     1      49.899   7.290  13.837  0.00  0.00    +0.000 OA
ATOM      9  C   UNL     1      49.144   7.187  14.799  0.00  0.00    +0.000 C 
ATOM     10  N   UNL     1      47.858   7.664  14.784  0.00  0.00    +0.000 N 
ATOM     11  H   UNL     1      47.319   7.668  15.642  0.00  0.00    +0.000 HD
BRANCH   9  12
ATOM     12  C   UNL     1      49.553   6.520  16.033  0.00  0.00    +0.000 A 
ATOM     13  C   UNL     1      50.675   6.894  16.766  0.00  0.00    +0.000 A 
ATOM     14  N   UNL     1      50.777   6.081  17.862  0.00  0.00    +0.000 N 
ATOM     15  C   UNL     1      49.733   5.202  17.875  0.00  0.00    +0.000 A 
ATOM     16  N   UNL     1      49.520   4.281  18.827  0.00  0.00    +0.000 NA
ATOM     17  C   UNL     1      48.409   3.562  18.586  0.00  0.00    +0.000 A 
ATOM     18  N   UNL     1      47.561   3.669  17.548  0.00  0.00    +0.000 NA
ATOM     19  C   UNL     1      47.839   4.607  16.640  0.00  0.00    +0.000 A 
ATOM     20  C   UNL     1      48.954   5.437  16.752  0.00  0.00    +0.000 A 
ATOM     21  H   UNL     1      51.496   6.116  18.571  0.00  0.00    +0.000 HD
BRANCH  19  22
ATOM     22  O   UNL     1      46.960   4.677  15.600  0.00  0.00    +0.000 OA
ATOM     23  H   UNL     1      47.578   4.825  14.860  0.00  0.00    +0.000 HD
ENDBRANCH  19  22
ENDBRANCH   9  12
ENDBRANCH   7  10
ENDBRANCH   1   7
BRANCH   4  24
ATOM     24  C   UNL     1      43.667   5.229  10.484  0.00  0.00    +0.000 C 
BRANCH  24  25
ATOM     25  N   UNL     1      44.241   4.662   9.259  0.00  0.00    +0.000 NA
ATOM     26  H   UNL     1      45.161   5.072   9.116  0.00  0.00    +0.000 HD
BRANCH  25  27
ATOM     27  CA  UNL     1      44.362   3.180   9.331  0.00  0.00    +0.000 C 
BRANCH  27  28
ATOM     28  C   UNL     1      45.507   2.698   8.423  0.00  0.00    +0.000 A 
ATOM     29  C   UNL     1      45.919   1.355   8.347  0.00  0.00    +0.000 A 
ATOM     30  C   UNL     1      46.959   0.957   7.503  0.00  0.00    +0.000 A 
ATOM     31  C   UNL     1      47.607   1.894   6.705  0.00  0.00    +0.000 A 
ATOM     32  C   UNL     1      47.206   3.228   6.743  0.00  0.00    +0.000 A 
ATOM     33  C   UNL     1      46.161   3.622   7.587  0.00  0.00    +0.000 A 
ENDBRANCH  27  28
BRANCH  27  34
ATOM     34  C   UNL     1      44.466   2.645  10.794  0.00  0.00    +0.000 C 
BRANCH  34  35
ATOM     35  O   UNL     1      43.259   2.020  11.239  0.00  0.00    +0.000 OA
ATOM     36  H   UNL     1      42.700   1.856  10.458  0.00  0.00    +0.000 HD
ENDBRANCH  34  35
ENDBRANCH  27  34
ENDBRANCH  25  27
ENDBRANCH  24  25
ENDBRANCH   4  24
TORSDOF 10
ENDMDL
MODEL 2
REMARK VINA RESULT:    -8.236      2.060      2.637
REMARK INTER + INTRA:         -13.467
REMARK INTER:                 -12.777
REMARK INTRA:                  -0.690
REMARK UNBOUND:                -0.899
REMARK  Name = 
REMARK  10 active torsions:
REMARK  status: ('A' for Active; 'I' for Inactive)
REMARK    1  A    between atoms: C_2  and  C_22
REMARK    2  A    between atoms: N_3  and  C_4
REMARK    3  A    between atoms: C_4  and  C_5
REMARK    4  A    between atoms: C_8  and  C_9
REMARK    5  A    between atoms: C_9  and  N_10
REMARK    6  A    between atoms: N_10  and  CA_11
REMARK    7  A    between atoms: CA_11  and  C_12
REMARK    8  A    between atoms: CA_11  and  C_14
REMARK    9  A    between atoms: C_12  and  O_13
REMARK   10  A    between atoms: C_29  and  O_30
REMARK                            x       y       z     vdW  Elec       q    Type
REMARK                         _______ _______ _______ _____ _____    ______ ____
ROOT
ATOM      1  C   UNL     1      47.726   6.469  13.625  0.00  0.00    +0.000 A 
ATOM      2  C   UNL     1      46.959   5.334  13.927  0.00  0.00    +0.000 A 
ATOM      3  C   UNL     1      45.869   4.972  13.125  0.00  0.00    +0.000 A 
ATOM      4  C   UNL     1      45.525   5.742  12.007  0.00  0.00    +0.000 A 
ATOM      5  C   UNL     1      46.333   6.847  11.682  0.00  0.00    +0.000 A 
ATOM      6  C   UNL     1      47.419   7.207  12.479  0.00  0.00    +0.000 A 
ENDROOT
BRANCH   1   7
ATOM      7  C   UNL     1      48.893   6.871  14.487  0.00  0.00    +0.000 C 
BRANCH   7  10
ATOM      8  O   UNL     1      49.523   5.266  16.680  0.00  0.00    +0.000 OA
ATOM      9  C   UNL     1      48.884   6.297  16.867  0.00  0.00    +0.000 C 
ATOM     10  N   UNL     1      48.477   7.111  15.843  0.00  0.00    +0.000 N 
ATOM     11  H   UNL     1      48.065   8.012  16.056  0.00  0.00    +0.000 HD
BRANCH   9  12
ATOM     12  C   UNL     1      48.482   6.723  18.206  0.00  0.00    +0.000 A 
ATOM     13  C   UNL     1      48.028   8.005  18.494  0.00  0.00    +0.000 A 
ATOM     14  N   UNL     1      47.731   8.079  19.828  0.00  0.00    +0.000 N 
ATOM     15  C   UNL     1      47.956   6.866  20.413  0.00  0.00    +0.000 A 
ATOM     16  N   UNL     1      47.742   6.589  21.708  0.00  0.00    +0.000 NA
ATOM     17  C   UNL     1      48.041   5.310  22.000  0.00  0.00    +0.000 A 
ATOM     18  N   UNL     1      48.509   4.358  21.174  0.00  0.00    +0.000 NA
ATOM     19  C   UNL     1      48.699   4.710  19.900  0.00  0.00    +0.000 A 
ATOM     20  C   UNL     1      48.431   5.998  19.441  0.00  0.00    +0.000 A 
ATOM     21  H   UNL     1      47.385   8.889  20.323  0.00  0.00    +0.000 HD
BRANCH  19  22
ATOM     22  O   UNL     1      49.184   3.719  19.098  0.00  0.00    +0.000 OA
ATOM     23  H   UNL     1      49.027   2.942  19.668  0.00  0.00    +0.000 HD
ENDBRANCH  19  22
ENDBRANCH   9  12
ENDBRANCH   7  10
ENDBRANCH   1   7
BRANCH   4  24
ATOM     24  C   UNL     1      44.384   5.396  11.079  0.00  0.00    +0.000 C 
BRANCH  24  25
ATOM     25  N   UNL     1      44.782   5.002   9.723  0.00  0.00    +0.000 NA
ATOM     26  H   UNL     1      45.792   5.103   9.643  0.00  0.00    +0.000 HD
BRANCH  25  27
ATOM     27  CA  UNL     1      44.397   3.598   9.412  0.00  0.00    +0.000 C 
BRANCH  27  28
ATOM     28  C   UNL     1      45.423   2.968   8.454  0.00  0.00    +0.000 A 
ATOM     29  C   UNL     1      46.113   3.702   7.473  0.00  0.00    +0.000 A 
ATOM     30  C   UNL     1      47.045   3.094   6.627  0.00  0.00    +0.000 A 
ATOM     31  C   UNL     1      47.314   1.734   6.750  0.00  0.00    +0.000 A 
ATOM     32  C   UNL     1      46.661   0.987   7.727  0.00  0.00    +0.000 A 
ATOM     33  C   UNL     1      45.732   1.601   8.575  0.00  0.00    +0.000 A 
ENDBRANCH  27  28
BRANCH  27  34
ATOM     34  C   UNL     1      44.133   2.740  10.689  0.00  0.00    +0.000 C 
BRANCH  34  35
ATOM     35  O   UNL     1      42.826   2.948  11.234  0.00  0.00    +0.000 OA
ATOM     36  H   UNL     1      42.280   3.372  10.548  0.00  0.00    +0.000 HD
ENDBRANCH  34  35
ENDBRANCH  27  34
ENDBRANCH  25  27
ENDBRANCH  24  25
ENDBRANCH   4  24
TORSDOF 10
ENDMDL
MODEL 3
REMARK VINA RESULT:    -8.068      2.093      2.837
REMARK INTER + INTRA:         -13.211
REMARK INTER:                 -12.265
REMARK INTRA:                  -0.947
REMARK UNBOUND:                -0.899
REMARK  Name = 
REMARK  10 active torsions:
REMARK  status: ('A' for Active; 'I' for Inactive)
REMARK    1  A    between atoms: C_2  and  C_22
REMARK    2  A    between atoms: N_3  and  C_4
REMARK    3  A    between atoms: C_4  and  C_5
REMARK    4  A    between atoms: C_8  and  C_9
REMARK    5  A    between atoms: C_9  and  N_10
REMARK    6  A    between atoms: N_10  and  CA_11
REMARK    7  A    between atoms: CA_11  and  C_12
REMARK    8  A    between atoms: CA_11  and  C_14
REMARK    9  A    between atoms: C_12  and  O_13
REMARK   10  A    between atoms: C_29  and  O_30
REMARK                            x       y       z     vdW  Elec       q    Type
REMARK                         _______ _______ _______ _____ _____    ______ ____
ROOT
ATOM      1  C   UNL     1      47.775   6.657  14.216  0.00  0.00    +0.000 A 
ATOM      2  C   UNL     1      47.130   5.413  14.150  0.00  0.00    +0.000 A 
ATOM      3  C   UNL     1      46.135   5.172  13.193  0.00  0.00    +0.000 A 
ATOM      4  C   UNL     1      45.765   6.172  12.288  0.00  0.00    +0.000 A 
ATOM      5  C   UNL     1      46.454   7.398  12.327  0.00  0.00    +0.000 A 
ATOM      6  C   UNL     1      47.446   7.638  13.278  0.00  0.00    +0.000 A 
ENDROOT
BRANCH   1   7
ATOM      7  C   UNL     1      48.838   6.928  15.246  0.00  0.00    +0.000 C 
BRANCH   7  10
ATOM      8  O   UNL     1      50.500   5.160  16.623  0.00  0.00    +0.000 OA
ATOM      9  C   UNL     1      49.428   5.478  17.129  0.00  0.00    +0.000 C 
ATOM     10  N   UNL     1      48.523   6.290  16.496  0.00  0.00    +0.000 N 
ATOM     11  H   UNL     1      47.713   6.626  17.004  0.00  0.00    +0.000 HD
BRANCH   9  12
ATOM     12  C   UNL     1      49.021   4.989  18.445  0.00  0.00    +0.000 A 
ATOM     13  C   UNL     1      48.960   3.639  18.771  0.00  0.00    +0.000 A 
ATOM     14  N   UNL     1      48.552   3.516  20.072  0.00  0.00    +0.000 N 
ATOM     15  C   UNL     1      48.371   4.758  20.610  0.00  0.00    +0.000 A 
ATOM     16  N   UNL     1      47.995   4.995  21.876  0.00  0.00    +0.000 NA
ATOM     17  C   UNL     1      47.907   6.313  22.131  0.00  0.00    +0.000 A 
ATOM     18  N   UNL     1      48.137   7.337  21.291  0.00  0.00    +0.000 NA
ATOM     19  C   UNL     1      48.505   7.022  20.047  0.00  0.00    +0.000 A 
ATOM     20  C   UNL     1      48.644   5.699  19.630  0.00  0.00    +0.000 A 
ATOM     21  H   UNL     1      48.412   2.654  20.579  0.00  0.00    +0.000 HD
BRANCH  19  22
ATOM     22  O   UNL     1      48.718   8.089  19.225  0.00  0.00    +0.000 OA
ATOM     23  H   UNL     1      48.316   8.801  19.757  0.00  0.00    +0.000 HD
ENDBRANCH  19  22
ENDBRANCH   9  12
ENDBRANCH   7  10
ENDBRANCH   1   7
BRANCH   4  24
ATOM     24  C   UNL     1      44.725   5.976  11.210  0.00  0.00    +0.000 C 
BRANCH  24  25
ATOM     25  N   UNL     1      45.216   5.355   9.976  0.00  0.00    +0.000 NA
ATOM     26  H   UNL     1      46.225   5.242  10.053  0.00  0.00    +0.000 HD
BRANCH  25  27
ATOM     27  CA  UNL     1      44.586   4.029   9.726  0.00  0.00    +0.000 C 
BRANCH  27  28
ATOM     28  C   UNL     1      45.449   3.209   8.750  0.00  0.00    +0.000 A 
ATOM     29  C   UNL     1      45.569   1.809   8.817  0.00  0.00    +0.000 A 
ATOM     30  C   UNL     1      46.356   1.100   7.906  0.00  0.00    +0.000 A 
ATOM     31  C   UNL     1      47.037   1.777   6.899  0.00  0.00    +0.000 A 
ATOM     32  C   UNL     1      46.918   3.160   6.795  0.00  0.00    +0.000 A 
ATOM     33  C   UNL     1      46.125   3.867   7.707  0.00  0.00    +0.000 A 
ENDBRANCH  27  28
BRANCH  27  34
ATOM     34  C   UNL     1      44.237   3.261  11.040  0.00  0.00    +0.000 C 
BRANCH  34  35
ATOM     35  O   UNL     1      42.829   3.071  11.210  0.00  0.00    +0.000 OA
ATOM     36  H   UNL     1      42.371   3.790  10.739  0.00  0.00    +0.000 HD
ENDBRANCH  34  35
ENDBRANCH  27  34
ENDBRANCH  25  27
ENDBRANCH  24  25
ENDBRANCH   4  24
TORSDOF 10
ENDMDL
MODEL 4
REMARK VINA RESULT:    -7.997      1.220      1.534
REMARK INTER + INTRA:         -13.103
REMARK INTER:                 -11.648
REMARK INTRA:                  -1.455
REMARK UNBOUND:                -0.899
REMARK  Name = 
REMARK  10 active torsions:
REMARK  status: ('A' for Active; 'I' for Inactive)
REMARK    1  A    between atoms: C_2  and  C_22
REMARK    2  A    between atoms: N_3  and  C_4
REMARK    3  A    between atoms: C_4  and  C_5
REMARK    4  A    between atoms: C_8  and  C_9
REMARK    5  A    between atoms: C_9  and  N_10
REMARK    6  A    between atoms: N_10  and  CA_11
REMARK    7  A    between atoms: CA_11  and  C_12
REMARK    8  A    between atoms: CA_11  and  C_14
REMARK    9  A    between atoms: C_12  and  O_13
REMARK   10  A    between atoms: C_29  and  O_30
REMARK                            x       y       z     vdW  Elec       q    Type
REMARK                         _______ _______ _______ _____ _____    ______ ____
ROOT
ATOM      1  C   UNL     1      47.054   8.209  12.222  0.00  0.00    +0.000 A 
ATOM      2  C   UNL     1      45.782   8.767  12.025  0.00  0.00    +0.000 A 
ATOM      3  C   UNL     1      44.695   7.961  11.665  0.00  0.00    +0.000 A 
ATOM      4  C   UNL     1      44.861   6.583  11.491  0.00  0.00    +0.000 A 
ATOM      5  C   UNL     1      46.127   6.025  11.744  0.00  0.00    +0.000 A 
ATOM      6  C   UNL     1      47.211   6.826  12.104  0.00  0.00    +0.000 A 
ENDROOT
BRANCH   1   7
ATOM      7  C   UNL     1      48.231   9.068  12.600  0.00  0.00    +0.000 C 
BRANCH   7  10
ATOM      8  O   UNL     1      50.767   7.907  12.597  0.00  0.00    +0.000 OA
ATOM      9  C   UNL     1      50.180   8.038  13.667  0.00  0.00    +0.000 C 
ATOM     10  N   UNL     1      48.908   8.540  13.754  0.00  0.00    +0.000 N 
ATOM     11  H   UNL     1      48.516   8.747  14.666  0.00  0.00    +0.000 HD
BRANCH   9  12
ATOM     12  C   UNL     1      50.789   7.642  14.935  0.00  0.00    +0.000 A 
ATOM     13  C   UNL     1      52.070   8.026  15.318  0.00  0.00    +0.000 A 
ATOM     14  N   UNL     1      52.338   7.498  16.552  0.00  0.00    +0.000 N 
ATOM     15  C   UNL     1      51.252   6.800  16.994  0.00  0.00    +0.000 A 
ATOM     16  N   UNL     1      51.173   6.176  18.180  0.00  0.00    +0.000 NA
ATOM     17  C   UNL     1      49.980   5.579  18.351  0.00  0.00    +0.000 A 
ATOM     18  N   UNL     1      48.939   5.546  17.499  0.00  0.00    +0.000 NA
ATOM     19  C   UNL     1      49.093   6.187  16.338  0.00  0.00    +0.000 A 
ATOM     20  C   UNL     1      50.271   6.858  16.015  0.00  0.00    +0.000 A 
ATOM     21  H   UNL     1      53.194   7.606  17.079  0.00  0.00    +0.000 HD
BRANCH  19  22
ATOM     22  O   UNL     1      48.019   6.121  15.501  0.00  0.00    +0.000 OA
ATOM     23  H   UNL     1      48.107   6.975  15.038  0.00  0.00    +0.000 HD
ENDBRANCH  19  22
ENDBRANCH   9  12
ENDBRANCH   7  10
ENDBRANCH   1   7
BRANCH   4  24
ATOM     24  C   UNL     1      43.730   5.647  11.135  0.00  0.00    +0.000 C 
BRANCH  24  25
ATOM     25  N   UNL     1      43.805   5.063   9.791  0.00  0.00    +0.000 NA
ATOM     26  H   UNL     1      44.619   5.450   9.319  0.00  0.00    +0.000 HD
BRANCH  25  27
ATOM     27  CA  UNL     1      43.912   3.578   9.831  0.00  0.00    +0.000 C 
BRANCH  27  28
ATOM     28  C   UNL     1      45.041   3.104   8.900  0.00  0.00    +0.000 A 
ATOM     29  C   UNL     1      45.458   1.763   8.813  0.00  0.00    +0.000 A 
ATOM     30  C   UNL     1      46.483   1.372   7.949  0.00  0.00    +0.000 A 
ATOM     31  C   UNL     1      47.112   2.314   7.141  0.00  0.00    +0.000 A 
ATOM     32  C   UNL     1      46.705   3.646   7.190  0.00  0.00    +0.000 A 
ATOM     33  C   UNL     1      45.675   4.033   8.055  0.00  0.00    +0.000 A 
ENDBRANCH  27  28
BRANCH  27  34
ATOM     34  C   UNL     1      44.026   3.013  11.282  0.00  0.00    +0.000 C 
BRANCH  34  35
ATOM     35  O   UNL     1      42.948   2.135  11.618  0.00  0.00    +0.000 OA
ATOM     36  H   UNL     1      43.329   1.276  11.872  0.00  0.00    +0.000 HD
ENDBRANCH  34  35
ENDBRANCH  27  34
ENDBRANCH  25  27
ENDBRANCH  24  25
ENDBRANCH   4  24
TORSDOF 10
ENDMDL
MODEL 5
REMARK VINA RESULT:    -7.646      4.095      5.730
REMARK INTER + INTRA:         -12.567
REMARK INTER:                 -11.213
REMARK INTRA:                  -1.353
REMARK UNBOUND:                -0.899
REMARK  Name = 
REMARK  10 active torsions:
REMARK  status: ('A' for Active; 'I' for Inactive)
REMARK    1  A    between atoms: C_2  and  C_22
REMARK    2  A    between atoms: N_3  and  C_4
REMARK    3  A    between atoms: C_4  and  C_5
REMARK    4  A    between atoms: C_8  and  C_9
REMARK    5  A    between atoms: C_9  and  N_10
REMARK    6  A    between atoms: N_10  and  CA_11
REMARK    7  A    between atoms: CA_11  and  C_12
REMARK    8  A    between atoms: CA_11  and  C_14
REMARK    9  A    between atoms: C_12  and  O_13
REMARK   10  A    between atoms: C_29  and  O_30
REMARK                            x       y       z     vdW  Elec       q    Type
REMARK                         _______ _______ _______ _____ _____    ______ ____
ROOT
ATOM      1  C   UNL     1      48.040   6.730  12.792  0.00  0.00    +0.000 A 
ATOM      2  C   UNL     1      47.391   5.724  13.524  0.00  0.00    +0.000 A 
ATOM      3  C   UNL     1      46.105   5.296  13.168  0.00  0.00    +0.000 A 
ATOM      4  C   UNL     1      45.445   5.868  12.075  0.00  0.00    +0.000 A 
ATOM      5  C   UNL     1      46.125   6.838  11.315  0.00  0.00    +0.000 A 
ATOM      6  C   UNL     1      47.406   7.263  11.668  0.00  0.00    +0.000 A 
ENDROOT
BRANCH   1   7
ATOM      7  C   UNL     1      49.417   7.202  13.173  0.00  0.00    +0.000 C 
BRANCH   7  10
ATOM      8  O   UNL     1      50.527   9.762  13.188  0.00  0.00    +0.000 OA
ATOM      9  C   UNL     1      50.641   9.075  12.177  0.00  0.00    +0.000 C 
ATOM     10  N   UNL     1      50.074   7.833  12.060  0.00  0.00    +0.000 N 
ATOM     11  H   UNL     1      50.302   7.255  11.259  0.00  0.00    +0.000 HD
BRANCH   9  12
ATOM     12  C   UNL     1      51.374   9.546  11.004  0.00  0.00    +0.000 A 
ATOM     13  C   UNL     1      51.375  10.873  10.588  0.00  0.00    +0.000 A 
ATOM     14  N   UNL     1      52.157  10.984   9.469  0.00  0.00    +0.000 N 
ATOM     15  C   UNL     1      52.687   9.764   9.161  0.00  0.00    +0.000 A 
ATOM     16  N   UNL     1      53.518   9.528   8.135  0.00  0.00    +0.000 NA
ATOM     17  C   UNL     1      53.889   8.236   8.081  0.00  0.00    +0.000 A 
ATOM     18  N   UNL     1      53.521   7.233   8.897  0.00  0.00    +0.000 NA
ATOM     19  C   UNL     1      52.689   7.545   9.895  0.00  0.00    +0.000 A 
ATOM     20  C   UNL     1      52.219   8.843  10.086  0.00  0.00    +0.000 A 
ATOM     21  H   UNL     1      52.339  11.828   8.944  0.00  0.00    +0.000 HD
BRANCH  19  22
ATOM     22  O   UNL     1      52.334   6.498  10.692  0.00  0.00    +0.000 OA
ATOM     23  H   UNL     1      53.197   6.053  10.790  0.00  0.00    +0.000 HD
ENDBRANCH  19  22
ENDBRANCH   9  12
ENDBRANCH   7  10
ENDBRANCH   1   7
BRANCH   4  24
ATOM     24  C   UNL     1      44.073   5.437  11.613  0.00  0.00    +0.000 C 
BRANCH  24  25
ATOM     25  N   UNL     1      43.981   5.063  10.198  0.00  0.00    +0.000 NA
ATOM     26  H   UNL     1      44.780   5.460   9.709  0.00  0.00    +0.000 HD
BRANCH  25  27
ATOM     27  CA  UNL     1      43.966   3.586  10.008  0.00  0.00    +0.000 C 
BRANCH  27  28
ATOM     28  C   UNL     1      45.061   3.170   9.010  0.00  0.00    +0.000 A 
ATOM     29  C   UNL     1      45.479   1.838   8.835  0.00  0.00    +0.000 A 
ATOM     30  C   UNL     1      46.471   1.500   7.911  0.00  0.00    +0.000 A 
ATOM     31  C   UNL     1      47.065   2.489   7.133  0.00  0.00    +0.000 A 
ATOM     32  C   UNL     1      46.655   3.813   7.270  0.00  0.00    +0.000 A 
ATOM     33  C   UNL     1      45.658   4.147   8.193  0.00  0.00    +0.000 A 
ENDBRANCH  27  28
BRANCH  27  34
ATOM     34  C   UNL     1      44.023   2.797  11.354  0.00  0.00    +0.000 C 
BRANCH  34  35
ATOM     35  O   UNL     1      42.828   2.052  11.608  0.00  0.00    +0.000 OA
ATOM     36  H   UNL     1      43.072   1.113  11.691  0.00  0.00    +0.000 HD
ENDBRANCH  34  35
ENDBRANCH  27  34
ENDBRANCH  25  27
ENDBRANCH  24  25
ENDBRANCH   4  24
TORSDOF 10
ENDMDL
MODEL 6
REMARK VINA RESULT:    -7.603      3.006      8.114
REMARK INTER + INTRA:         -12.501
REMARK INTER:                 -10.523
REMARK INTRA:                  -1.979
REMARK UNBOUND:                -0.899
REMARK  Name = 
REMARK  10 active torsions:
REMARK  status: ('A' for Active; 'I' for Inactive)
REMARK    1  A    between atoms: C_2  and  C_22
REMARK    2  A    between atoms: N_3  and  C_4
REMARK    3  A    between atoms: C_4  and  C_5
REMARK    4  A    between atoms: C_8  and  C_9
REMARK    5  A    between atoms: C_9  and  N_10
REMARK    6  A    between atoms: N_10  and  CA_11
REMARK    7  A    between atoms: CA_11  and  C_12
REMARK    8  A    between atoms: CA_11  and  C_14
REMARK    9  A    between atoms: C_12  and  O_13
REMARK   10  A    between atoms: C_29  and  O_30
REMARK                            x       y       z     vdW  Elec       q    Type
REMARK                         _______ _______ _______ _____ _____    ______ ____
ROOT
ATOM      1  C   UNL     1      49.345   7.853  14.694  0.00  0.00    +0.000 A 
ATOM      2  C   UNL     1      48.435   8.659  15.394  0.00  0.00    +0.000 A 
ATOM      3  C   UNL     1      48.385   8.632  16.794  0.00  0.00    +0.000 A 
ATOM      4  C   UNL     1      49.242   7.795  17.518  0.00  0.00    +0.000 A 
ATOM      5  C   UNL     1      50.187   7.031  16.809  0.00  0.00    +0.000 A 
ATOM      6  C   UNL     1      50.239   7.058  15.416  0.00  0.00    +0.000 A 
ENDROOT
BRANCH   1   7
ATOM      7  C   UNL     1      49.400   7.868  13.190  0.00  0.00    +0.000 C 
BRANCH   7  10
ATOM      8  O   UNL     1      48.147   5.378  13.292  0.00  0.00    +0.000 OA
ATOM      9  C   UNL     1      47.552   6.317  12.771  0.00  0.00    +0.000 C 
ATOM     10  N   UNL     1      48.116   7.557  12.621  0.00  0.00    +0.000 N 
ATOM     11  H   UNL     1      47.543   8.329  12.303  0.00  0.00    +0.000 HD
BRANCH   9  12
ATOM     12  C   UNL     1      46.197   6.174  12.243  0.00  0.00    +0.000 A 
ATOM     13  C   UNL     1      45.513   7.205  11.609  0.00  0.00    +0.000 A 
ATOM     14  N   UNL     1      44.279   6.750  11.230  0.00  0.00    +0.000 N 
ATOM     15  C   UNL     1      44.153   5.436  11.579  0.00  0.00    +0.000 A 
ATOM     16  N   UNL     1      43.073   4.679  11.332  0.00  0.00    +0.000 NA
ATOM     17  C   UNL     1      43.233   3.421  11.779  0.00  0.00    +0.000 A 
ATOM     18  N   UNL     1      44.296   2.895  12.414  0.00  0.00    +0.000 NA
ATOM     19  C   UNL     1      45.331   3.710  12.627  0.00  0.00    +0.000 A 
ATOM     20  C   UNL     1      45.319   5.043  12.218  0.00  0.00    +0.000 A 
ATOM     21  H   UNL     1      43.563   7.279  10.753  0.00  0.00    +0.000 HD
BRANCH  19  22
ATOM     22  O   UNL     1      46.383   3.141  13.281  0.00  0.00    +0.000 OA
ATOM     23  H   UNL     1      45.910   2.507  13.853  0.00  0.00    +0.000 HD
ENDBRANCH  19  22
ENDBRANCH   9  12
ENDBRANCH   7  10
ENDBRANCH   1   7
BRANCH   4  24
ATOM     24  C   UNL     1      49.267   7.735  19.027  0.00  0.00    +0.000 C 
BRANCH  24  25
ATOM     25  N   UNL     1      49.724   6.461  19.593  0.00  0.00    +0.000 NA
ATOM     26  H   UNL     1      50.205   6.654  20.469  0.00  0.00    +0.000 HD
BRANCH  25  27
ATOM     27  CA  UNL     1      48.596   5.521  19.841  0.00  0.00    +0.000 C 
BRANCH  27  28
ATOM     28  C   UNL     1      48.378   4.622  18.611  0.00  0.00    +0.000 A 
ATOM     29  C   UNL     1      47.280   4.757  17.742  0.00  0.00    +0.000 A 
ATOM     30  C   UNL     1      47.122   3.925  16.631  0.00  0.00    +0.000 A 
ATOM     31  C   UNL     1      48.067   2.941  16.357  0.00  0.00    +0.000 A 
ATOM     32  C   UNL     1      49.176   2.799  17.187  0.00  0.00    +0.000 A 
ATOM     33  C   UNL     1      49.333   3.637  18.297  0.00  0.00    +0.000 A 
ENDBRANCH  27  28
BRANCH  27  34
ATOM     34  C   UNL     1      48.749   4.722  21.173  0.00  0.00    +0.000 C 
BRANCH  34  35
ATOM     35  O   UNL     1      47.555   4.732  21.962  0.00  0.00    +0.000 OA
ATOM     36  H   UNL     1      47.671   5.388  22.672  0.00  0.00    +0.000 HD
ENDBRANCH  34  35
ENDBRANCH  27  34
ENDBRANCH  25  27
ENDBRANCH  24  25
ENDBRANCH   4  24
TORSDOF 10
ENDMDL
MODEL 7
REMARK VINA RESULT:    -7.323      2.419      8.251
REMARK INTER + INTRA:         -12.075
REMARK INTER:                 -10.272
REMARK INTRA:                  -1.803
REMARK UNBOUND:                -0.899
REMARK  Name = 
REMARK  10 active torsions:
REMARK  status: ('A' for Active; 'I' for Inactive)
REMARK    1  A    between atoms: C_2  and  C_22
REMARK    2  A    between atoms: N_3  and  C_4
REMARK    3  A    between atoms: C_4  and  C_5
REMARK    4  A    between atoms: C_8  and  C_9
REMARK    5  A    between atoms: C_9  and  N_10
REMARK    6  A    between atoms: N_10  and  CA_11
REMARK    7  A    between atoms: CA_11  and  C_12
REMARK    8  A    between atoms: CA_11  and  C_14
REMARK    9  A    between atoms: C_12  and  O_13
REMARK   10  A    between atoms: C_29  and  O_30
REMARK                            x       y       z     vdW  Elec       q    Type
REMARK                         _______ _______ _______ _____ _____    ______ ____
ROOT
ATOM      1  C   UNL     1      48.338   7.875  13.774  0.00  0.00    +0.000 A 
ATOM      2  C   UNL     1      47.793   8.784  14.694  0.00  0.00    +0.000 A 
ATOM      3  C   UNL     1      48.306   8.880  15.994  0.00  0.00    +0.000 A 
ATOM      4  C   UNL     1      49.370   8.066  16.399  0.00  0.00    +0.000 A 
ATOM      5  C   UNL     1      49.944   7.197  15.453  0.00  0.00    +0.000 A 
ATOM      6  C   UNL     1      49.436   7.102  14.158  0.00  0.00    +0.000 A 
ENDROOT
BRANCH   1   7
ATOM      7  C   UNL     1      47.789   7.759  12.377  0.00  0.00    +0.000 C 
BRANCH   7  10
ATOM      8  O   UNL     1      45.106   7.222  12.924  0.00  0.00    +0.000 OA
ATOM      9  C   UNL     1      45.795   6.337  12.425  0.00  0.00    +0.000 C 
ATOM     10  N   UNL     1      47.135   6.492  12.182  0.00  0.00    +0.000 N 
ATOM     11  H   UNL     1      47.631   5.783  11.655  0.00  0.00    +0.000 HD
BRANCH   9  12
ATOM     12  C   UNL     1      45.239   5.031  12.075  0.00  0.00    +0.000 A 
ATOM     13  C   UNL     1      44.725   4.145  13.016  0.00  0.00    +0.000 A 
ATOM     14  N   UNL     1      44.282   3.023  12.369  0.00  0.00    +0.000 N 
ATOM     15  C   UNL     1      44.471   3.169  11.024  0.00  0.00    +0.000 A 
ATOM     16  N   UNL     1      44.123   2.260  10.100  0.00  0.00    +0.000 NA
ATOM     17  C   UNL     1      44.419   2.677   8.856  0.00  0.00    +0.000 A 
ATOM     18  N   UNL     1      44.998   3.833   8.484  0.00  0.00    +0.000 NA
ATOM     19  C   UNL     1      45.318   4.685   9.460  0.00  0.00    +0.000 A 
ATOM     20  C   UNL     1      45.070   4.399  10.802  0.00  0.00    +0.000 A 
ATOM     21  H   UNL     1      43.864   2.208  12.796  0.00  0.00    +0.000 HD
BRANCH  19  22
ATOM     22  O   UNL     1      45.911   5.839   9.041  0.00  0.00    +0.000 OA
ATOM     23  H   UNL     1      45.135   6.316   8.690  0.00  0.00    +0.000 HD
ENDBRANCH  19  22
ENDBRANCH   9  12
ENDBRANCH   7  10
ENDBRANCH   1   7
BRANCH   4  24
ATOM     24  C   UNL     1      49.994   8.135  17.773  0.00  0.00    +0.000 C 
BRANCH  24  25
ATOM     25  N   UNL     1      50.100   6.851  18.474  0.00  0.00    +0.000 NA
ATOM     26  H   UNL     1      50.553   7.012  19.371  0.00  0.00    +0.000 HD
BRANCH  25  27
ATOM     27  CA  UNL     1      48.770   6.221  18.694  0.00  0.00    +0.000 C 
BRANCH  27  28
ATOM     28  C   UNL     1      48.678   4.895  17.918  0.00  0.00    +0.000 A 
ATOM     29  C   UNL     1      47.650   4.607  17.002  0.00  0.00    +0.000 A 
ATOM     30  C   UNL     1      47.606   3.394  16.311  0.00  0.00    +0.000 A 
ATOM     31  C   UNL     1      48.599   2.440  16.514  0.00  0.00    +0.000 A 
ATOM     32  C   UNL     1      49.641   2.707  17.399  0.00  0.00    +0.000 A 
ATOM     33  C   UNL     1      49.683   3.925  18.086  0.00  0.00    +0.000 A 
ENDBRANCH  27  28
BRANCH  27  34
ATOM     34  C   UNL     1      48.402   6.081  20.205  0.00  0.00    +0.000 C 
BRANCH  34  35
ATOM     35  O   UNL     1      47.035   5.712  20.408  0.00  0.00    +0.000 OA
ATOM     36  H   UNL     1      46.641   6.352  21.028  0.00  0.00    +0.000 HD
ENDBRANCH  34  35
ENDBRANCH  27  34
ENDBRANCH  25  27
ENDBRANCH  24  25
ENDBRANCH   4  24
TORSDOF 10
ENDMDL
MODEL 8
REMARK VINA RESULT:    -7.196      2.304      8.821
REMARK INTER + INTRA:         -11.881
REMARK INTER:                 -10.475
REMARK INTRA:                  -1.406
REMARK UNBOUND:                -0.899
REMARK  Name = 
REMARK  10 active torsions:
REMARK  status: ('A' for Active; 'I' for Inactive)
REMARK    1  A    between atoms: C_2  and  C_22
REMARK    2  A    between atoms: N_3  and  C_4
REMARK    3  A    between atoms: C_4  and  C_5
REMARK    4  A    between atoms: C_8  and  C_9
REMARK    5  A    between atoms: C_9  and  N_10
REMARK    6  A    between atoms: N_10  and  CA_11
REMARK    7  A    between atoms: CA_11  and  C_12
REMARK    8  A    between atoms: CA_11  and  C_14
REMARK    9  A    between atoms: C_12  and  O_13
REMARK   10  A    between atoms: C_29  and  O_30
REMARK                            x       y       z     vdW  Elec       q    Type
REMARK                         _______ _______ _______ _____ _____    ______ ____
ROOT
ATOM      1  C   UNL     1      46.471   7.111  12.039  0.00  0.00    +0.000 A 
ATOM      2  C   UNL     1      46.700   8.453  12.377  0.00  0.00    +0.000 A 
ATOM      3  C   UNL     1      47.715   8.801  13.278  0.00  0.00    +0.000 A 
ATOM      4  C   UNL     1      48.517   7.812  13.859  0.00  0.00    +0.000 A 
ATOM      5  C   UNL     1      48.315   6.474  13.472  0.00  0.00    +0.000 A 
ATOM      6  C   UNL     1      47.306   6.127  12.573  0.00  0.00    +0.000 A 
ENDROOT
BRANCH   1   7
ATOM      7  C   UNL     1      45.377   6.727  11.079  0.00  0.00    +0.000 C 
BRANCH   7  10
ATOM      8  O   UNL     1      43.381   5.079  10.039  0.00  0.00    +0.000 OA
ATOM      9  C   UNL     1      44.540   4.678  10.030  0.00  0.00    +0.000 C 
ATOM     10  N   UNL     1      45.574   5.393  10.577  0.00  0.00    +0.000 N 
ATOM     11  H   UNL     1      46.527   5.081  10.432  0.00  0.00    +0.000 HD
BRANCH   9  12
ATOM     12  C   UNL     1      44.905   3.384   9.456  0.00  0.00    +0.000 A 
ATOM     13  C   UNL     1      44.301   2.188   9.828  0.00  0.00    +0.000 A 
ATOM     14  N   UNL     1      44.861   1.168   9.105  0.00  0.00    +0.000 N 
ATOM     15  C   UNL     1      45.797   1.676   8.251  0.00  0.00    +0.000 A 
ATOM     16  N   UNL     1      46.516   0.948   7.383  0.00  0.00    +0.000 NA
ATOM     17  C   UNL     1      47.354   1.715   6.663  0.00  0.00    +0.000 A 
ATOM     18  N   UNL     1      47.529   3.047   6.736  0.00  0.00    +0.000 NA
ATOM     19  C   UNL     1      46.779   3.703   7.625  0.00  0.00    +0.000 A 
ATOM     20  C   UNL     1      45.860   3.048   8.444  0.00  0.00    +0.000 A 
ATOM     21  H   UNL     1      44.624   0.188   9.167  0.00  0.00    +0.000 HD
BRANCH  19  22
ATOM     22  O   UNL     1      46.995   5.048   7.674  0.00  0.00    +0.000 OA
ATOM     23  H   UNL     1      47.839   5.072   8.162  0.00  0.00    +0.000 HD
ENDBRANCH  19  22
ENDBRANCH   9  12
ENDBRANCH   7  10
ENDBRANCH   1   7
BRANCH   4  24
ATOM     24  C   UNL     1      49.649   8.113  14.813  0.00  0.00    +0.000 C 
BRANCH  24  25
ATOM     25  N   UNL     1      50.291   6.936  15.409  0.00  0.00    +0.000 NA
ATOM     26  H   UNL     1      51.299   7.072  15.380  0.00  0.00    +0.000 HD
BRANCH  25  27
ATOM     27  CA  UNL     1      49.859   6.715  16.816  0.00  0.00    +0.000 C 
BRANCH  27  28
ATOM     28  C   UNL     1      49.259   5.306  16.969  0.00  0.00    +0.000 A 
ATOM     29  C   UNL     1      47.922   4.999  16.659  0.00  0.00    +0.000 A 
ATOM     30  C   UNL     1      47.417   3.705  16.804  0.00  0.00    +0.000 A 
ATOM     31  C   UNL     1      48.244   2.681  17.257  0.00  0.00    +0.000 A 
ATOM     32  C   UNL     1      49.578   2.951  17.551  0.00  0.00    +0.000 A 
ATOM     33  C   UNL     1      50.081   4.248  17.400  0.00  0.00    +0.000 A 
ENDBRANCH  27  28
BRANCH  27  34
ATOM     34  C   UNL     1      50.981   7.027  17.856  0.00  0.00    +0.000 C 
BRANCH  34  35
ATOM     35  O   UNL     1      50.468   7.227  19.177  0.00  0.00    +0.000 OA
ATOM     36  H   UNL     1      51.197   7.554  19.734  0.00  0.00    +0.000 HD
ENDBRANCH  34  35
ENDBRANCH  27  34
ENDBRANCH  25  27
ENDBRANCH  24  25
ENDBRANCH   4  24
TORSDOF 10
ENDMDL
MODEL 9
REMARK VINA RESULT:    -6.911      2.993      9.767
REMARK INTER + INTRA:         -11.446
REMARK INTER:                 -10.051
REMARK INTRA:                  -1.395
REMARK UNBOUND:                -0.899
REMARK  Name = 
REMARK  10 active torsions:
REMARK  status: ('A' for Active; 'I' for Inactive)
REMARK    1  A    between atoms: C_2  and  C_22
REMARK    2  A    between atoms: N_3  and  C_4
REMARK    3  A    between atoms: C_4  and  C_5
REMARK    4  A    between atoms: C_8  and  C_9
REMARK    5  A    between atoms: C_9  and  N_10
REMARK    6  A    between atoms: N_10  and  CA_11
REMARK    7  A    between atoms: CA_11  and  C_12
REMARK    8  A    between atoms: CA_11  and  C_14
REMARK    9  A    between atoms: C_12  and  O_13
REMARK   10  A    between atoms: C_29  and  O_30
REMARK                            x       y       z     vdW  Elec       q    Type
REMARK                         _______ _______ _______ _____ _____    ______ ____
ROOT
ATOM      1  C   UNL     1      47.869   6.489  14.426  0.00  0.00    +0.000 A 
ATOM      2  C   UNL     1      48.996   7.214  14.843  0.00  0.00    +0.000 A 
ATOM      3  C   UNL     1      49.710   6.832  15.987  0.00  0.00    +0.000 A 
ATOM      4  C   UNL     1      49.307   5.721  16.736  0.00  0.00    +0.000 A 
ATOM      5  C   UNL     1      48.208   4.970  16.280  0.00  0.00    +0.000 A 
ATOM      6  C   UNL     1      47.498   5.347  15.140  0.00  0.00    +0.000 A 
ENDROOT
BRANCH   1   7
ATOM      7  C   UNL     1      47.091   6.896  13.204  0.00  0.00    +0.000 C 
BRANCH   7  10
ATOM      8  O   UNL     1      44.417   6.100  13.164  0.00  0.00    +0.000 OA
ATOM      9  C   UNL     1      45.232   5.464  12.502  0.00  0.00    +0.000 C 
ATOM     10  N   UNL     1      46.574   5.746  12.513  0.00  0.00    +0.000 N 
ATOM     11  H   UNL     1      47.186   5.278  11.855  0.00  0.00    +0.000 HD
BRANCH   9  12
ATOM     12  C   UNL     1      44.834   4.333  11.666  0.00  0.00    +0.000 A 
ATOM     13  C   UNL     1      44.158   3.222  12.160  0.00  0.00    +0.000 A 
ATOM     14  N   UNL     1      43.928   2.352  11.129  0.00  0.00    +0.000 N 
ATOM     15  C   UNL     1      44.416   2.881   9.969  0.00  0.00    +0.000 A 
ATOM     16  N   UNL     1      44.334   2.294   8.765  0.00  0.00    +0.000 NA
ATOM     17  C   UNL     1      44.890   3.051   7.802  0.00  0.00    +0.000 A 
ATOM     18  N   UNL     1      45.485   4.250   7.930  0.00  0.00    +0.000 NA
ATOM     19  C   UNL     1      45.531   4.770   9.159  0.00  0.00    +0.000 A 
ATOM     20  C   UNL     1      44.993   4.108  10.261  0.00  0.00    +0.000 A 
ATOM     21  H   UNL     1      43.461   1.458  11.189  0.00  0.00    +0.000 HD
BRANCH  19  22
ATOM     22  O   UNL     1      46.151   5.981   9.246  0.00  0.00    +0.000 OA
ATOM     23  H   UNL     1      45.740   6.328  10.060  0.00  0.00    +0.000 HD
ENDBRANCH  19  22
ENDBRANCH   9  12
ENDBRANCH   7  10
ENDBRANCH   1   7
BRANCH   4  24
ATOM     24  C   UNL     1      50.044   5.232  17.961  0.00  0.00    +0.000 C 
BRANCH  24  25
ATOM     25  N   UNL     1      50.260   6.243  19.002  0.00  0.00    +0.000 NA
ATOM     26  H   UNL     1      50.169   7.164  18.579  0.00  0.00    +0.000 HD
BRANCH  25  27
ATOM     27  CA  UNL     1      49.288   6.110  20.122  0.00  0.00    +0.000 C 
BRANCH  27  28
ATOM     28  C   UNL     1      48.423   7.379  20.224  0.00  0.00    +0.000 A 
ATOM     29  C   UNL     1      48.096   8.180  19.114  0.00  0.00    +0.000 A 
ATOM     30  C   UNL     1      47.300   9.321  19.247  0.00  0.00    +0.000 A 
ATOM     31  C   UNL     1      46.805   9.684  20.496  0.00  0.00    +0.000 A 
ATOM     32  C   UNL     1      47.095   8.897  21.608  0.00  0.00    +0.000 A 
ATOM     33  C   UNL     1      47.889   7.753  21.470  0.00  0.00    +0.000 A 
ENDBRANCH  27  28
BRANCH  27  34
ATOM     34  C   UNL     1      48.451   4.794  20.052  0.00  0.00    +0.000 C 
BRANCH  34  35
ATOM     35  O   UNL     1      48.120   4.282  21.346  0.00  0.00    +0.000 OA
ATOM     36  H   UNL     1      47.708   3.408  21.225  0.00  0.00    +0.000 HD
ENDBRANCH  34  35
ENDBRANCH  27  34
ENDBRANCH  25  27
ENDBRANCH  24  25
ENDBRANCH   4  24
TORSDOF 10
ENDMDL
