MODEL 1
REMARK VINA RESULT:    -8.003      0.000      0.000
REMARK INTER + INTRA:         -11.571
REMARK INTER:                 -10.811
REMARK INTRA:                  -0.761
REMARK UNBOUND:                -0.761
REMARK  Name = 
REMARK  6 active torsions:
REMARK  status: ('A' for Active; 'I' for Inactive)
REMARK    1  A    between atoms: C_2  and  C_20
REMARK    2  A    between atoms: N_3  and  C_4
REMARK    3  A    between atoms: C_4  and  C_5
REMARK    4  A    between atoms: C_8  and  C_9
REMARK    5  A    between atoms: C_9  and  C_10
REMARK    6  A    between atoms: C_10  and  C_11
REMARK                            x       y       z     vdW  Elec       q    Type
REMARK                         _______ _______ _______ _____ _____    ______ ____
ROOT
ATOM      1  C   UNL     1      46.843   7.882  13.277  0.00  0.00    +0.000 C 
ENDROOT
BRANCH   1   2
ATOM      2  C   UNL     1      46.119   6.913  12.380  0.00  0.00    +0.000 A 
ATOM      3  C   UNL     1      46.492   6.779  11.037  0.00  0.00    +0.000 A 
ATOM      4  C   UNL     1      45.860   5.848  10.209  0.00  0.00    +0.000 A 
ATOM      5  C   UNL     1      44.838   5.031  10.706  0.00  0.00    +0.000 A 
ATOM      6  C   UNL     1      44.444   5.185  12.043  0.00  0.00    +0.000 A 
ATOM      7  C   UNL     1      45.071   6.122  12.868  0.00  0.00    +0.000 A 
BRANCH   5   8
ATOM      8  C   UNL     1      44.130   4.031   9.819  0.00  0.00    +0.000 C 
BRANCH   8   9
ATOM      9  C   UNL     1      44.483   4.175   8.332  0.00  0.00    +0.000 C 
BRANCH   9  10
ATOM     10  C   UNL     1      45.624   3.287   7.874  0.00  0.00    +0.000 A 
ATOM     11  N   UNL     1      46.615   3.870   7.143  0.00  0.00    +0.000 NA
ATOM     12  C   UNL     1      47.639   3.091   6.729  0.00  0.00    +0.000 A 
ATOM     13  C   UNL     1      47.737   1.740   7.007  0.00  0.00    +0.000 A 
ATOM     14  C   UNL     1      46.723   1.150   7.754  0.00  0.00    +0.000 A 
ATOM     15  C   UNL     1      45.652   1.926   8.197  0.00  0.00    +0.000 A 
ATOM     16 CL   UNL     1      44.414   1.160   9.122  0.00  0.00    +0.000 Cl
ENDBRANCH   9  10
ENDBRANCH   8   9
ENDBRANCH   5   8
ENDBRANCH   1   2
BRANCH   1  19
ATOM     17  O   UNL     1      49.385   6.702  13.591  0.00  0.00    +0.000 OA
ATOM     18  C   UNL     1      48.619   6.733  14.549  0.00  0.00    +0.000 C 
ATOM     19  N   UNL     1      47.352   7.247  14.469  0.00  0.00    +0.000 N 
ATOM     20  H   UNL     1      46.815   7.394  15.317  0.00  0.00    +0.000 HD
BRANCH  18  21
ATOM     21  C   UNL     1      49.004   6.165  15.848  0.00  0.00    +0.000 A 
ATOM     22  C   UNL     1      49.988   6.774  16.612  0.00  0.00    +0.000 A 
ATOM     23  S   UNL     1      50.265   5.999  18.106  0.00  0.00    +0.000 S 
ATOM     24  C   UNL     1      49.058   4.839  17.793  0.00  0.00    +0.000 A 
ATOM     25  N   UNL     1      48.743   3.887  18.710  0.00  0.00    +0.000 NA
ATOM     26  C   UNL     1      47.780   3.101  18.351  0.00  0.00    +0.000 A 
ATOM     27  N   UNL     1      47.120   3.169  17.154  0.00  0.00    +0.000 N 
ATOM     28  C   UNL     1      47.471   4.053  16.166  0.00  0.00    +0.000 A 
ATOM     29  O   UNL     1      46.976   3.967  15.040  0.00  0.00    +0.000 OA
ATOM     30  C   UNL     1      48.488   5.012  16.544  0.00  0.00    +0.000 A 
ATOM     31  H   UNL     1      46.408   2.495  16.915  0.00  0.00    +0.000 HD
ENDBRANCH  18  21
ENDBRANCH   1  19
TORSDOF 6
ENDMDL
MODEL 2
REMARK VINA RESULT:    -7.914      2.375      3.066
REMARK INTER + INTRA:         -11.451
REMARK INTER:                 -10.305
REMARK INTRA:                  -1.146
REMARK UNBOUND:                -0.761
REMARK  Name = 
REMARK  6 active torsions:
REMARK  status: ('A' for Active; 'I' for Inactive)
REMARK    1  A    between atoms: C_2  and  C_20
REMARK    2  A    between atoms: N_3  and  C_4
REMARK    3  A    between atoms: C_4  and  C_5
REMARK    4  A    between atoms: C_8  and  C_9
REMARK    5  A    between atoms: C_9  and  C_10
REMARK    6  A    between atoms: C_10  and  C_11
REMARK                            x       y       z     vdW  Elec       q    Type
REMARK                         _______ _______ _______ _____ _____    ______ ____
ROOT
ATOM      1  C   UNL     1      46.811   4.298  15.728  0.00  0.00    +0.000 C 
ENDROOT
BRANCH   1   2
ATOM      2  C   UNL     1      46.612   4.717  14.295  0.00  0.00    +0.000 A 
ATOM      3  C   UNL     1      45.617   4.115  13.515  0.00  0.00    +0.000 A 
ATOM      4  C   UNL     1      45.391   4.530  12.200  0.00  0.00    +0.000 A 
ATOM      5  C   UNL     1      46.157   5.557  11.636  0.00  0.00    +0.000 A 
ATOM      6  C   UNL     1      47.172   6.139  12.407  0.00  0.00    +0.000 A 
ATOM      7  C   UNL     1      47.404   5.718  13.719  0.00  0.00    +0.000 A 
BRANCH   5   8
ATOM      8  C   UNL     1      45.938   6.006  10.208  0.00  0.00    +0.000 C 
BRANCH   8   9
ATOM      9  C   UNL     1      44.980   5.101   9.421  0.00  0.00    +0.000 C 
BRANCH   9  10
ATOM     10  C   UNL     1      45.669   4.012   8.621  0.00  0.00    +0.000 A 
ATOM     11  N   UNL     1      46.578   4.405   7.685  0.00  0.00    +0.000 NA
ATOM     12  C   UNL     1      47.201   3.445   6.965  0.00  0.00    +0.000 A 
ATOM     13  C   UNL     1      46.969   2.092   7.125  0.00  0.00    +0.000 A 
ATOM     14  C   UNL     1      46.040   1.697   8.083  0.00  0.00    +0.000 A 
ATOM     15  C   UNL     1      45.380   2.662   8.843  0.00  0.00    +0.000 A 
ATOM     16 CL   UNL     1      44.237   2.133  10.021  0.00  0.00    +0.000 Cl
ENDBRANCH   9  10
ENDBRANCH   8   9
ENDBRANCH   5   8
ENDBRANCH   1   2
BRANCH   1  19
ATOM     17  O   UNL     1      48.026   5.308  18.063  0.00  0.00    +0.000 OA
ATOM     18  C   UNL     1      48.709   4.683  17.257  0.00  0.00    +0.000 C 
ATOM     19  N   UNL     1      48.206   4.198  16.078  0.00  0.00    +0.000 N 
ATOM     20  H   UNL     1      48.762   3.558  15.521  0.00  0.00    +0.000 HD
BRANCH  18  21
ATOM     21  C   UNL     1      50.142   4.458  17.489  0.00  0.00    +0.000 A 
ATOM     22  C   UNL     1      50.966   5.513  17.849  0.00  0.00    +0.000 A 
ATOM     23  S   UNL     1      52.585   5.050  18.120  0.00  0.00    +0.000 S 
ATOM     24  C   UNL     1      52.232   3.416  17.789  0.00  0.00    +0.000 A 
ATOM     25  N   UNL     1      53.189   2.456  17.892  0.00  0.00    +0.000 NA
ATOM     26  C   UNL     1      52.766   1.257  17.651  0.00  0.00    +0.000 A 
ATOM     27  N   UNL     1      51.482   0.936  17.299  0.00  0.00    +0.000 N 
ATOM     28  C   UNL     1      50.513   1.884  17.093  0.00  0.00    +0.000 A 
ATOM     29  O   UNL     1      49.424   1.576  16.607  0.00  0.00    +0.000 OA
ATOM     30  C   UNL     1      50.909   3.237  17.429  0.00  0.00    +0.000 A 
ATOM     31  H   UNL     1      51.227  -0.015  17.079  0.00  0.00    +0.000 HD
ENDBRANCH  18  21
ENDBRANCH   1  19
TORSDOF 6
ENDMDL
MODEL 3
REMARK VINA RESULT:    -7.580      1.962      2.339
REMARK INTER + INTRA:         -10.999
REMARK INTER:                 -10.462
REMARK INTRA:                  -0.537
REMARK UNBOUND:                -0.761
REMARK  Name = 
REMARK  6 active torsions:
REMARK  status: ('A' for Active; 'I' for Inactive)
REMARK    1  A    between atoms: C_2  and  C_20
REMARK    2  A    between atoms: N_3  and  C_4
REMARK    3  A    between atoms: C_4  and  C_5
REMARK    4  A    between atoms: C_8  and  C_9
REMARK    5  A    between atoms: C_9  and  C_10
REMARK    6  A    between atoms: C_10  and  C_11
REMARK                            x       y       z     vdW  Elec       q    Type
REMARK                         _______ _______ _______ _____ _____    ______ ____
ROOT
ATOM      1  C   UNL     1      47.776   6.717  13.742  0.00  0.00    +0.000 C 
ENDROOT
BRANCH   1   2
ATOM      2  C   UNL     1      46.822   6.038  12.795  0.00  0.00    +0.000 A 
ATOM      3  C   UNL     1      46.623   6.549  11.506  0.00  0.00    +0.000 A 
ATOM      4  C   UNL     1      45.778   5.899  10.602  0.00  0.00    +0.000 A 
ATOM      5  C   UNL     1      45.112   4.724  10.969  0.00  0.00    +0.000 A 
ATOM      6  C   UNL     1      45.288   4.229  12.268  0.00  0.00    +0.000 A 
ATOM      7  C   UNL     1      46.126   4.883  13.175  0.00  0.00    +0.000 A 
BRANCH   5   8
ATOM      8  C   UNL     1      44.179   4.018  10.009  0.00  0.00    +0.000 C 
BRANCH   8   9
ATOM      9  C   UNL     1      44.526   4.256   8.533  0.00  0.00    +0.000 C 
BRANCH   9  10
ATOM     10  C   UNL     1      45.639   3.371   8.005  0.00  0.00    +0.000 A 
ATOM     11  N   UNL     1      46.634   3.974   7.297  0.00  0.00    +0.000 NA
ATOM     12  C   UNL     1      47.634   3.198   6.821  0.00  0.00    +0.000 A 
ATOM     13  C   UNL     1      47.703   1.831   7.014  0.00  0.00    +0.000 A 
ATOM     14  C   UNL     1      46.685   1.220   7.739  0.00  0.00    +0.000 A 
ATOM     15  C   UNL     1      45.639   1.993   8.244  0.00  0.00    +0.000 A 
ATOM     16 CL   UNL     1      44.396   1.201   9.139  0.00  0.00    +0.000 Cl
ENDBRANCH   9  10
ENDBRANCH   8   9
ENDBRANCH   5   8
ENDBRANCH   1   2
BRANCH   1  19
ATOM     17  O   UNL     1      49.837   6.833  15.662  0.00  0.00    +0.000 OA
ATOM     18  C   UNL     1      48.790   6.260  15.945  0.00  0.00    +0.000 C 
ATOM     19  N   UNL     1      47.757   6.121  15.056  0.00  0.00    +0.000 N 
ATOM     20  H   UNL     1      46.858   5.782  15.380  0.00  0.00    +0.000 HD
BRANCH  18  21
ATOM     21  C   UNL     1      48.596   5.636  17.261  0.00  0.00    +0.000 A 
ATOM     22  C   UNL     1      48.792   4.273  17.423  0.00  0.00    +0.000 A 
ATOM     23  S   UNL     1      48.566   3.739  19.028  0.00  0.00    +0.000 S 
ATOM     24  C   UNL     1      48.225   5.320  19.565  0.00  0.00    +0.000 A 
ATOM     25  N   UNL     1      47.984   5.580  20.877  0.00  0.00    +0.000 NA
ATOM     26  C   UNL     1      47.782   6.830  21.142  0.00  0.00    +0.000 A 
ATOM     27  N   UNL     1      47.777   7.836  20.214  0.00  0.00    +0.000 N 
ATOM     28  C   UNL     1      47.921   7.603  18.871  0.00  0.00    +0.000 A 
ATOM     29  O   UNL     1      47.735   8.505  18.052  0.00  0.00    +0.000 OA
ATOM     30  C   UNL     1      48.234   6.231  18.524  0.00  0.00    +0.000 A 
ATOM     31  H   UNL     1      47.565   8.786  20.480  0.00  0.00    +0.000 HD
ENDBRANCH  18  21
ENDBRANCH   1  19
TORSDOF 6
ENDMDL
MODEL 4
REMARK VINA RESULT:    -7.475      3.717      8.079
REMARK INTER + INTRA:         -10.858
REMARK INTER:                  -9.684
REMARK INTRA:                  -1.174
REMARK UNBOUND:                -0.761
REMARK  Name = 
REMARK  6 active torsions:
REMARK  status: ('A' for Active; 'I' for Inactive)
REMARK    1  A    between atoms: C_2  and  C_20
REMARK    2  A    between atoms: N_3  and  C_4
REMARK    3  A    between atoms: C_4  and  C_5
REMARK    4  A    between atoms: C_8  and  C_9
REMARK    5  A    between atoms: C_9  and  C_10
REMARK    6  A    between atoms: C_10  and  C_11
REMARK                            x       y       z     vdW  Elec       q    Type
REMARK                         _______ _______ _______ _____ _____    ______ ____
ROOT
ATOM      1  C   UNL     1      48.348   7.930  12.331  0.00  0.00    +0.000 C 
ENDROOT
BRANCH   1   2
ATOM      2  C   UNL     1      48.990   7.501  13.624  0.00  0.00    +0.000 A 
ATOM      3  C   UNL     1      50.281   7.935  13.949  0.00  0.00    +0.000 A 
ATOM      4  C   UNL     1      50.868   7.583  15.168  0.00  0.00    +0.000 A 
ATOM      5  C   UNL     1      50.175   6.787  16.088  0.00  0.00    +0.000 A 
ATOM      6  C   UNL     1      48.895   6.329  15.750  0.00  0.00    +0.000 A 
ATOM      7  C   UNL     1      48.312   6.673  14.528  0.00  0.00    +0.000 A 
BRANCH   5   8
ATOM      8  C   UNL     1      50.802   6.381  17.404  0.00  0.00    +0.000 C 
BRANCH   8   9
ATOM      9  C   UNL     1      50.091   5.203  18.083  0.00  0.00    +0.000 C 
BRANCH   9  10
ATOM     10  C   UNL     1      50.784   3.867  17.898  0.00  0.00    +0.000 A 
ATOM     11  N   UNL     1      52.086   3.779  18.288  0.00  0.00    +0.000 NA
ATOM     12  C   UNL     1      52.717   2.594  18.130  0.00  0.00    +0.000 A 
ATOM     13  C   UNL     1      52.115   1.469  17.596  0.00  0.00    +0.000 A 
ATOM     14  C   UNL     1      50.785   1.565  17.199  0.00  0.00    +0.000 A 
ATOM     15  C   UNL     1      50.106   2.774  17.350  0.00  0.00    +0.000 A 
ATOM     16 CL   UNL     1      48.458   2.853  16.848  0.00  0.00    +0.000 Cl
ENDBRANCH   9  10
ENDBRANCH   8   9
ENDBRANCH   5   8
ENDBRANCH   1   2
BRANCH   1  19
ATOM     17  O   UNL     1      45.557   7.851  11.941  0.00  0.00    +0.000 OA
ATOM     18  C   UNL     1      46.244   6.923  11.526  0.00  0.00    +0.000 C 
ATOM     19  N   UNL     1      47.600   6.863  11.713  0.00  0.00    +0.000 N 
ATOM     20  H   UNL     1      48.144   6.162  11.221  0.00  0.00    +0.000 HD
BRANCH  18  21
ATOM     21  C   UNL     1      45.637   5.778  10.834  0.00  0.00    +0.000 A 
ATOM     22  C   UNL     1      45.880   5.566   9.486  0.00  0.00    +0.000 A 
ATOM     23  S   UNL     1      45.128   4.164   8.871  0.00  0.00    +0.000 S 
ATOM     24  C   UNL     1      44.474   3.777  10.395  0.00  0.00    +0.000 A 
ATOM     25  N   UNL     1      43.746   2.645  10.581  0.00  0.00    +0.000 NA
ATOM     26  C   UNL     1      43.349   2.463  11.799  0.00  0.00    +0.000 A 
ATOM     27  N   UNL     1      43.596   3.317  12.839  0.00  0.00    +0.000 N 
ATOM     28  C   UNL     1      44.244   4.515  12.673  0.00  0.00    +0.000 A 
ATOM     29  O   UNL     1      44.293   5.336  13.591  0.00  0.00    +0.000 OA
ATOM     30  C   UNL     1      44.784   4.733  11.347  0.00  0.00    +0.000 A 
ATOM     31  H   UNL     1      43.218   3.141  13.757  0.00  0.00    +0.000 HD
ENDBRANCH  18  21
ENDBRANCH   1  19
TORSDOF 6
ENDMDL
MODEL 5
REMARK VINA RESULT:    -7.329      2.645      3.282
REMARK INTER + INTRA:         -10.661
REMARK INTER:                  -9.697
REMARK INTRA:                  -0.964
REMARK UNBOUND:                -0.761
REMARK  Name = 
REMARK  6 active torsions:
REMARK  status: ('A' for Active; 'I' for Inactive)
REMARK    1  A    between atoms: C_2  and  C_20
REMARK    2  A    between atoms: N_3  and  C_4
REMARK    3  A    between atoms: C_4  and  C_5
REMARK    4  A    between atoms: C_8  and  C_9
REMARK    5  A    between atoms: C_9  and  C_10
REMARK    6  A    between atoms: C_10  and  C_11
REMARK                            x       y       z     vdW  Elec       q    Type
REMARK                         _______ _______ _______ _____ _____    ______ ____
ROOT
ATOM      1  C   UNL     1      47.508   4.158  15.656  0.00  0.00    +0.000 C 
ENDROOT
BRANCH   1   2
ATOM      2  C   UNL     1      46.988   4.635  14.325  0.00  0.00    +0.000 A 
ATOM      3  C   UNL     1      46.022   3.891  13.636  0.00  0.00    +0.000 A 
ATOM      4  C   UNL     1      45.498   4.348  12.424  0.00  0.00    +0.000 A 
ATOM      5  C   UNL     1      45.930   5.561  11.874  0.00  0.00    +0.000 A 
ATOM      6  C   UNL     1      46.918   6.291  12.549  0.00  0.00    +0.000 A 
ATOM      7  C   UNL     1      47.449   5.829  13.756  0.00  0.00    +0.000 A 
BRANCH   5   8
ATOM      8  C   UNL     1      45.386   6.062  10.554  0.00  0.00    +0.000 C 
BRANCH   8   9
ATOM      9  C   UNL     1      44.491   5.043   9.835  0.00  0.00    +0.000 C 
BRANCH   9  10
ATOM     10  C   UNL     1      45.247   4.051   8.972  0.00  0.00    +0.000 A 
ATOM     11  N   UNL     1      46.084   4.558   8.024  0.00  0.00    +0.000 NA
ATOM     12  C   UNL     1      46.766   3.686   7.248  0.00  0.00    +0.000 A 
ATOM     13  C   UNL     1      46.662   2.312   7.363  0.00  0.00    +0.000 A 
ATOM     14  C   UNL     1      45.806   1.800   8.333  0.00  0.00    +0.000 A 
ATOM     15  C   UNL     1      45.088   2.673   9.150  0.00  0.00    +0.000 A 
ATOM     16 CL   UNL     1      44.038   2.001  10.342  0.00  0.00    +0.000 Cl
ENDBRANCH   9  10
ENDBRANCH   8   9
ENDBRANCH   5   8
ENDBRANCH   1   2
BRANCH   1  19
ATOM     17  O   UNL     1      49.746   5.464  16.767  0.00  0.00    +0.000 OA
ATOM     18  C   UNL     1      48.620   5.809  17.113  0.00  0.00    +0.000 C 
ATOM     19  N   UNL     1      47.483   5.197  16.655  0.00  0.00    +0.000 N 
ATOM     20  H   UNL     1      46.578   5.614  16.845  0.00  0.00    +0.000 HD
BRANCH  18  21
ATOM     21  C   UNL     1      48.424   6.886  18.094  0.00  0.00    +0.000 A 
ATOM     22  C   UNL     1      48.431   8.211  17.687  0.00  0.00    +0.000 A 
ATOM     23  S   UNL     1      48.142   9.314  18.955  0.00  0.00    +0.000 S 
ATOM     24  C   UNL     1      47.969   8.053  20.088  0.00  0.00    +0.000 A 
ATOM     25  N   UNL     1      47.656   8.311  21.385  0.00  0.00    +0.000 NA
ATOM     26  C   UNL     1      47.518   7.254  22.118  0.00  0.00    +0.000 A 
ATOM     27  N   UNL     1      47.682   5.968  21.677  0.00  0.00    +0.000 N 
ATOM     28  C   UNL     1      48.090   5.671  20.402  0.00  0.00    +0.000 A 
ATOM     29  O   UNL     1      48.398   4.519  20.092  0.00  0.00    +0.000 OA
ATOM     30  C   UNL     1      48.180   6.812  19.513  0.00  0.00    +0.000 A 
ATOM     31  H   UNL     1      47.606   5.188  22.312  0.00  0.00    +0.000 HD
ENDBRANCH  18  21
ENDBRANCH   1  19
TORSDOF 6
ENDMDL
MODEL 6
REMARK VINA RESULT:    -7.325      3.247      5.035
REMARK INTER + INTRA:         -10.655
REMARK INTER:                  -9.584
REMARK INTRA:                  -1.071
REMARK UNBOUND:                -0.761
REMARK  Name = 
REMARK  6 active torsions:
REMARK  status: ('A' for Active; 'I' for Inactive)
REMARK    1  A    between atoms: C_2  and  C_20
REMARK    2  A    between atoms: N_3  and  C_4
REMARK    3  A    between atoms: C_4  and  C_5
REMARK    4  A    between atoms: C_8  and  C_9
REMARK    5  A    between atoms: C_9  and  C_10
REMARK    6  A    between atoms: C_10  and  C_11
REMARK                            x       y       z     vdW  Elec       q    Type
REMARK                         _______ _______ _______ _____ _____    ______ ____
ROOT
ATOM      1  C   UNL     1      47.711   3.367  17.198  0.00  0.00    +0.000 C 
ENDROOT
BRANCH   1   2
ATOM      2  C   UNL     1      47.632   4.182  15.934  0.00  0.00    +0.000 A 
ATOM      3  C   UNL     1      47.069   3.634  14.775  0.00  0.00    +0.000 A 
ATOM      4  C   UNL     1      46.946   4.398  13.610  0.00  0.00    +0.000 A 
ATOM      5  C   UNL     1      47.385   5.727  13.580  0.00  0.00    +0.000 A 
ATOM      6  C   UNL     1      47.975   6.265  14.731  0.00  0.00    +0.000 A 
ATOM      7  C   UNL     1      48.107   5.499  15.892  0.00  0.00    +0.000 A 
BRANCH   5   8
ATOM      8  C   UNL     1      47.276   6.561  12.323  0.00  0.00    +0.000 C 
BRANCH   8   9
ATOM      9  C   UNL     1      45.829   6.800  11.870  0.00  0.00    +0.000 C 
BRANCH   9  10
ATOM     10  C   UNL     1      45.269   5.710  10.977  0.00  0.00    +0.000 A 
ATOM     11  N   UNL     1      45.867   5.525   9.767  0.00  0.00    +0.000 NA
ATOM     12  C   UNL     1      45.380   4.556   8.960  0.00  0.00    +0.000 A 
ATOM     13  C   UNL     1      44.312   3.744   9.294  0.00  0.00    +0.000 A 
ATOM     14  C   UNL     1      43.705   3.936  10.531  0.00  0.00    +0.000 A 
ATOM     15  C   UNL     1      44.184   4.928  11.387  0.00  0.00    +0.000 A 
ATOM     16 CL   UNL     1      43.408   5.136  12.913  0.00  0.00    +0.000 Cl
ENDBRANCH   9  10
ENDBRANCH   8   9
ENDBRANCH   5   8
ENDBRANCH   1   2
BRANCH   1  19
ATOM     17  O   UNL     1      49.522   1.606  15.946  0.00  0.00    +0.000 OA
ATOM     18  C   UNL     1      49.901   2.268  16.908  0.00  0.00    +0.000 C 
ATOM     19  N   UNL     1      49.073   3.113  17.598  0.00  0.00    +0.000 N 
ATOM     20  H   UNL     1      49.465   3.752  18.281  0.00  0.00    +0.000 HD
BRANCH  18  21
ATOM     21  C   UNL     1      51.276   2.155  17.413  0.00  0.00    +0.000 A 
ATOM     22  C   UNL     1      51.850   0.907  17.604  0.00  0.00    +0.000 A 
ATOM     23  S   UNL     1      53.464   0.978  18.151  0.00  0.00    +0.000 S 
ATOM     24  C   UNL     1      53.458   2.681  18.126  0.00  0.00    +0.000 A 
ATOM     25  N   UNL     1      54.571   3.393  18.443  0.00  0.00    +0.000 NA
ATOM     26  C   UNL     1      54.430   4.675  18.340  0.00  0.00    +0.000 A 
ATOM     27  N   UNL     1      53.273   5.307  17.969  0.00  0.00    +0.000 N 
ATOM     28  C   UNL     1      52.104   4.630  17.733  0.00  0.00    +0.000 A 
ATOM     29  O   UNL     1      51.045   5.240  17.576  0.00  0.00    +0.000 OA
ATOM     30  C   UNL     1      52.225   3.187  17.753  0.00  0.00    +0.000 A 
ATOM     31  H   UNL     1      53.214   6.314  17.953  0.00  0.00    +0.000 HD
ENDBRANCH  18  21
ENDBRANCH   1  19
TORSDOF 6
ENDMDL
MODEL 7
REMARK VINA RESULT:    -7.284      3.274      4.475
REMARK INTER + INTRA:         -10.600
REMARK INTER:                  -9.410
REMARK INTRA:                  -1.190
REMARK UNBOUND:                -0.761
REMARK  Name = 
REMARK  6 active torsions:
REMARK  status: ('A' for Active; 'I' for Inactive)
REMARK    1  A    between atoms: C_2  and  C_20
REMARK    2  A    between atoms: N_3  and  C_4
REMARK    3  A    between atoms: C_4  and  C_5
REMARK    4  A    between atoms: C_8  and  C_9
REMARK    5  A    between atoms: C_9  and  C_10
REMARK    6  A    between atoms: C_10  and  C_11
REMARK                            x       y       z     vdW  Elec       q    Type
REMARK                         _______ _______ _______ _____ _____    ______ ____
ROOT
ATOM      1  C   UNL     1      48.413   5.383  16.283  0.00  0.00    +0.000 C 
ENDROOT
BRANCH   1   2
ATOM      2  C   UNL     1      47.838   5.647  14.916  0.00  0.00    +0.000 A 
ATOM      3  C   UNL     1      46.926   4.749  14.348  0.00  0.00    +0.000 A 
ATOM      4  C   UNL     1      46.349   5.009  13.102  0.00  0.00    +0.000 A 
ATOM      5  C   UNL     1      46.674   6.173  12.396  0.00  0.00    +0.000 A 
ATOM      6  C   UNL     1      47.609   7.057  12.951  0.00  0.00    +0.000 A 
ATOM      7  C   UNL     1      48.192   6.793  14.193  0.00  0.00    +0.000 A 
BRANCH   5   8
ATOM      8  C   UNL     1      46.073   6.461  11.037  0.00  0.00    +0.000 C 
BRANCH   8   9
ATOM      9  C   UNL     1      44.828   5.619  10.728  0.00  0.00    +0.000 C 
BRANCH   9  10
ATOM     10  C   UNL     1      45.072   4.481   9.757  0.00  0.00    +0.000 A 
ATOM     11  N   UNL     1      45.808   4.756   8.644  0.00  0.00    +0.000 NA
ATOM     12  C   UNL     1      46.035   3.750   7.769  0.00  0.00    +0.000 A 
ATOM     13  C   UNL     1      45.563   2.462   7.941  0.00  0.00    +0.000 A 
ATOM     14  C   UNL     1      44.812   2.187   9.078  0.00  0.00    +0.000 A 
ATOM     15  C   UNL     1      44.561   3.202  10.001  0.00  0.00    +0.000 A 
ATOM     16 CL   UNL     1      43.627   2.822  11.401  0.00  0.00    +0.000 Cl
ENDBRANCH   9  10
ENDBRANCH   8   9
ENDBRANCH   5   8
ENDBRANCH   1   2
BRANCH   1  19
ATOM     17  O   UNL     1      49.840   6.269  18.548  0.00  0.00    +0.000 OA
ATOM     18  C   UNL     1      48.735   6.748  18.314  0.00  0.00    +0.000 C 
ATOM     19  N   UNL     1      47.958   6.341  17.261  0.00  0.00    +0.000 N 
ATOM     20  H   UNL     1      47.128   6.870  17.016  0.00  0.00    +0.000 HD
BRANCH  18  21
ATOM     21  C   UNL     1      48.147   7.768  19.192  0.00  0.00    +0.000 A 
ATOM     22  C   UNL     1      47.909   7.486  20.528  0.00  0.00    +0.000 A 
ATOM     23  S   UNL     1      47.268   8.807  21.398  0.00  0.00    +0.000 S 
ATOM     24  C   UNL     1      47.314   9.809  20.021  0.00  0.00    +0.000 A 
ATOM     25  N   UNL     1      46.940  11.114  20.088  0.00  0.00    +0.000 NA
ATOM     26  C   UNL     1      47.067  11.761  18.975  0.00  0.00    +0.000 A 
ATOM     27  N   UNL     1      47.513  11.217  17.801  0.00  0.00    +0.000 N 
ATOM     28  C   UNL     1      47.809   9.885  17.668  0.00  0.00    +0.000 A 
ATOM     29  O   UNL     1      48.035   9.397  16.559  0.00  0.00    +0.000 OA
ATOM     30  C   UNL     1      47.764   9.129  18.903  0.00  0.00    +0.000 A 
ATOM     31  H   UNL     1      47.544  11.765  16.954  0.00  0.00    +0.000 HD
ENDBRANCH  18  21
ENDBRANCH   1  19
TORSDOF 6
ENDMDL
MODEL 8
REMARK VINA RESULT:    -7.197      3.957      7.805
REMARK INTER + INTRA:         -10.482
REMARK INTER:                  -8.814
REMARK INTRA:                  -1.668
REMARK UNBOUND:                -0.761
REMARK  Name = 
REMARK  6 active torsions:
REMARK  status: ('A' for Active; 'I' for Inactive)
REMARK    1  A    between atoms: C_2  and  C_20
REMARK    2  A    between atoms: N_3  and  C_4
REMARK    3  A    between atoms: C_4  and  C_5
REMARK    4  A    between atoms: C_8  and  C_9
REMARK    5  A    between atoms: C_9  and  C_10
REMARK    6  A    between atoms: C_10  and  C_11
REMARK                            x       y       z     vdW  Elec       q    Type
REMARK                         _______ _______ _______ _____ _____    ______ ____
ROOT
ATOM      1  C   UNL     1      48.103   8.961  14.292  0.00  0.00    +0.000 C 
ENDROOT
BRANCH   1   2
ATOM      2  C   UNL     1      48.756   8.265  15.458  0.00  0.00    +0.000 A 
ATOM      3  C   UNL     1      49.699   7.254  15.238  0.00  0.00    +0.000 A 
ATOM      4  C   UNL     1      50.347   6.636  16.311  0.00  0.00    +0.000 A 
ATOM      5  C   UNL     1      50.064   7.016  17.628  0.00  0.00    +0.000 A 
ATOM      6  C   UNL     1      49.099   8.008  17.849  0.00  0.00    +0.000 A 
ATOM      7  C   UNL     1      48.445   8.620  16.776  0.00  0.00    +0.000 A 
BRANCH   5   8
ATOM      8  C   UNL     1      50.743   6.345  18.802  0.00  0.00    +0.000 C 
BRANCH   8   9
ATOM      9  C   UNL     1      49.903   5.229  19.439  0.00  0.00    +0.000 C 
BRANCH   9  10
ATOM     10  C   UNL     1      49.328   4.240  18.444  0.00  0.00    +0.000 A 
ATOM     11  N   UNL     1      50.179   3.313  17.921  0.00  0.00    +0.000 NA
ATOM     12  C   UNL     1      49.681   2.423  17.033  0.00  0.00    +0.000 A 
ATOM     13  C   UNL     1      48.358   2.401  16.629  0.00  0.00    +0.000 A 
ATOM     14  C   UNL     1      47.494   3.348  17.167  0.00  0.00    +0.000 A 
ATOM     15  C   UNL     1      47.977   4.280  18.085  0.00  0.00    +0.000 A 
ATOM     16 CL   UNL     1      46.875   5.439  18.731  0.00  0.00    +0.000 Cl
ENDBRANCH   9  10
ENDBRANCH   8   9
ENDBRANCH   5   8
ENDBRANCH   1   2
BRANCH   1  19
ATOM     17  O   UNL     1      48.031   7.414  11.935  0.00  0.00    +0.000 OA
ATOM     18  C   UNL     1      47.032   7.465  12.647  0.00  0.00    +0.000 C 
ATOM     19  N   UNL     1      46.970   8.227  13.784  0.00  0.00    +0.000 N 
ATOM     20  H   UNL     1      46.187   8.116  14.420  0.00  0.00    +0.000 HD
BRANCH  18  21
ATOM     21  C   UNL     1      45.807   6.737  12.290  0.00  0.00    +0.000 A 
ATOM     22  C   UNL     1      44.751   7.401  11.685  0.00  0.00    +0.000 A 
ATOM     23  S   UNL     1      43.436   6.383  11.304  0.00  0.00    +0.000 S 
ATOM     24  C   UNL     1      44.247   5.014  11.913  0.00  0.00    +0.000 A 
ATOM     25  N   UNL     1      43.686   3.778  11.847  0.00  0.00    +0.000 NA
ATOM     26  C   UNL     1      44.434   2.829  12.310  0.00  0.00    +0.000 A 
ATOM     27  N   UNL     1      45.679   3.008  12.849  0.00  0.00    +0.000 N 
ATOM     28  C   UNL     1      46.240   4.248  13.020  0.00  0.00    +0.000 A 
ATOM     29  O   UNL     1      47.280   4.385  13.667  0.00  0.00    +0.000 OA
ATOM     30  C   UNL     1      45.482   5.340  12.444  0.00  0.00    +0.000 A 
ATOM     31  H   UNL     1      46.193   2.231  13.237  0.00  0.00    +0.000 HD
ENDBRANCH  18  21
ENDBRANCH   1  19
TORSDOF 6
ENDMDL
MODEL 9
REMARK VINA RESULT:    -7.072      1.712      2.567
REMARK INTER + INTRA:         -10.313
REMARK INTER:                  -9.025
REMARK INTRA:                  -1.288
REMARK UNBOUND:                -0.761
REMARK  Name = 
REMARK  6 active torsions:
REMARK  status: ('A' for Active; 'I' for Inactive)
REMARK    1  A    between atoms: C_2  and  C_20
REMARK    2  A    between atoms: N_3  and  C_4
REMARK    3  A    between atoms: C_4  and  C_5
REMARK    4  A    between atoms: C_8  and  C_9
REMARK    5  A    between atoms: C_9  and  C_10
REMARK    6  A    between atoms: C_10  and  C_11
REMARK                            x       y       z     vdW  Elec       q    Type
REMARK                         _______ _______ _______ _____ _____    ______ ____
ROOT
ATOM      1  C   UNL     1      49.058   8.759  14.283  0.00  0.00    +0.000 C 
ENDROOT
BRANCH   1   2
ATOM      2  C   UNL     1      47.922   8.257  13.430  0.00  0.00    +0.000 A 
ATOM      3  C   UNL     1      46.662   8.864  13.505  0.00  0.00    +0.000 A 
ATOM      4  C   UNL     1      45.614   8.438  12.683  0.00  0.00    +0.000 A 
ATOM      5  C   UNL     1      45.804   7.394  11.770  0.00  0.00    +0.000 A 
ATOM      6  C   UNL     1      47.057   6.768  11.717  0.00  0.00    +0.000 A 
ATOM      7  C   UNL     1      48.101   7.188  12.544  0.00  0.00    +0.000 A 
BRANCH   5   8
ATOM      8  C   UNL     1      44.676   6.909  10.886  0.00  0.00    +0.000 C 
BRANCH   8   9
ATOM      9  C   UNL     1      44.237   5.470  11.189  0.00  0.00    +0.000 C 
BRANCH   9  10
ATOM     10  C   UNL     1      44.637   4.461  10.129  0.00  0.00    +0.000 A 
ATOM     11  N   UNL     1      45.382   4.916   9.084  0.00  0.00    +0.000 NA
ATOM     12  C   UNL     1      45.746   4.028   8.131  0.00  0.00    +0.000 A 
ATOM     13  C   UNL     1      45.406   2.688   8.160  0.00  0.00    +0.000 A 
ATOM     14  C   UNL     1      44.645   2.229   9.230  0.00  0.00    +0.000 A 
ATOM     15  C   UNL     1      44.253   3.120  10.230  0.00  0.00    +0.000 A 
ATOM     16 CL   UNL     1      43.312   2.514  11.542  0.00  0.00    +0.000 Cl
ENDBRANCH   9  10
ENDBRANCH   8   9
ENDBRANCH   5   8
ENDBRANCH   1   2
BRANCH   1  19
ATOM     17  O   UNL     1      47.989   9.160  16.861  0.00  0.00    +0.000 OA
ATOM     18  C   UNL     1      48.687   8.173  16.651  0.00  0.00    +0.000 C 
ATOM     19  N   UNL     1      49.280   7.928  15.440  0.00  0.00    +0.000 N 
ATOM     20  H   UNL     1      49.715   7.028  15.268  0.00  0.00    +0.000 HD
BRANCH  18  21
ATOM     21  C   UNL     1      48.974   7.204  17.718  0.00  0.00    +0.000 A 
ATOM     22  C   UNL     1      49.487   7.634  18.932  0.00  0.00    +0.000 A 
ATOM     23  S   UNL     1      49.711   6.373  20.059  0.00  0.00    +0.000 S 
ATOM     24  C   UNL     1      49.103   5.214  18.969  0.00  0.00    +0.000 A 
ATOM     25  N   UNL     1      48.974   3.910  19.330  0.00  0.00    +0.000 NA
ATOM     26  C   UNL     1      48.460   3.154  18.414  0.00  0.00    +0.000 A 
ATOM     27  N   UNL     1      48.084   3.579  17.169  0.00  0.00    +0.000 N 
ATOM     28  C   UNL     1      48.286   4.864  16.734  0.00  0.00    +0.000 A 
ATOM     29  O   UNL     1      48.101   5.166  15.554  0.00  0.00    +0.000 OA
ATOM     30  C   UNL     1      48.782   5.775  17.746  0.00  0.00    +0.000 A 
ATOM     31  H   UNL     1      47.733   2.928  16.482  0.00  0.00    +0.000 HD
ENDBRANCH  18  21
ENDBRANCH   1  19
TORSDOF 6
ENDMDL
