MODEL 1
REMARK VINA RESULT:    -7.632      0.000      0.000
REMARK INTER + INTRA:         -11.447
REMARK INTER:                 -10.309
REMARK INTRA:                  -1.138
REMARK UNBOUND:                -1.138
REMARK  Name = 
REMARK  6 active torsions:
REMARK  status: ('A' for Active; 'I' for Inactive)
REMARK    1  A    between atoms: C_2  and  C_4
REMARK    2  A    between atoms: C_6  and  C_7
REMARK    3  A    between atoms: C_7  and  O_8
REMARK    4  A    between atoms: O_8  and  C_9
REMARK    5  A    between atoms: C_14  and  N_15
REMARK    6  A    between atoms: C_23  and  C_24
REMARK                            x       y       z     vdW  Elec       q    Type
REMARK                         _______ _______ _______ _____ _____    ______ ____
ROOT
ATOM      1  C   UNL     1      47.091   5.278  14.041  0.00  0.00    +0.000 A 
ATOM      2  C   UNL     1      45.810   5.475  13.516  0.00  0.00    +0.000 A 
ATOM      3  C   UNL     1      45.598   6.419  12.503  0.00  0.00    +0.000 A 
ATOM      4  C   UNL     1      46.677   7.192  12.049  0.00  0.00    +0.000 A 
ATOM      5  C   UNL     1      47.963   7.023  12.582  0.00  0.00    +0.000 A 
ATOM      6  C   UNL     1      48.161   6.053  13.577  0.00  0.00    +0.000 A 
ENDROOT
BRANCH   1   8
ATOM      7  N   UNL     1      47.227   4.720  16.419  0.00  0.00    +0.000 N 
ATOM      8  C   UNL     1      47.352   4.292  15.125  0.00  0.00    +0.000 C 
ATOM      9  O   UNL     1      47.645   3.133  14.873  0.00  0.00    +0.000 OA
ATOM     10  H   UNL     1      47.334   4.020  17.138  0.00  0.00    +0.000 HD
ATOM     11  H   UNL     1      46.783   5.591  16.672  0.00  0.00    +0.000 HD
ENDBRANCH   1   8
BRANCH   5  12
ATOM     12  C   UNL     1      49.115   7.875  12.110  0.00  0.00    +0.000 C 
ATOM     13  F   UNL     1      49.841   7.295  11.112  0.00  0.00    +0.000 F 
ATOM     14  F   UNL     1      48.708   9.077  11.619  0.00  0.00    +0.000 F 
ATOM     15  F   UNL     1      50.004   8.150  13.103  0.00  0.00    +0.000 F 
ENDBRANCH   5  12
BRANCH   3  16
ATOM     16  C   UNL     1      44.217   6.677  11.951  0.00  0.00    +0.000 C 
BRANCH  16  17
ATOM     17  O   UNL     1      44.174   6.353  10.559  0.00  0.00    +0.000 OA
BRANCH  17  18
ATOM     18  C   UNL     1      44.259   5.015  10.277  0.00  0.00    +0.000 A 
ATOM     19  C   UNL     1      43.561   4.175  11.136  0.00  0.00    +0.000 A 
ATOM     20  C   UNL     1      43.634   2.806  10.942  0.00  0.00    +0.000 A 
ATOM     21  F   UNL     1      42.997   1.985  11.788  0.00  0.00    +0.000 F 
ATOM     22  C   UNL     1      44.371   2.264   9.893  0.00  0.00    +0.000 A 
ATOM     23  C   UNL     1      45.055   3.086   8.990  0.00  0.00    +0.000 A 
ATOM     24  C   UNL     1      44.978   4.470   9.205  0.00  0.00    +0.000 A 
BRANCH  23  25
ATOM     25  N   UNL     1      45.780   2.567   7.943  0.00  0.00    +0.000 N 
ATOM     26  C   UNL     1      45.950   1.123   7.738  0.00  0.00    +0.000 C 
ATOM     27  C   UNL     1      47.443   0.807   7.593  0.00  0.00    +0.000 C 
ATOM     28  O   UNL     1      48.036   1.571   6.527  0.00  0.00    +0.000 OA
ATOM     29  C   UNL     1      47.897   2.981   6.779  0.00  0.00    +0.000 C 
ATOM     30  C   UNL     1      46.420   3.398   6.913  0.00  0.00    +0.000 C 
ENDBRANCH  23  25
ENDBRANCH  17  18
ENDBRANCH  16  17
ENDBRANCH   3  16
TORSDOF 6
ENDMDL
MODEL 2
REMARK VINA RESULT:    -7.100      3.610      5.770
REMARK INTER + INTRA:         -10.728
REMARK INTER:                  -9.596
REMARK INTRA:                  -1.132
REMARK UNBOUND:                -1.138
REMARK  Name = 
REMARK  6 active torsions:
REMARK  status: ('A' for Active; 'I' for Inactive)
REMARK    1  A    between atoms: C_2  and  C_4
REMARK    2  A    between atoms: C_6  and  C_7
REMARK    3  A    between atoms: C_7  and  O_8
REMARK    4  A    between atoms: O_8  and  C_9
REMARK    5  A    between atoms: C_14  and  N_15
REMARK    6  A    between atoms: C_23  and  C_24
REMARK                            x       y       z     vdW  Elec       q    Type
REMARK                         _______ _______ _______ _____ _____    ______ ____
ROOT
ATOM      1  C   UNL     1      47.967   5.005  17.646  0.00  0.00    +0.000 A 
ATOM      2  C   UNL     1      48.442   5.366  16.381  0.00  0.00    +0.000 A 
ATOM      3  C   UNL     1      48.790   6.695  16.108  0.00  0.00    +0.000 A 
ATOM      4  C   UNL     1      48.619   7.667  17.106  0.00  0.00    +0.000 A 
ATOM      5  C   UNL     1      48.122   7.326  18.371  0.00  0.00    +0.000 A 
ATOM      6  C   UNL     1      47.804   5.984  18.634  0.00  0.00    +0.000 A 
ENDROOT
BRANCH   1   8
ATOM      7  N   UNL     1      48.284   2.955  18.943  0.00  0.00    +0.000 N 
ATOM      8  C   UNL     1      47.577   3.606  17.968  0.00  0.00    +0.000 C 
ATOM      9  O   UNL     1      46.644   3.058  17.400  0.00  0.00    +0.000 OA
ATOM     10  H   UNL     1      47.958   2.035  19.200  0.00  0.00    +0.000 HD
ATOM     11  H   UNL     1      48.908   3.429  19.581  0.00  0.00    +0.000 HD
ENDBRANCH   1   8
BRANCH   5  12
ATOM     12  C   UNL     1      47.914   8.378  19.432  0.00  0.00    +0.000 C 
ATOM     13  F   UNL     1      47.537   7.862  20.636  0.00  0.00    +0.000 F 
ATOM     14  F   UNL     1      49.041   9.101  19.677  0.00  0.00    +0.000 F 
ATOM     15  F   UNL     1      46.950   9.278  19.096  0.00  0.00    +0.000 F 
ENDBRANCH   5  12
BRANCH   3  16
ATOM     16  C   UNL     1      49.266   7.113  14.739  0.00  0.00    +0.000 C 
BRANCH  16  17
ATOM     17  O   UNL     1      48.754   6.222  13.745  0.00  0.00    +0.000 OA
BRANCH  17  18
ATOM     18  C   UNL     1      47.536   6.574  13.229  0.00  0.00    +0.000 A 
ATOM     19  C   UNL     1      47.294   7.939  13.140  0.00  0.00    +0.000 A 
ATOM     20  C   UNL     1      46.067   8.375  12.669  0.00  0.00    +0.000 A 
ATOM     21  F   UNL     1      45.809   9.689  12.616  0.00  0.00    +0.000 F 
ATOM     22  C   UNL     1      45.088   7.472  12.263  0.00  0.00    +0.000 A 
ATOM     23  C   UNL     1      45.316   6.092  12.306  0.00  0.00    +0.000 A 
ATOM     24  C   UNL     1      46.561   5.667  12.794  0.00  0.00    +0.000 A 
BRANCH  23  25
ATOM     25  N   UNL     1      44.364   5.186  11.900  0.00  0.00    +0.000 N 
ATOM     26  C   UNL     1      43.519   4.450  12.850  0.00  0.00    +0.000 C 
ATOM     27  C   UNL     1      43.608   2.950  12.544  0.00  0.00    +0.000 C 
ATOM     28  O   UNL     1      43.242   2.675  11.179  0.00  0.00    +0.000 OA
ATOM     29  C   UNL     1      44.117   3.371  10.273  0.00  0.00    +0.000 C 
ATOM     30  C   UNL     1      44.073   4.895  10.489  0.00  0.00    +0.000 C 
ENDBRANCH  23  25
ENDBRANCH  17  18
ENDBRANCH  16  17
ENDBRANCH   3  16
TORSDOF 6
ENDMDL
MODEL 3
REMARK VINA RESULT:    -7.024      4.072      6.363
REMARK INTER + INTRA:         -10.625
REMARK INTER:                  -9.582
REMARK INTRA:                  -1.043
REMARK UNBOUND:                -1.138
REMARK  Name = 
REMARK  6 active torsions:
REMARK  status: ('A' for Active; 'I' for Inactive)
REMARK    1  A    between atoms: C_2  and  C_4
REMARK    2  A    between atoms: C_6  and  C_7
REMARK    3  A    between atoms: C_7  and  O_8
REMARK    4  A    between atoms: O_8  and  C_9
REMARK    5  A    between atoms: C_14  and  N_15
REMARK    6  A    between atoms: C_23  and  C_24
REMARK                            x       y       z     vdW  Elec       q    Type
REMARK                         _______ _______ _______ _____ _____    ______ ____
ROOT
ATOM      1  C   UNL     1      49.469   3.687  17.446  0.00  0.00    +0.000 A 
ATOM      2  C   UNL     1      49.383   4.735  16.524  0.00  0.00    +0.000 A 
ATOM      3  C   UNL     1      48.991   6.014  16.940  0.00  0.00    +0.000 A 
ATOM      4  C   UNL     1      48.647   6.222  18.284  0.00  0.00    +0.000 A 
ATOM      5  C   UNL     1      48.705   5.177  19.216  0.00  0.00    +0.000 A 
ATOM      6  C   UNL     1      49.126   3.909  18.786  0.00  0.00    +0.000 A 
ENDROOT
BRANCH   1   8
ATOM      7  N   UNL     1      50.837   1.686  17.779  0.00  0.00    +0.000 N 
ATOM      8  C   UNL     1      49.871   2.314  17.038  0.00  0.00    +0.000 C 
ATOM      9  O   UNL     1      49.344   1.752  16.090  0.00  0.00    +0.000 OA
ATOM     10  H   UNL     1      51.042   0.729  17.533  0.00  0.00    +0.000 HD
ATOM     11  H   UNL     1      51.139   2.017  18.684  0.00  0.00    +0.000 HD
ENDBRANCH   1   8
BRANCH   5  12
ATOM     12  C   UNL     1      48.308   5.399  20.655  0.00  0.00    +0.000 C 
ATOM     13  F   UNL     1      48.446   4.285  21.430  0.00  0.00    +0.000 F 
ATOM     14  F   UNL     1      49.055   6.362  21.259  0.00  0.00    +0.000 F 
ATOM     15  F   UNL     1      47.010   5.784  20.787  0.00  0.00    +0.000 F 
ENDBRANCH   5  12
BRANCH   3  16
ATOM     16  C   UNL     1      48.852   7.148  15.954  0.00  0.00    +0.000 C 
BRANCH  16  17
ATOM     17  O   UNL     1      49.011   6.663  14.619  0.00  0.00    +0.000 OA
BRANCH  17  18
ATOM     18  C   UNL     1      47.895   6.766  13.833  0.00  0.00    +0.000 A 
ATOM     19  C   UNL     1      47.380   8.048  13.686  0.00  0.00    +0.000 A 
ATOM     20  C   UNL     1      46.226   8.227  12.941  0.00  0.00    +0.000 A 
ATOM     21  F   UNL     1      45.699   9.454  12.825  0.00  0.00    +0.000 F 
ATOM     22  C   UNL     1      45.593   7.152  12.323  0.00  0.00    +0.000 A 
ATOM     23  C   UNL     1      46.107   5.855  12.423  0.00  0.00    +0.000 A 
ATOM     24  C   UNL     1      47.272   5.690  13.188  0.00  0.00    +0.000 A 
BRANCH  23  25
ATOM     25  N   UNL     1      45.499   4.784  11.811  0.00  0.00    +0.000 N 
ATOM     26  C   UNL     1      45.114   4.798  10.394  0.00  0.00    +0.000 C 
ATOM     27  C   UNL     1      43.638   4.401  10.270  0.00  0.00    +0.000 C 
ATOM     28  O   UNL     1      43.391   3.120  10.878  0.00  0.00    +0.000 OA
ATOM     29  C   UNL     1      43.733   3.150  12.276  0.00  0.00    +0.000 C 
ATOM     30  C   UNL     1      45.213   3.516  12.497  0.00  0.00    +0.000 C 
ENDBRANCH  23  25
ENDBRANCH  17  18
ENDBRANCH  16  17
ENDBRANCH   3  16
TORSDOF 6
ENDMDL
MODEL 4
REMARK VINA RESULT:    -6.921      4.452      8.734
REMARK INTER + INTRA:         -10.486
REMARK INTER:                  -9.457
REMARK INTRA:                  -1.029
REMARK UNBOUND:                -1.138
REMARK  Name = 
REMARK  6 active torsions:
REMARK  status: ('A' for Active; 'I' for Inactive)
REMARK    1  A    between atoms: C_2  and  C_4
REMARK    2  A    between atoms: C_6  and  C_7
REMARK    3  A    between atoms: C_7  and  O_8
REMARK    4  A    between atoms: O_8  and  C_9
REMARK    5  A    between atoms: C_14  and  N_15
REMARK    6  A    between atoms: C_23  and  C_24
REMARK                            x       y       z     vdW  Elec       q    Type
REMARK                         _______ _______ _______ _____ _____    ______ ____
ROOT
ATOM      1  C   UNL     1      45.821   6.873  12.799  0.00  0.00    +0.000 A 
ATOM      2  C   UNL     1      46.621   5.944  13.471  0.00  0.00    +0.000 A 
ATOM      3  C   UNL     1      46.343   4.574  13.380  0.00  0.00    +0.000 A 
ATOM      4  C   UNL     1      45.230   4.148  12.639  0.00  0.00    +0.000 A 
ATOM      5  C   UNL     1      44.404   5.069  11.979  0.00  0.00    +0.000 A 
ATOM      6  C   UNL     1      44.715   6.435  12.060  0.00  0.00    +0.000 A 
ENDROOT
BRANCH   1   8
ATOM      7  N   UNL     1      46.689   8.813  14.011  0.00  0.00    +0.000 N 
ATOM      8  C   UNL     1      46.079   8.336  12.882  0.00  0.00    +0.000 C 
ATOM      9  O   UNL     1      45.781   9.088  11.966  0.00  0.00    +0.000 OA
ATOM     10  H   UNL     1      46.924   9.795  14.017  0.00  0.00    +0.000 HD
ATOM     11  H   UNL     1      47.144   8.215  14.686  0.00  0.00    +0.000 HD
ENDBRANCH   1   8
BRANCH   5  12
ATOM     12  C   UNL     1      43.193   4.609  11.206  0.00  0.00    +0.000 C 
ATOM     13  F   UNL     1      42.076   5.347  11.465  0.00  0.00    +0.000 F 
ATOM     14  F   UNL     1      43.376   4.679   9.859  0.00  0.00    +0.000 F 
ATOM     15  F   UNL     1      42.856   3.319  11.479  0.00  0.00    +0.000 F 
ENDBRANCH   5  12
BRANCH   3  16
ATOM     16  C   UNL     1      47.168   3.557  14.129  0.00  0.00    +0.000 C 
BRANCH  16  17
ATOM     17  O   UNL     1      46.810   3.556  15.514  0.00  0.00    +0.000 OA
BRANCH  17  18
ATOM     18  C   UNL     1      47.856   3.735  16.379  0.00  0.00    +0.000 A 
ATOM     19  C   UNL     1      48.690   2.636  16.548  0.00  0.00    +0.000 A 
ATOM     20  C   UNL     1      49.745   2.724  17.440  0.00  0.00    +0.000 A 
ATOM     21  F   UNL     1      50.531   1.657  17.640  0.00  0.00    +0.000 F 
ATOM     22  C   UNL     1      49.996   3.897  18.147  0.00  0.00    +0.000 A 
ATOM     23  C   UNL     1      49.197   5.032  17.971  0.00  0.00    +0.000 A 
ATOM     24  C   UNL     1      48.126   4.923  17.070  0.00  0.00    +0.000 A 
BRANCH  23  25
ATOM     25  N   UNL     1      49.436   6.201  18.654  0.00  0.00    +0.000 N 
ATOM     26  C   UNL     1      50.168   6.237  19.927  0.00  0.00    +0.000 C 
ATOM     27  C   UNL     1      49.334   6.996  20.966  0.00  0.00    +0.000 C 
ATOM     28  O   UNL     1      49.004   8.318  20.502  0.00  0.00    +0.000 OA
ATOM     29  C   UNL     1      48.246   8.249  19.281  0.00  0.00    +0.000 C 
ATOM     30  C   UNL     1      49.020   7.523  18.165  0.00  0.00    +0.000 C 
ENDBRANCH  23  25
ENDBRANCH  17  18
ENDBRANCH  16  17
ENDBRANCH   3  16
TORSDOF 6
ENDMDL
MODEL 5
REMARK VINA RESULT:    -6.913      3.843      8.641
REMARK INTER + INTRA:         -10.476
REMARK INTER:                  -9.573
REMARK INTRA:                  -0.903
REMARK UNBOUND:                -1.138
REMARK  Name = 
REMARK  6 active torsions:
REMARK  status: ('A' for Active; 'I' for Inactive)
REMARK    1  A    between atoms: C_2  and  C_4
REMARK    2  A    between atoms: C_6  and  C_7
REMARK    3  A    between atoms: C_7  and  O_8
REMARK    4  A    between atoms: O_8  and  C_9
REMARK    5  A    between atoms: C_14  and  N_15
REMARK    6  A    between atoms: C_23  and  C_24
REMARK                            x       y       z     vdW  Elec       q    Type
REMARK                         _______ _______ _______ _____ _____    ______ ____
ROOT
ATOM      1  C   UNL     1      44.932   4.495  11.316  0.00  0.00    +0.000 A 
ATOM      2  C   UNL     1      45.575   3.730  12.295  0.00  0.00    +0.000 A 
ATOM      3  C   UNL     1      46.324   4.354  13.302  0.00  0.00    +0.000 A 
ATOM      4  C   UNL     1      46.453   5.751  13.293  0.00  0.00    +0.000 A 
ATOM      5  C   UNL     1      45.834   6.530  12.305  0.00  0.00    +0.000 A 
ATOM      6  C   UNL     1      45.066   5.889  11.321  0.00  0.00    +0.000 A 
ENDROOT
BRANCH   1   8
ATOM      7  N   UNL     1      44.011   4.557   9.050  0.00  0.00    +0.000 N 
ATOM      8  C   UNL     1      44.138   3.866  10.226  0.00  0.00    +0.000 C 
ATOM      9  O   UNL     1      43.633   2.762  10.362  0.00  0.00    +0.000 OA
ATOM     10  H   UNL     1      43.533   4.082   8.298  0.00  0.00    +0.000 HD
ATOM     11  H   UNL     1      44.580   5.358   8.817  0.00  0.00    +0.000 HD
ENDBRANCH   1   8
BRANCH   5  12
ATOM     12  C   UNL     1      45.999   8.030  12.285  0.00  0.00    +0.000 C 
ATOM     13  F   UNL     1      45.882   8.601  13.517  0.00  0.00    +0.000 F 
ATOM     14  F   UNL     1      47.216   8.415  11.814  0.00  0.00    +0.000 F 
ATOM     15  F   UNL     1      45.074   8.648  11.501  0.00  0.00    +0.000 F 
ENDBRANCH   5  12
BRANCH   3  16
ATOM     16  C   UNL     1      47.059   3.547  14.343  0.00  0.00    +0.000 C 
BRANCH  16  17
ATOM     17  O   UNL     1      46.623   3.918  15.653  0.00  0.00    +0.000 OA
BRANCH  17  18
ATOM     18  C   UNL     1      47.597   3.886  16.615  0.00  0.00    +0.000 A 
ATOM     19  C   UNL     1      48.523   2.856  16.496  0.00  0.00    +0.000 A 
ATOM     20  C   UNL     1      49.514   2.731  17.456  0.00  0.00    +0.000 A 
ATOM     21  F   UNL     1      50.388   1.718  17.372  0.00  0.00    +0.000 F 
ATOM     22  C   UNL     1      49.609   3.627  18.516  0.00  0.00    +0.000 A 
ATOM     23  C   UNL     1      48.713   4.695  18.642  0.00  0.00    +0.000 A 
ATOM     24  C   UNL     1      47.711   4.803  17.667  0.00  0.00    +0.000 A 
BRANCH  23  25
ATOM     25  N   UNL     1      48.799   5.595  19.678  0.00  0.00    +0.000 N 
ATOM     26  C   UNL     1      48.278   5.306  21.021  0.00  0.00    +0.000 C 
ATOM     27  C   UNL     1      47.349   6.445  21.456  0.00  0.00    +0.000 C 
ATOM     28  O   UNL     1      48.026   7.715  21.408  0.00  0.00    +0.000 OA
ATOM     29  C   UNL     1      48.482   7.993  20.072  0.00  0.00    +0.000 C 
ATOM     30  C   UNL     1      49.447   6.908  19.557  0.00  0.00    +0.000 C 
ENDBRANCH  23  25
ENDBRANCH  17  18
ENDBRANCH  16  17
ENDBRANCH   3  16
TORSDOF 6
ENDMDL
MODEL 6
REMARK VINA RESULT:    -6.881      3.600      5.773
REMARK INTER + INTRA:         -10.433
REMARK INTER:                  -9.340
REMARK INTRA:                  -1.093
REMARK UNBOUND:                -1.138
REMARK  Name = 
REMARK  6 active torsions:
REMARK  status: ('A' for Active; 'I' for Inactive)
REMARK    1  A    between atoms: C_2  and  C_4
REMARK    2  A    between atoms: C_6  and  C_7
REMARK    3  A    between atoms: C_7  and  O_8
REMARK    4  A    between atoms: O_8  and  C_9
REMARK    5  A    between atoms: C_14  and  N_15
REMARK    6  A    between atoms: C_23  and  C_24
REMARK                            x       y       z     vdW  Elec       q    Type
REMARK                         _______ _______ _______ _____ _____    ______ ____
ROOT
ATOM      1  C   UNL     1      48.818   4.336  17.488  0.00  0.00    +0.000 A 
ATOM      2  C   UNL     1      48.436   5.435  16.713  0.00  0.00    +0.000 A 
ATOM      3  C   UNL     1      49.400   6.329  16.228  0.00  0.00    +0.000 A 
ATOM      4  C   UNL     1      50.748   6.129  16.561  0.00  0.00    +0.000 A 
ATOM      5  C   UNL     1      51.145   5.045  17.356  0.00  0.00    +0.000 A 
ATOM      6  C   UNL     1      50.168   4.146  17.810  0.00  0.00    +0.000 A 
ENDROOT
BRANCH   1   8
ATOM      7  N   UNL     1      48.087   2.794  19.241  0.00  0.00    +0.000 N 
ATOM      8  C   UNL     1      47.821   3.373  18.029  0.00  0.00    +0.000 C 
ATOM      9  O   UNL     1      46.788   3.121  17.428  0.00  0.00    +0.000 OA
ATOM     10  H   UNL     1      47.365   2.202  19.626  0.00  0.00    +0.000 HD
ATOM     11  H   UNL     1      48.806   3.128  19.866  0.00  0.00    +0.000 HD
ENDBRANCH   1   8
BRANCH   5  12
ATOM     12  C   UNL     1      52.592   4.850  17.734  0.00  0.00    +0.000 C 
ATOM     13  F   UNL     1      53.443   5.664  17.047  0.00  0.00    +0.000 F 
ATOM     14  F   UNL     1      52.826   5.102  19.051  0.00  0.00    +0.000 F 
ATOM     15  F   UNL     1      53.027   3.581  17.506  0.00  0.00    +0.000 F 
ENDBRANCH   5  12
BRANCH   3  16
ATOM     16  C   UNL     1      49.006   7.544  15.425  0.00  0.00    +0.000 C 
BRANCH  16  17
ATOM     17  O   UNL     1      49.010   7.235  14.029  0.00  0.00    +0.000 OA
BRANCH  17  18
ATOM     18  C   UNL     1      47.771   7.159  13.452  0.00  0.00    +0.000 A 
ATOM     19  C   UNL     1      47.026   8.332  13.476  0.00  0.00    +0.000 A 
ATOM     20  C   UNL     1      45.744   8.323  12.951  0.00  0.00    +0.000 A 
ATOM     21  F   UNL     1      45.002   9.439  13.005  0.00  0.00    +0.000 F 
ATOM     22  C   UNL     1      45.204   7.173  12.384  0.00  0.00    +0.000 A 
ATOM     23  C   UNL     1      45.943   5.987  12.313  0.00  0.00    +0.000 A 
ATOM     24  C   UNL     1      47.236   6.009  12.856  0.00  0.00    +0.000 A 
BRANCH  23  25
ATOM     25  N   UNL     1      45.429   4.844  11.747  0.00  0.00    +0.000 N 
ATOM     26  C   UNL     1      45.045   4.766  10.331  0.00  0.00    +0.000 C 
ATOM     27  C   UNL     1      43.608   4.241  10.227  0.00  0.00    +0.000 C 
ATOM     28  O   UNL     1      43.470   2.970  10.889  0.00  0.00    +0.000 OA
ATOM     29  C   UNL     1      43.806   3.088  12.283  0.00  0.00    +0.000 C 
ATOM     30  C   UNL     1      45.249   3.586  12.486  0.00  0.00    +0.000 C 
ENDBRANCH  23  25
ENDBRANCH  17  18
ENDBRANCH  16  17
ENDBRANCH   3  16
TORSDOF 6
ENDMDL
MODEL 7
REMARK VINA RESULT:    -6.870      3.980      6.363
REMARK INTER + INTRA:         -10.417
REMARK INTER:                  -9.275
REMARK INTRA:                  -1.142
REMARK UNBOUND:                -1.138
REMARK  Name = 
REMARK  6 active torsions:
REMARK  status: ('A' for Active; 'I' for Inactive)
REMARK    1  A    between atoms: C_2  and  C_4
REMARK    2  A    between atoms: C_6  and  C_7
REMARK    3  A    between atoms: C_7  and  O_8
REMARK    4  A    between atoms: O_8  and  C_9
REMARK    5  A    between atoms: C_14  and  N_15
REMARK    6  A    between atoms: C_23  and  C_24
REMARK                            x       y       z     vdW  Elec       q    Type
REMARK                         _______ _______ _______ _____ _____    ______ ____
ROOT
ATOM      1  C   UNL     1      48.049   6.820  18.808  0.00  0.00    +0.000 A 
ATOM      2  C   UNL     1      48.596   7.425  17.672  0.00  0.00    +0.000 A 
ATOM      3  C   UNL     1      48.912   6.656  16.543  0.00  0.00    +0.000 A 
ATOM      4  C   UNL     1      48.711   5.268  16.581  0.00  0.00    +0.000 A 
ATOM      5  C   UNL     1      48.186   4.643  17.722  0.00  0.00    +0.000 A 
ATOM      6  C   UNL     1      47.850   5.434  18.832  0.00  0.00    +0.000 A 
ENDROOT
BRANCH   1   8
ATOM      7  N   UNL     1      47.441   6.907  21.176  0.00  0.00    +0.000 N 
ATOM      8  C   UNL     1      47.711   7.602  20.028  0.00  0.00    +0.000 C 
ATOM      9  O   UNL     1      47.697   8.824  20.016  0.00  0.00    +0.000 OA
ATOM     10  H   UNL     1      47.288   7.456  22.010  0.00  0.00    +0.000 HD
ATOM     11  H   UNL     1      47.651   5.926  21.289  0.00  0.00    +0.000 HD
ENDBRANCH   1   8
BRANCH   5  12
ATOM     12  C   UNL     1      47.998   3.147  17.768  0.00  0.00    +0.000 C 
ATOM     13  F   UNL     1      46.706   2.761  17.566  0.00  0.00    +0.000 F 
ATOM     14  F   UNL     1      48.728   2.500  16.819  0.00  0.00    +0.000 F 
ATOM     15  F   UNL     1      48.364   2.609  18.962  0.00  0.00    +0.000 F 
ENDBRANCH   5  12
BRANCH   3  16
ATOM     16  C   UNL     1      49.540   7.282  15.322  0.00  0.00    +0.000 C 
BRANCH  16  17
ATOM     17  O   UNL     1      49.242   6.503  14.161  0.00  0.00    +0.000 OA
BRANCH  17  18
ATOM     18  C   UNL     1      48.003   6.725  13.621  0.00  0.00    +0.000 A 
ATOM     19  C   UNL     1      47.721   8.044  13.290  0.00  0.00    +0.000 A 
ATOM     20  C   UNL     1      46.471   8.356  12.780  0.00  0.00    +0.000 A 
ATOM     21  F   UNL     1      46.174   9.631  12.494  0.00  0.00    +0.000 F 
ATOM     22  C   UNL     1      45.510   7.370  12.573  0.00  0.00    +0.000 A 
ATOM     23  C   UNL     1      45.778   6.028  12.863  0.00  0.00    +0.000 A 
ATOM     24  C   UNL     1      47.045   5.730  13.387  0.00  0.00    +0.000 A 
BRANCH  23  25
ATOM     25  N   UNL     1      44.844   5.040  12.656  0.00  0.00    +0.000 N 
ATOM     26  C   UNL     1      45.207   3.693  12.196  0.00  0.00    +0.000 C 
ATOM     27  C   UNL     1      44.359   3.336  10.969  0.00  0.00    +0.000 C 
ATOM     28  O   UNL     1      42.953   3.440  11.260  0.00  0.00    +0.000 OA
ATOM     29  C   UNL     1      42.619   4.781  11.662  0.00  0.00    +0.000 C 
ATOM     30  C   UNL     1      43.407   5.219  12.911  0.00  0.00    +0.000 C 
ENDBRANCH  23  25
ENDBRANCH  17  18
ENDBRANCH  16  17
ENDBRANCH   3  16
TORSDOF 6
ENDMDL
MODEL 8
REMARK VINA RESULT:    -6.858      3.776      7.843
REMARK INTER + INTRA:         -10.402
REMARK INTER:                  -9.497
REMARK INTRA:                  -0.904
REMARK UNBOUND:                -1.138
REMARK  Name = 
REMARK  6 active torsions:
REMARK  status: ('A' for Active; 'I' for Inactive)
REMARK    1  A    between atoms: C_2  and  C_4
REMARK    2  A    between atoms: C_6  and  C_7
REMARK    3  A    between atoms: C_7  and  O_8
REMARK    4  A    between atoms: O_8  and  C_9
REMARK    5  A    between atoms: C_14  and  N_15
REMARK    6  A    between atoms: C_23  and  C_24
REMARK                            x       y       z     vdW  Elec       q    Type
REMARK                         _______ _______ _______ _____ _____    ______ ____
ROOT
ATOM      1  C   UNL     1      44.950   4.484  11.426  0.00  0.00    +0.000 A 
ATOM      2  C   UNL     1      45.585   3.732  12.419  0.00  0.00    +0.000 A 
ATOM      3  C   UNL     1      46.366   4.364  13.395  0.00  0.00    +0.000 A 
ATOM      4  C   UNL     1      46.537   5.756  13.341  0.00  0.00    +0.000 A 
ATOM      5  C   UNL     1      45.926   6.522  12.337  0.00  0.00    +0.000 A 
ATOM      6  C   UNL     1      45.125   5.873  11.385  0.00  0.00    +0.000 A 
ENDROOT
BRANCH   1   8
ATOM      7  N   UNL     1      43.973   4.517   9.183  0.00  0.00    +0.000 N 
ATOM      8  C   UNL     1      44.122   3.846  10.367  0.00  0.00    +0.000 C 
ATOM      9  O   UNL     1      43.609   2.749  10.535  0.00  0.00    +0.000 OA
ATOM     10  H   UNL     1      43.472   4.035   8.451  0.00  0.00    +0.000 HD
ATOM     11  H   UNL     1      44.545   5.307   8.921  0.00  0.00    +0.000 HD
ENDBRANCH   1   8
BRANCH   5  12
ATOM     12  C   UNL     1      46.134   8.014  12.267  0.00  0.00    +0.000 C 
ATOM     13  F   UNL     1      47.365   8.365  11.797  0.00  0.00    +0.000 F 
ATOM     14  F   UNL     1      45.238   8.628  11.448  0.00  0.00    +0.000 F 
ATOM     15  F   UNL     1      46.016   8.617  13.481  0.00  0.00    +0.000 F 
ENDBRANCH   5  12
BRANCH   3  16
ATOM     16  C   UNL     1      47.093   3.569  14.451  0.00  0.00    +0.000 C 
BRANCH  16  17
ATOM     17  O   UNL     1      46.609   3.917  15.751  0.00  0.00    +0.000 OA
BRANCH  17  18
ATOM     18  C   UNL     1      47.571   3.988  16.723  0.00  0.00    +0.000 A 
ATOM     19  C   UNL     1      47.216   4.691  17.868  0.00  0.00    +0.000 A 
ATOM     20  C   UNL     1      48.151   4.845  18.878  0.00  0.00    +0.000 A 
ATOM     21  F   UNL     1      47.832   5.554  19.970  0.00  0.00    +0.000 F 
ATOM     22  C   UNL     1      49.423   4.289  18.775  0.00  0.00    +0.000 A 
ATOM     23  C   UNL     1      49.798   3.546  17.650  0.00  0.00    +0.000 A 
ATOM     24  C   UNL     1      48.842   3.407  16.632  0.00  0.00    +0.000 A 
BRANCH  23  25
ATOM     25  N   UNL     1      51.047   2.983  17.535  0.00  0.00    +0.000 N 
ATOM     26  C   UNL     1      51.258   1.632  16.996  0.00  0.00    +0.000 C 
ATOM     27  C   UNL     1      52.103   0.822  17.987  0.00  0.00    +0.000 C 
ATOM     28  O   UNL     1      53.349   1.485  18.272  0.00  0.00    +0.000 OA
ATOM     29  C   UNL     1      53.110   2.784  18.842  0.00  0.00    +0.000 C 
ATOM     30  C   UNL     1      52.286   3.683  17.901  0.00  0.00    +0.000 C 
ENDBRANCH  23  25
ENDBRANCH  17  18
ENDBRANCH  16  17
ENDBRANCH   3  16
TORSDOF 6
ENDMDL
MODEL 9
REMARK VINA RESULT:    -6.762      3.490      6.817
REMARK INTER + INTRA:         -10.271
REMARK INTER:                  -9.156
REMARK INTRA:                  -1.115
REMARK UNBOUND:                -1.138
REMARK  Name = 
REMARK  6 active torsions:
REMARK  status: ('A' for Active; 'I' for Inactive)
REMARK    1  A    between atoms: C_2  and  C_4
REMARK    2  A    between atoms: C_6  and  C_7
REMARK    3  A    between atoms: C_7  and  O_8
REMARK    4  A    between atoms: O_8  and  C_9
REMARK    5  A    between atoms: C_14  and  N_15
REMARK    6  A    between atoms: C_23  and  C_24
REMARK                            x       y       z     vdW  Elec       q    Type
REMARK                         _______ _______ _______ _____ _____    ______ ____
ROOT
ATOM      1  C   UNL     1      46.155   4.708  13.301  0.00  0.00    +0.000 A 
ATOM      2  C   UNL     1      45.890   6.065  13.091  0.00  0.00    +0.000 A 
ATOM      3  C   UNL     1      45.142   6.476  11.979  0.00  0.00    +0.000 A 
ATOM      4  C   UNL     1      44.698   5.515  11.058  0.00  0.00    +0.000 A 
ATOM      5  C   UNL     1      44.976   4.153  11.242  0.00  0.00    +0.000 A 
ATOM      6  C   UNL     1      45.703   3.758  12.376  0.00  0.00    +0.000 A 
ENDROOT
BRANCH   1   8
ATOM      7  N   UNL     1      47.085   5.081  15.533  0.00  0.00    +0.000 N 
ATOM      8  C   UNL     1      46.954   4.236  14.464  0.00  0.00    +0.000 C 
ATOM      9  O   UNL     1      47.459   3.123  14.479  0.00  0.00    +0.000 OA
ATOM     10  H   UNL     1      47.567   4.715  16.341  0.00  0.00    +0.000 HD
ATOM     11  H   UNL     1      46.516   5.906  15.656  0.00  0.00    +0.000 HD
ENDBRANCH   1   8
BRANCH   5  12
ATOM     12  C   UNL     1      44.520   3.127  10.235  0.00  0.00    +0.000 C 
ATOM     13  F   UNL     1      43.587   2.264  10.731  0.00  0.00    +0.000 F 
ATOM     14  F   UNL     1      43.951   3.691   9.135  0.00  0.00    +0.000 F 
ATOM     15  F   UNL     1      45.539   2.349   9.780  0.00  0.00    +0.000 F 
ENDBRANCH   5  12
BRANCH   3  16
ATOM     16  C   UNL     1      44.879   7.937  11.711  0.00  0.00    +0.000 C 
BRANCH  16  17
ATOM     17  O   UNL     1      45.586   8.747  12.655  0.00  0.00    +0.000 OA
BRANCH  17  18
ATOM     18  C   UNL     1      46.606   9.491  12.124  0.00  0.00    +0.000 A 
ATOM     19  C   UNL     1      46.241  10.734  11.620  0.00  0.00    +0.000 A 
ATOM     20  C   UNL     1      47.209  11.527  11.027  0.00  0.00    +0.000 A 
ATOM     21  F   UNL     1      46.861  12.711  10.501  0.00  0.00    +0.000 F 
ATOM     22  C   UNL     1      48.535  11.112  10.951  0.00  0.00    +0.000 A 
ATOM     23  C   UNL     1      48.939   9.883  11.482  0.00  0.00    +0.000 A 
ATOM     24  C   UNL     1      47.946   9.087  12.072  0.00  0.00    +0.000 A 
BRANCH  23  25
ATOM     25  N   UNL     1      50.247   9.461  11.424  0.00  0.00    +0.000 N 
ATOM     26  C   UNL     1      51.350  10.357  11.050  0.00  0.00    +0.000 C 
ATOM     27  C   UNL     1      52.160   9.712   9.919  0.00  0.00    +0.000 C 
ATOM     28  O   UNL     1      52.637   8.408  10.300  0.00  0.00    +0.000 OA
ATOM     29  C   UNL     1      51.533   7.539  10.614  0.00  0.00    +0.000 C 
ATOM     30  C   UNL     1      50.673   8.096  11.764  0.00  0.00    +0.000 C 
ENDBRANCH  23  25
ENDBRANCH  17  18
ENDBRANCH  16  17
ENDBRANCH   3  16
TORSDOF 6
ENDMDL
