MODEL 1
REMARK VINA RESULT:    -8.065      0.000      0.000
REMARK INTER + INTRA:         -11.865
REMARK INTER:                 -11.366
REMARK INTRA:                  -0.499
REMARK UNBOUND:                -0.499
REMARK  Name = 
REMARK  9 active torsions:
REMARK  status: ('A' for Active; 'I' for Inactive)
REMARK    1  A    between atoms: C_1  and  C_2
REMARK    2  A    between atoms: C_2  and  C_3
REMARK    3  A    between atoms: C_2  and  O_4
REMARK    4  A    between atoms: O_4  and  C_5
REMARK    5  A    between atoms: C_10  and  C_11
REMARK    6  A    between atoms: C_11  and  C_12
REMARK    7  A    between atoms: C_12  and  N_13
REMARK    8  A    between atoms: C_17  and  C_18
REMARK    9  A    between atoms: C_23  and  C_24
REMARK                            x       y       z     vdW  Elec       q    Type
REMARK                         _______ _______ _______ _____ _____    ______ ____
ROOT
ATOM      1  C   UNL     1      47.630   5.746  13.955  0.00  0.00    +0.000 A 
ATOM      2  C   UNL     1      47.016   4.648  14.600  0.00  0.00    +0.000 A 
ATOM      3 CL   UNL     1      47.616   4.021  16.102  0.00  0.00    +0.000 Cl
ATOM      4  C   UNL     1      45.888   4.047  14.074  0.00  0.00    +0.000 A 
ATOM      5  C   UNL     1      45.318   4.551  12.914  0.00  0.00    +0.000 A 
ATOM      6  C   UNL     1      45.818   5.718  12.295  0.00  0.00    +0.000 A 
ATOM      7  C   UNL     1      47.000   6.349  12.816  0.00  0.00    +0.000 A 
ENDROOT
BRANCH   7   8
ATOM      8  C   UNL     1      47.544   7.612  12.222  0.00  0.00    +0.000 A 
ATOM      9  C   UNL     1      46.939   8.855  12.493  0.00  0.00    +0.000 A 
ATOM     10  C   UNL     1      47.632  10.058  12.291  0.00  0.00    +0.000 A 
ATOM     11  C   UNL     1      48.886  10.049  11.689  0.00  0.00    +0.000 A 
ATOM     12  C   UNL     1      49.431   8.847  11.263  0.00  0.00    +0.000 A 
ATOM     13  C   UNL     1      48.783   7.642  11.555  0.00  0.00    +0.000 A 
ENDBRANCH   7   8
BRANCH   1  14
ATOM     14  O   UNL     1      48.762   6.196  14.598  0.00  0.00    +0.000 OA
BRANCH  14  16
ATOM     15  C   UNL     1      48.866   7.059  16.799  0.00  0.00    +0.000 C 
ATOM     16  C   UNL     1      48.782   7.433  15.318  0.00  0.00    +0.000 C 
ATOM     17  C   UNL     1      49.960   8.318  14.940  0.00  0.00    +0.000 C 
ENDBRANCH  14  16
ENDBRANCH   1  14
BRANCH   6  18
ATOM     18  C   UNL     1      45.051   6.294  11.106  0.00  0.00    +0.000 C 
BRANCH  18  19
ATOM     19  C   UNL     1      43.873   5.518  10.494  0.00  0.00    +0.000 C 
BRANCH  19  20
ATOM     20  N   UNL     1      44.060   4.061  10.511  0.00  0.00    +0.000 N 
ATOM     21  C   UNL     1      44.890   3.622   9.462  0.00  0.00    +0.000 A 
ATOM     22  C   UNL     1      45.194   2.269   9.348  0.00  0.00    +0.000 A 
ATOM     23  C   UNL     1      46.037   1.840   8.317  0.00  0.00    +0.000 A 
ATOM     24  C   UNL     1      46.572   2.767   7.424  0.00  0.00    +0.000 A 
ATOM     25  C   UNL     1      46.238   4.093   7.625  0.00  0.00    +0.000 A 
ATOM     26  N   UNL     1      45.419   4.526   8.607  0.00  0.00    +0.000 NA
ATOM     27  H   UNL     1      43.183   3.545  10.495  0.00  0.00    +0.000 HD
BRANCH  24  28
ATOM     28  C   UNL     1      47.456   2.322   6.327  0.00  0.00    +0.000 C 
ATOM     29  N   UNL     1      47.471   3.030   5.157  0.00  0.00    +0.000 N 
ATOM     30  O   UNL     1      48.160   1.323   6.446  0.00  0.00    +0.000 OA
ATOM     31  H   UNL     1      46.909   3.838   4.936  0.00  0.00    +0.000 HD
ATOM     32  H   UNL     1      48.082   2.680   4.426  0.00  0.00    +0.000 HD
ENDBRANCH  24  28
ENDBRANCH  19  20
ENDBRANCH  18  19
ENDBRANCH   6  18
TORSDOF 7
ENDMDL
MODEL 2
REMARK VINA RESULT:    -7.430      3.306      5.967
REMARK INTER + INTRA:         -10.969
REMARK INTER:                  -9.208
REMARK INTRA:                  -1.762
REMARK UNBOUND:                -0.499
REMARK  Name = 
REMARK  9 active torsions:
REMARK  status: ('A' for Active; 'I' for Inactive)
REMARK    1  A    between atoms: C_1  and  C_2
REMARK    2  A    between atoms: C_2  and  C_3
REMARK    3  A    between atoms: C_2  and  O_4
REMARK    4  A    between atoms: O_4  and  C_5
REMARK    5  A    between atoms: C_10  and  C_11
REMARK    6  A    between atoms: C_11  and  C_12
REMARK    7  A    between atoms: C_12  and  N_13
REMARK    8  A    between atoms: C_17  and  C_18
REMARK    9  A    between atoms: C_23  and  C_24
REMARK                            x       y       z     vdW  Elec       q    Type
REMARK                         _______ _______ _______ _____ _____    ______ ____
ROOT
ATOM      1  C   UNL     1      48.830   7.432  18.731  0.00  0.00    +0.000 A 
ATOM      2  C   UNL     1      48.506   8.797  18.909  0.00  0.00    +0.000 A 
ATOM      3 CL   UNL     1      48.464   9.525  20.482  0.00  0.00    +0.000 Cl
ATOM      4  C   UNL     1      48.240   9.617  17.829  0.00  0.00    +0.000 A 
ATOM      5  C   UNL     1      48.330   9.110  16.542  0.00  0.00    +0.000 A 
ATOM      6  C   UNL     1      48.765   7.788  16.300  0.00  0.00    +0.000 A 
ATOM      7  C   UNL     1      49.032   6.913  17.409  0.00  0.00    +0.000 A 
ENDROOT
BRANCH   7   8
ATOM      8  C   UNL     1      49.536   5.517  17.205  0.00  0.00    +0.000 A 
ATOM      9  C   UNL     1      50.908   5.223  17.329  0.00  0.00    +0.000 A 
ATOM     10  C   UNL     1      51.351   3.908  17.537  0.00  0.00    +0.000 A 
ATOM     11  C   UNL     1      50.449   2.850  17.490  0.00  0.00    +0.000 A 
ATOM     12  C   UNL     1      49.114   3.103  17.205  0.00  0.00    +0.000 A 
ATOM     13  C   UNL     1      48.660   4.421  17.097  0.00  0.00    +0.000 A 
ENDBRANCH   7   8
BRANCH   1  14
ATOM     14  O   UNL     1      49.028   6.757  19.914  0.00  0.00    +0.000 OA
BRANCH  14  16
ATOM     15  C   UNL     1      48.817   4.562  20.773  0.00  0.00    +0.000 C 
ATOM     16  C   UNL     1      48.056   5.846  20.438  0.00  0.00    +0.000 C 
ATOM     17  C   UNL     1      47.360   6.376  21.683  0.00  0.00    +0.000 C 
ENDBRANCH  14  16
ENDBRANCH   1  14
BRANCH   6  18
ATOM     18  C   UNL     1      48.978   7.347  14.852  0.00  0.00    +0.000 C 
BRANCH  18  19
ATOM     19  C   UNL     1      47.771   7.032  13.953  0.00  0.00    +0.000 C 
BRANCH  19  20
ATOM     20  N   UNL     1      47.107   5.765  14.285  0.00  0.00    +0.000 N 
ATOM     21  C   UNL     1      46.390   5.241  13.192  0.00  0.00    +0.000 A 
ATOM     22  C   UNL     1      45.723   4.028  13.327  0.00  0.00    +0.000 A 
ATOM     23  C   UNL     1      45.029   3.501  12.233  0.00  0.00    +0.000 A 
ATOM     24  C   UNL     1      45.021   4.186  11.019  0.00  0.00    +0.000 A 
ATOM     25  C   UNL     1      45.728   5.372  10.965  0.00  0.00    +0.000 A 
ATOM     26  N   UNL     1      46.397   5.902  12.012  0.00  0.00    +0.000 NA
ATOM     27  H   UNL     1      46.497   5.834  15.097  0.00  0.00    +0.000 HD
BRANCH  24  28
ATOM     28  C   UNL     1      44.282   3.642   9.860  0.00  0.00    +0.000 C 
ATOM     29  N   UNL     1      43.923   4.485   8.845  0.00  0.00    +0.000 N 
ATOM     30  O   UNL     1      43.977   2.454   9.804  0.00  0.00    +0.000 OA
ATOM     31  H   UNL     1      44.086   5.480   8.804  0.00  0.00    +0.000 HD
ATOM     32  H   UNL     1      43.406   4.071   8.076  0.00  0.00    +0.000 HD
ENDBRANCH  24  28
ENDBRANCH  19  20
ENDBRANCH  18  19
ENDBRANCH   6  18
TORSDOF 7
ENDMDL
MODEL 3
REMARK VINA RESULT:    -7.236      3.859      6.201
REMARK INTER + INTRA:         -10.697
REMARK INTER:                  -9.074
REMARK INTRA:                  -1.623
REMARK UNBOUND:                -0.499
REMARK  Name = 
REMARK  9 active torsions:
REMARK  status: ('A' for Active; 'I' for Inactive)
REMARK    1  A    between atoms: C_1  and  C_2
REMARK    2  A    between atoms: C_2  and  C_3
REMARK    3  A    between atoms: C_2  and  O_4
REMARK    4  A    between atoms: O_4  and  C_5
REMARK    5  A    between atoms: C_10  and  C_11
REMARK    6  A    between atoms: C_11  and  C_12
REMARK    7  A    between atoms: C_12  and  N_13
REMARK    8  A    between atoms: C_17  and  C_18
REMARK    9  A    between atoms: C_23  and  C_24
REMARK                            x       y       z     vdW  Elec       q    Type
REMARK                         _______ _______ _______ _____ _____    ______ ____
ROOT
ATOM      1  C   UNL     1      51.716   3.935  17.941  0.00  0.00    +0.000 A 
ATOM      2  C   UNL     1      52.080   2.583  17.743  0.00  0.00    +0.000 A 
ATOM      3 CL   UNL     1      53.682   2.012  18.084  0.00  0.00    +0.000 Cl
ATOM      4  C   UNL     1      51.161   1.651  17.300  0.00  0.00    +0.000 A 
ATOM      5  C   UNL     1      49.846   2.032  17.081  0.00  0.00    +0.000 A 
ATOM      6  C   UNL     1      49.399   3.340  17.376  0.00  0.00    +0.000 A 
ATOM      7  C   UNL     1      50.341   4.329  17.823  0.00  0.00    +0.000 A 
ENDROOT
BRANCH   7   8
ATOM      8  C   UNL     1      49.911   5.716  18.189  0.00  0.00    +0.000 A 
ATOM      9  C   UNL     1      49.729   6.699  17.197  0.00  0.00    +0.000 A 
ATOM     10  C   UNL     1      48.966   7.850  17.447  0.00  0.00    +0.000 A 
ATOM     11  C   UNL     1      48.486   8.105  18.728  0.00  0.00    +0.000 A 
ATOM     12  C   UNL     1      48.793   7.230  19.759  0.00  0.00    +0.000 A 
ATOM     13  C   UNL     1      49.469   6.036  19.487  0.00  0.00    +0.000 A 
ENDBRANCH   7   8
BRANCH   1  14
ATOM     14  O   UNL     1      52.763   4.730  18.349  0.00  0.00    +0.000 OA
BRANCH  14  16
ATOM     15  C   UNL     1      53.409   7.003  18.229  0.00  0.00    +0.000 C 
ATOM     16  C   UNL     1      53.384   5.675  17.470  0.00  0.00    +0.000 C 
ATOM     17  C   UNL     1      54.798   5.275  17.077  0.00  0.00    +0.000 C 
ENDBRANCH  14  16
ENDBRANCH   1  14
BRANCH   6  18
ATOM     18  C   UNL     1      47.907   3.644  17.246  0.00  0.00    +0.000 C 
BRANCH  18  19
ATOM     19  C   UNL     1      47.236   3.649  15.863  0.00  0.00    +0.000 C 
BRANCH  19  20
ATOM     20  N   UNL     1      47.295   4.951  15.187  0.00  0.00    +0.000 N 
ATOM     21  C   UNL     1      46.622   4.936  13.950  0.00  0.00    +0.000 A 
ATOM     22  C   UNL     1      46.557   6.099  13.190  0.00  0.00    +0.000 A 
ATOM     23  C   UNL     1      45.870   6.085  11.972  0.00  0.00    +0.000 A 
ATOM     24  C   UNL     1      45.248   4.916  11.537  0.00  0.00    +0.000 A 
ATOM     25  C   UNL     1      45.341   3.814  12.364  0.00  0.00    +0.000 A 
ATOM     26  N   UNL     1      46.008   3.804  13.539  0.00  0.00    +0.000 NA
ATOM     27  H   UNL     1      48.245   5.291  15.058  0.00  0.00    +0.000 HD
BRANCH  24  28
ATOM     28  C   UNL     1      44.527   4.890  10.247  0.00  0.00    +0.000 C 
ATOM     29  N   UNL     1      45.245   4.927   9.083  0.00  0.00    +0.000 N 
ATOM     30  O   UNL     1      43.301   4.851  10.207  0.00  0.00    +0.000 OA
ATOM     31  H   UNL     1      46.247   4.998   8.998  0.00  0.00    +0.000 HD
ATOM     32  H   UNL     1      44.708   4.920   8.222  0.00  0.00    +0.000 HD
ENDBRANCH  24  28
ENDBRANCH  19  20
ENDBRANCH  18  19
ENDBRANCH   6  18
TORSDOF 7
ENDMDL
MODEL 4
REMARK VINA RESULT:    -7.050      4.388      7.805
REMARK INTER + INTRA:         -10.435
REMARK INTER:                  -9.100
REMARK INTRA:                  -1.335
REMARK UNBOUND:                -0.499
REMARK  Name = 
REMARK  9 active torsions:
REMARK  status: ('A' for Active; 'I' for Inactive)
REMARK    1  A    between atoms: C_1  and  C_2
REMARK    2  A    between atoms: C_2  and  C_3
REMARK    3  A    between atoms: C_2  and  O_4
REMARK    4  A    between atoms: O_4  and  C_5
REMARK    5  A    between atoms: C_10  and  C_11
REMARK    6  A    between atoms: C_11  and  C_12
REMARK    7  A    between atoms: C_12  and  N_13
REMARK    8  A    between atoms: C_17  and  C_18
REMARK    9  A    between atoms: C_23  and  C_24
REMARK                            x       y       z     vdW  Elec       q    Type
REMARK                         _______ _______ _______ _____ _____    ______ ____
ROOT
ATOM      1  C   UNL     1      46.956   8.008  12.665  0.00  0.00    +0.000 A 
ATOM      2  C   UNL     1      47.969   8.628  13.432  0.00  0.00    +0.000 A 
ATOM      3 CL   UNL     1      48.359  10.307  13.239  0.00  0.00    +0.000 Cl
ATOM      4  C   UNL     1      48.671   7.926  14.394  0.00  0.00    +0.000 A 
ATOM      5  C   UNL     1      48.353   6.600  14.645  0.00  0.00    +0.000 A 
ATOM      6  C   UNL     1      47.272   5.965  13.995  0.00  0.00    +0.000 A 
ATOM      7  C   UNL     1      46.539   6.672  12.980  0.00  0.00    +0.000 A 
ENDROOT
BRANCH   7   8
ATOM      8  C   UNL     1      45.358   6.058  12.292  0.00  0.00    +0.000 A 
ATOM      9  C   UNL     1      45.494   5.463  11.022  0.00  0.00    +0.000 A 
ATOM     10  C   UNL     1      44.538   4.555  10.542  0.00  0.00    +0.000 A 
ATOM     11  C   UNL     1      43.366   4.330  11.256  0.00  0.00    +0.000 A 
ATOM     12  C   UNL     1      43.137   5.032  12.431  0.00  0.00    +0.000 A 
ATOM     13  C   UNL     1      44.134   5.860  12.957  0.00  0.00    +0.000 A 
ENDBRANCH   7   8
BRANCH   1  14
ATOM     14  O   UNL     1      46.387   8.844  11.731  0.00  0.00    +0.000 OA
BRANCH  14  16
ATOM     15  C   UNL     1      45.448  11.016  11.757  0.00  0.00    +0.000 C 
ATOM     16  C   UNL     1      45.156   9.532  11.981  0.00  0.00    +0.000 C 
ATOM     17  C   UNL     1      44.030   9.081  11.062  0.00  0.00    +0.000 C 
ENDBRANCH  14  16
ENDBRANCH   1  14
BRANCH   6  18
ATOM     18  C   UNL     1      46.893   4.550  14.429  0.00  0.00    +0.000 C 
BRANCH  18  19
ATOM     19  C   UNL     1      47.080   4.113  15.891  0.00  0.00    +0.000 C 
BRANCH  19  20
ATOM     20  N   UNL     1      47.770   2.824  16.035  0.00  0.00    +0.000 N 
ATOM     21  C   UNL     1      49.047   2.968  16.609  0.00  0.00    +0.000 A 
ATOM     22  C   UNL     1      49.826   1.839  16.842  0.00  0.00    +0.000 A 
ATOM     23  C   UNL     1      51.086   1.985  17.432  0.00  0.00    +0.000 A 
ATOM     24  C   UNL     1      51.544   3.251  17.791  0.00  0.00    +0.000 A 
ATOM     25  C   UNL     1      50.697   4.315  17.546  0.00  0.00    +0.000 A 
ATOM     26  N   UNL     1      49.481   4.197  16.969  0.00  0.00    +0.000 NA
ATOM     27  H   UNL     1      47.841   2.309  15.160  0.00  0.00    +0.000 HD
BRANCH  24  28
ATOM     28  C   UNL     1      52.877   3.416  18.407  0.00  0.00    +0.000 C 
ATOM     29  N   UNL     1      53.315   2.481  19.304  0.00  0.00    +0.000 N 
ATOM     30  O   UNL     1      53.585   4.381  18.136  0.00  0.00    +0.000 OA
ATOM     31  H   UNL     1      52.805   1.673  19.628  0.00  0.00    +0.000 HD
ATOM     32  H   UNL     1      54.230   2.641  19.712  0.00  0.00    +0.000 HD
ENDBRANCH  24  28
ENDBRANCH  19  20
ENDBRANCH  18  19
ENDBRANCH   6  18
TORSDOF 7
ENDMDL
MODEL 5
REMARK VINA RESULT:    -6.710      3.403      5.780
REMARK INTER + INTRA:          -9.956
REMARK INTER:                  -8.474
REMARK INTRA:                  -1.482
REMARK UNBOUND:                -0.499
REMARK  Name = 
REMARK  9 active torsions:
REMARK  status: ('A' for Active; 'I' for Inactive)
REMARK    1  A    between atoms: C_1  and  C_2
REMARK    2  A    between atoms: C_2  and  C_3
REMARK    3  A    between atoms: C_2  and  O_4
REMARK    4  A    between atoms: O_4  and  C_5
REMARK    5  A    between atoms: C_10  and  C_11
REMARK    6  A    between atoms: C_11  and  C_12
REMARK    7  A    between atoms: C_12  and  N_13
REMARK    8  A    between atoms: C_17  and  C_18
REMARK    9  A    between atoms: C_23  and  C_24
REMARK                            x       y       z     vdW  Elec       q    Type
REMARK                         _______ _______ _______ _____ _____    ______ ____
ROOT
ATOM      1  C   UNL     1      51.132   6.057  18.040  0.00  0.00    +0.000 A 
ATOM      2  C   UNL     1      51.958   4.917  18.169  0.00  0.00    +0.000 A 
ATOM      3 CL   UNL     1      53.599   5.038  18.717  0.00  0.00    +0.000 Cl
ATOM      4  C   UNL     1      51.480   3.650  17.893  0.00  0.00    +0.000 A 
ATOM      5  C   UNL     1      50.154   3.482  17.522  0.00  0.00    +0.000 A 
ATOM      6  C   UNL     1      49.254   4.570  17.493  0.00  0.00    +0.000 A 
ATOM      7  C   UNL     1      49.734   5.898  17.761  0.00  0.00    +0.000 A 
ENDROOT
BRANCH   7   8
ATOM      8  C   UNL     1      48.812   7.078  17.784  0.00  0.00    +0.000 A 
ATOM      9  C   UNL     1      48.065   7.385  18.939  0.00  0.00    +0.000 A 
ATOM     10  C   UNL     1      47.520   8.663  19.131  0.00  0.00    +0.000 A 
ATOM     11  C   UNL     1      47.592   9.613  18.117  0.00  0.00    +0.000 A 
ATOM     12  C   UNL     1      48.180   9.277  16.906  0.00  0.00    +0.000 A 
ATOM     13  C   UNL     1      48.810   8.037  16.754  0.00  0.00    +0.000 A 
ENDBRANCH   7   8
BRANCH   1  14
ATOM     14  O   UNL     1      51.782   7.238  18.319  0.00  0.00    +0.000 OA
BRANCH  14  16
ATOM     15  C   UNL     1      52.818   7.837  20.361  0.00  0.00    +0.000 C 
ATOM     16  C   UNL     1      51.541   7.967  19.528  0.00  0.00    +0.000 C 
ATOM     17  C   UNL     1      51.230   9.435  19.281  0.00  0.00    +0.000 C 
ENDBRANCH  14  16
ENDBRANCH   1  14
BRANCH   6  18
ATOM     18  C   UNL     1      47.778   4.284  17.216  0.00  0.00    +0.000 C 
BRANCH  18  19
ATOM     19  C   UNL     1      47.309   3.947  15.791  0.00  0.00    +0.000 C 
BRANCH  19  20
ATOM     20  N   UNL     1      47.109   5.130  14.944  0.00  0.00    +0.000 N 
ATOM     21  C   UNL     1      46.424   4.819  13.754  0.00  0.00    +0.000 A 
ATOM     22  C   UNL     1      46.126   5.832  12.849  0.00  0.00    +0.000 A 
ATOM     23  C   UNL     1      45.428   5.522  11.677  0.00  0.00    +0.000 A 
ATOM     24  C   UNL     1      45.027   4.209  11.432  0.00  0.00    +0.000 A 
ATOM     25  C   UNL     1      45.342   3.270  12.395  0.00  0.00    +0.000 A 
ATOM     26  N   UNL     1      46.024   3.547  13.528  0.00  0.00    +0.000 NA
ATOM     27  H   UNL     1      47.975   5.617  14.726  0.00  0.00    +0.000 HD
BRANCH  24  28
ATOM     28  C   UNL     1      44.296   3.871  10.193  0.00  0.00    +0.000 C 
ATOM     29  N   UNL     1      44.455   2.628   9.646  0.00  0.00    +0.000 N 
ATOM     30  O   UNL     1      43.566   4.691   9.645  0.00  0.00    +0.000 OA
ATOM     31  H   UNL     1      45.056   1.893   9.988  0.00  0.00    +0.000 HD
ATOM     32  H   UNL     1      43.946   2.443   8.789  0.00  0.00    +0.000 HD
ENDBRANCH  24  28
ENDBRANCH  19  20
ENDBRANCH  18  19
ENDBRANCH   6  18
TORSDOF 7
ENDMDL
MODEL 6
REMARK VINA RESULT:    -6.644      4.154      8.209
REMARK INTER + INTRA:          -9.863
REMARK INTER:                  -8.502
REMARK INTRA:                  -1.360
REMARK UNBOUND:                -0.499
REMARK  Name = 
REMARK  9 active torsions:
REMARK  status: ('A' for Active; 'I' for Inactive)
REMARK    1  A    between atoms: C_1  and  C_2
REMARK    2  A    between atoms: C_2  and  C_3
REMARK    3  A    between atoms: C_2  and  O_4
REMARK    4  A    between atoms: O_4  and  C_5
REMARK    5  A    between atoms: C_10  and  C_11
REMARK    6  A    between atoms: C_11  and  C_12
REMARK    7  A    between atoms: C_12  and  N_13
REMARK    8  A    between atoms: C_17  and  C_18
REMARK    9  A    between atoms: C_23  and  C_24
REMARK                            x       y       z     vdW  Elec       q    Type
REMARK                         _______ _______ _______ _____ _____    ______ ____
ROOT
ATOM      1  C   UNL     1      46.912   7.963  12.339  0.00  0.00    +0.000 A 
ATOM      2  C   UNL     1      47.972   8.498  13.107  0.00  0.00    +0.000 A 
ATOM      3 CL   UNL     1      48.362  10.187  13.071  0.00  0.00    +0.000 Cl
ATOM      4  C   UNL     1      48.723   7.697  13.947  0.00  0.00    +0.000 A 
ATOM      5  C   UNL     1      48.411   6.352  14.075  0.00  0.00    +0.000 A 
ATOM      6  C   UNL     1      47.290   5.791  13.423  0.00  0.00    +0.000 A 
ATOM      7  C   UNL     1      46.505   6.602  12.533  0.00  0.00    +0.000 A 
ENDROOT
BRANCH   7   8
ATOM      8  C   UNL     1      45.283   6.066  11.853  0.00  0.00    +0.000 A 
ATOM      9  C   UNL     1      45.366   5.495  10.567  0.00  0.00    +0.000 A 
ATOM     10  C   UNL     1      44.357   4.649  10.083  0.00  0.00    +0.000 A 
ATOM     11  C   UNL     1      43.188   4.467  10.814  0.00  0.00    +0.000 A 
ATOM     12  C   UNL     1      43.015   5.151  12.009  0.00  0.00    +0.000 A 
ATOM     13  C   UNL     1      44.062   5.914  12.536  0.00  0.00    +0.000 A 
ENDBRANCH   7   8
BRANCH   1  14
ATOM     14  O   UNL     1      46.297   8.895  11.532  0.00  0.00    +0.000 OA
BRANCH  14  16
ATOM     15  C   UNL     1      45.387  11.056  11.848  0.00  0.00    +0.000 C 
ATOM     16  C   UNL     1      45.091   9.558  11.927  0.00  0.00    +0.000 C 
ATOM     17  C   UNL     1      43.909   9.216  11.032  0.00  0.00    +0.000 C 
ENDBRANCH  14  16
ENDBRANCH   1  14
BRANCH   6  18
ATOM     18  C   UNL     1      46.926   4.338  13.726  0.00  0.00    +0.000 C 
BRANCH  18  19
ATOM     19  C   UNL     1      47.351   3.695  15.057  0.00  0.00    +0.000 C 
BRANCH  19  20
ATOM     20  N   UNL     1      46.783   4.359  16.237  0.00  0.00    +0.000 N 
ATOM     21  C   UNL     1      47.727   4.496  17.273  0.00  0.00    +0.000 A 
ATOM     22  C   UNL     1      47.362   5.131  18.455  0.00  0.00    +0.000 A 
ATOM     23  C   UNL     1      48.309   5.283  19.474  0.00  0.00    +0.000 A 
ATOM     24  C   UNL     1      49.607   4.811  19.292  0.00  0.00    +0.000 A 
ATOM     25  C   UNL     1      49.892   4.215  18.079  0.00  0.00    +0.000 A 
ATOM     26  N   UNL     1      48.990   4.050  17.087  0.00  0.00    +0.000 NA
ATOM     27  H   UNL     1      45.947   3.901  16.591  0.00  0.00    +0.000 HD
BRANCH  24  28
ATOM     28  C   UNL     1      50.612   4.959  20.366  0.00  0.00    +0.000 C 
ATOM     29  N   UNL     1      51.864   4.442  20.181  0.00  0.00    +0.000 N 
ATOM     30  O   UNL     1      50.334   5.523  21.420  0.00  0.00    +0.000 OA
ATOM     31  H   UNL     1      52.189   3.928  19.376  0.00  0.00    +0.000 HD
ATOM     32  H   UNL     1      52.518   4.554  20.949  0.00  0.00    +0.000 HD
ENDBRANCH  24  28
ENDBRANCH  19  20
ENDBRANCH  18  19
ENDBRANCH   6  18
TORSDOF 7
ENDMDL
MODEL 7
REMARK VINA RESULT:    -6.519      3.329      5.985
REMARK INTER + INTRA:          -9.687
REMARK INTER:                  -8.096
REMARK INTRA:                  -1.591
REMARK UNBOUND:                -0.499
REMARK  Name = 
REMARK  9 active torsions:
REMARK  status: ('A' for Active; 'I' for Inactive)
REMARK    1  A    between atoms: C_1  and  C_2
REMARK    2  A    between atoms: C_2  and  C_3
REMARK    3  A    between atoms: C_2  and  O_4
REMARK    4  A    between atoms: O_4  and  C_5
REMARK    5  A    between atoms: C_10  and  C_11
REMARK    6  A    between atoms: C_11  and  C_12
REMARK    7  A    between atoms: C_12  and  N_13
REMARK    8  A    between atoms: C_17  and  C_18
REMARK    9  A    between atoms: C_23  and  C_24
REMARK                            x       y       z     vdW  Elec       q    Type
REMARK                         _______ _______ _______ _____ _____    ______ ____
ROOT
ATOM      1  C   UNL     1      51.945   6.366  16.804  0.00  0.00    +0.000 A 
ATOM      2  C   UNL     1      52.948   6.797  15.905  0.00  0.00    +0.000 A 
ATOM      3 CL   UNL     1      54.582   6.228  16.022  0.00  0.00    +0.000 Cl
ATOM      4  C   UNL     1      52.657   7.667  14.872  0.00  0.00    +0.000 A 
ATOM      5  C   UNL     1      51.353   8.098  14.682  0.00  0.00    +0.000 A 
ATOM      6  C   UNL     1      50.292   7.607  15.475  0.00  0.00    +0.000 A 
ATOM      7  C   UNL     1      50.574   6.713  16.565  0.00  0.00    +0.000 A 
ENDROOT
BRANCH   7   8
ATOM      8  C   UNL     1      49.481   6.131  17.408  0.00  0.00    +0.000 A 
ATOM      9  C   UNL     1      48.846   6.906  18.398  0.00  0.00    +0.000 A 
ATOM     10  C   UNL     1      47.593   6.539  18.912  0.00  0.00    +0.000 A 
ATOM     11  C   UNL     1      47.015   5.327  18.548  0.00  0.00    +0.000 A 
ATOM     12  C   UNL     1      47.702   4.471  17.699  0.00  0.00    +0.000 A 
ATOM     13  C   UNL     1      48.903   4.883  17.112  0.00  0.00    +0.000 A 
ENDBRANCH   7   8
BRANCH   1  14
ATOM     14  O   UNL     1      52.418   5.531  17.792  0.00  0.00    +0.000 OA
BRANCH  14  16
ATOM     15  C   UNL     1      51.813   4.909  19.994  0.00  0.00    +0.000 C 
ATOM     16  C   UNL     1      52.539   5.960  19.153  0.00  0.00    +0.000 C 
ATOM     17  C   UNL     1      53.986   6.079  19.608  0.00  0.00    +0.000 C 
ENDBRANCH  14  16
ENDBRANCH   1  14
BRANCH   6  18
ATOM     18  C   UNL     1      48.865   8.017  15.113  0.00  0.00    +0.000 C 
BRANCH  18  19
ATOM     19  C   UNL     1      48.124   7.310  13.967  0.00  0.00    +0.000 C 
BRANCH  19  20
ATOM     20  N   UNL     1      47.535   6.021  14.354  0.00  0.00    +0.000 N 
ATOM     21  C   UNL     1      46.687   5.505  13.356  0.00  0.00    +0.000 A 
ATOM     22  C   UNL     1      46.069   4.275  13.551  0.00  0.00    +0.000 A 
ATOM     23  C   UNL     1      45.242   3.756  12.548  0.00  0.00    +0.000 A 
ATOM     24  C   UNL     1      45.056   4.466  11.363  0.00  0.00    +0.000 A 
ATOM     25  C   UNL     1      45.727   5.668  11.243  0.00  0.00    +0.000 A 
ATOM     26  N   UNL     1      46.521   6.191  12.203  0.00  0.00    +0.000 NA
ATOM     27  H   UNL     1      47.040   6.059  15.242  0.00  0.00    +0.000 HD
BRANCH  24  28
ATOM     28  C   UNL     1      44.179   3.930  10.302  0.00  0.00    +0.000 C 
ATOM     29  N   UNL     1      44.043   4.630   9.134  0.00  0.00    +0.000 N 
ATOM     30  O   UNL     1      43.562   2.880  10.459  0.00  0.00    +0.000 OA
ATOM     31  H   UNL     1      44.468   5.518   8.913  0.00  0.00    +0.000 HD
ATOM     32  H   UNL     1      43.420   4.232   8.439  0.00  0.00    +0.000 HD
ENDBRANCH  24  28
ENDBRANCH  19  20
ENDBRANCH  18  19
ENDBRANCH   6  18
TORSDOF 7
ENDMDL
MODEL 8
REMARK VINA RESULT:    -6.168      3.750      6.692
REMARK INTER + INTRA:          -9.191
REMARK INTER:                  -7.690
REMARK INTRA:                  -1.501
REMARK UNBOUND:                -0.499
REMARK  Name = 
REMARK  9 active torsions:
REMARK  status: ('A' for Active; 'I' for Inactive)
REMARK    1  A    between atoms: C_1  and  C_2
REMARK    2  A    between atoms: C_2  and  C_3
REMARK    3  A    between atoms: C_2  and  O_4
REMARK    4  A    between atoms: O_4  and  C_5
REMARK    5  A    between atoms: C_10  and  C_11
REMARK    6  A    between atoms: C_11  and  C_12
REMARK    7  A    between atoms: C_12  and  N_13
REMARK    8  A    between atoms: C_17  and  C_18
REMARK    9  A    between atoms: C_23  and  C_24
REMARK                            x       y       z     vdW  Elec       q    Type
REMARK                         _______ _______ _______ _____ _____    ______ ____
ROOT
ATOM      1  C   UNL     1      50.952   7.220  18.930  0.00  0.00    +0.000 A 
ATOM      2  C   UNL     1      51.783   8.359  18.821  0.00  0.00    +0.000 A 
ATOM      3 CL   UNL     1      53.120   8.618  19.895  0.00  0.00    +0.000 Cl
ATOM      4  C   UNL     1      51.584   9.298  17.827  0.00  0.00    +0.000 A 
ATOM      5  C   UNL     1      50.577   9.107  16.893  0.00  0.00    +0.000 A 
ATOM      6  C   UNL     1      49.795   7.931  16.883  0.00  0.00    +0.000 A 
ATOM      7  C   UNL     1      49.975   6.948  17.916  0.00  0.00    +0.000 A 
ENDROOT
BRANCH   7   8
ATOM      8  C   UNL     1      49.201   5.666  17.925  0.00  0.00    +0.000 A 
ATOM      9  C   UNL     1      47.838   5.650  18.280  0.00  0.00    +0.000 A 
ATOM     10  C   UNL     1      47.009   4.576  17.924  0.00  0.00    +0.000 A 
ATOM     11  C   UNL     1      47.551   3.441  17.329  0.00  0.00    +0.000 A 
ATOM     12  C   UNL     1      48.921   3.369  17.119  0.00  0.00    +0.000 A 
ATOM     13  C   UNL     1      49.729   4.478  17.383  0.00  0.00    +0.000 A 
ENDBRANCH   7   8
BRANCH   1  14
ATOM     14  O   UNL     1      51.271   6.410  19.997  0.00  0.00    +0.000 OA
BRANCH  14  16
ATOM     15  C   UNL     1      50.910   5.018  21.877  0.00  0.00    +0.000 C 
ATOM     16  C   UNL     1      50.377   6.224  21.100  0.00  0.00    +0.000 C 
ATOM     17  C   UNL     1      50.306   7.439  22.014  0.00  0.00    +0.000 C 
ENDBRANCH  14  16
ENDBRANCH   1  14
BRANCH   6  18
ATOM     18  C   UNL     1      48.804   7.728  15.736  0.00  0.00    +0.000 C 
BRANCH  18  19
ATOM     19  C   UNL     1      49.205   6.898  14.506  0.00  0.00    +0.000 C 
BRANCH  19  20
ATOM     20  N   UNL     1      48.439   7.233  13.298  0.00  0.00    +0.000 N 
ATOM     21  C   UNL     1      47.494   6.239  12.977  0.00  0.00    +0.000 A 
ATOM     22  C   UNL     1      46.663   6.412  11.876  0.00  0.00    +0.000 A 
ATOM     23  C   UNL     1      45.713   5.431  11.573  0.00  0.00    +0.000 A 
ATOM     24  C   UNL     1      45.597   4.300  12.380  0.00  0.00    +0.000 A 
ATOM     25  C   UNL     1      46.446   4.220  13.468  0.00  0.00    +0.000 A 
ATOM     26  N   UNL     1      47.376   5.151  13.772  0.00  0.00    +0.000 NA
ATOM     27  H   UNL     1      49.028   7.422  12.490  0.00  0.00    +0.000 HD
BRANCH  24  28
ATOM     28  C   UNL     1      44.602   3.255  12.063  0.00  0.00    +0.000 C 
ATOM     29  N   UNL     1      44.572   2.727  10.802  0.00  0.00    +0.000 N 
ATOM     30  O   UNL     1      43.798   2.869  12.906  0.00  0.00    +0.000 OA
ATOM     31  H   UNL     1      45.155   2.995  10.024  0.00  0.00    +0.000 HD
ATOM     32  H   UNL     1      43.863   2.022  10.625  0.00  0.00    +0.000 HD
ENDBRANCH  24  28
ENDBRANCH  19  20
ENDBRANCH  18  19
ENDBRANCH   6  18
TORSDOF 7
ENDMDL
MODEL 9
REMARK VINA RESULT:    -5.763      3.707      5.899
REMARK INTER + INTRA:          -8.621
REMARK INTER:                  -7.526
REMARK INTRA:                  -1.094
REMARK UNBOUND:                -0.499
REMARK  Name = 
REMARK  9 active torsions:
REMARK  status: ('A' for Active; 'I' for Inactive)
REMARK    1  A    between atoms: C_1  and  C_2
REMARK    2  A    between atoms: C_2  and  C_3
REMARK    3  A    between atoms: C_2  and  O_4
REMARK    4  A    between atoms: O_4  and  C_5
REMARK    5  A    between atoms: C_10  and  C_11
REMARK    6  A    between atoms: C_11  and  C_12
REMARK    7  A    between atoms: C_12  and  N_13
REMARK    8  A    between atoms: C_17  and  C_18
REMARK    9  A    between atoms: C_23  and  C_24
REMARK                            x       y       z     vdW  Elec       q    Type
REMARK                         _______ _______ _______ _____ _____    ______ ____
ROOT
ATOM      1  C   UNL     1      48.582   7.910  19.667  0.00  0.00    +0.000 A 
ATOM      2  C   UNL     1      47.955   6.723  20.112  0.00  0.00    +0.000 A 
ATOM      3 CL   UNL     1      47.354   6.562  21.731  0.00  0.00    +0.000 Cl
ATOM      4  C   UNL     1      47.765   5.651  19.262  0.00  0.00    +0.000 A 
ATOM      5  C   UNL     1      48.158   5.748  17.935  0.00  0.00    +0.000 A 
ATOM      6  C   UNL     1      48.679   6.950  17.407  0.00  0.00    +0.000 A 
ATOM      7  C   UNL     1      48.900   8.072  18.278  0.00  0.00    +0.000 A 
ENDROOT
BRANCH   7   8
ATOM      8  C   UNL     1      49.410   9.382  17.759  0.00  0.00    +0.000 A 
ATOM      9  C   UNL     1      48.538  10.299  17.140  0.00  0.00    +0.000 A 
ATOM     10  C   UNL     1      48.884  11.652  17.009  0.00  0.00    +0.000 A 
ATOM     11  C   UNL     1      50.156  12.087  17.370  0.00  0.00    +0.000 A 
ATOM     12  C   UNL     1      51.087  11.166  17.829  0.00  0.00    +0.000 A 
ATOM     13  C   UNL     1      50.709   9.839  18.051  0.00  0.00    +0.000 A 
ENDBRANCH   7   8
BRANCH   1  14
ATOM     14  O   UNL     1      48.720   8.859  20.655  0.00  0.00    +0.000 OA
BRANCH  14  16
ATOM     15  C   UNL     1      48.252  11.075  21.341  0.00  0.00    +0.000 C 
ATOM     16  C   UNL     1      47.635   9.707  21.047  0.00  0.00    +0.000 C 
ATOM     17  C   UNL     1      46.569   9.840  19.969  0.00  0.00    +0.000 C 
ENDBRANCH  14  16
ENDBRANCH   1  14
BRANCH   6  18
ATOM     18  C   UNL     1      48.953   7.025  15.905  0.00  0.00    +0.000 C 
BRANCH  18  19
ATOM     19  C   UNL     1      48.144   6.158  14.927  0.00  0.00    +0.000 C 
BRANCH  19  20
ATOM     20  N   UNL     1      48.032   6.739  13.583  0.00  0.00    +0.000 N 
ATOM     21  C   UNL     1      47.034   6.109  12.815  0.00  0.00    +0.000 A 
ATOM     22  C   UNL     1      46.776   6.557  11.524  0.00  0.00    +0.000 A 
ATOM     23  C   UNL     1      45.769   5.942  10.773  0.00  0.00    +0.000 A 
ATOM     24  C   UNL     1      45.027   4.899  11.325  0.00  0.00    +0.000 A 
ATOM     25  C   UNL     1      45.333   4.533  12.622  0.00  0.00    +0.000 A 
ATOM     26  N   UNL     1      46.307   5.107  13.360  0.00  0.00    +0.000 NA
ATOM     27  H   UNL     1      48.912   6.738  13.072  0.00  0.00    +0.000 HD
BRANCH  24  28
ATOM     28  C   UNL     1      43.968   4.237  10.535  0.00  0.00    +0.000 C 
ATOM     29  N   UNL     1      43.907   4.459   9.187  0.00  0.00    +0.000 N 
ATOM     30  O   UNL     1      43.139   3.509  11.072  0.00  0.00    +0.000 OA
ATOM     31  H   UNL     1      44.508   5.065   8.650  0.00  0.00    +0.000 HD
ATOM     32  H   UNL     1      43.155   3.995   8.687  0.00  0.00    +0.000 HD
ENDBRANCH  24  28
ENDBRANCH  19  20
ENDBRANCH  18  19
ENDBRANCH   6  18
TORSDOF 7
ENDMDL
