MODEL 1
REMARK VINA RESULT:    -8.621      0.000      0.000
REMARK INTER + INTRA:         -12.997
REMARK INTER:                 -12.149
REMARK INTRA:                  -0.848
REMARK UNBOUND:                -0.848
REMARK  Name = 
REMARK  8 active torsions:
REMARK  status: ('A' for Active; 'I' for Inactive)
REMARK    1  A    between atoms: C_1  and  N_2
REMARK    2  A    between atoms: N_2  and  C_3
REMARK    3  A    between atoms: N_2  and  C_10
REMARK    4  A    between atoms: C_3  and  C_4
REMARK    5  A    between atoms: C_10  and  C_11
REMARK    6  A    between atoms: C_14  and  C_15
REMARK    7  A    between atoms: C_15  and  N_16
REMARK    8  A    between atoms: C_17  and  C_19
REMARK                            x       y       z     vdW  Elec       q    Type
REMARK                         _______ _______ _______ _____ _____    ______ ____
ROOT
ATOM      1  C   UNL     1      45.604   5.431  11.737  0.00  0.00    +0.000 A 
ATOM      2  C   UNL     1      46.405   6.499  11.310  0.00  0.00    +0.000 A 
ATOM      3  C   UNL     1      47.440   6.985  12.119  0.00  0.00    +0.000 A 
ATOM      4  C   UNL     1      47.700   6.416  13.373  0.00  0.00    +0.000 A 
ATOM      5  C   UNL     1      46.865   5.388  13.826  0.00  0.00    +0.000 A 
ATOM      6  C   UNL     1      45.834   4.898  13.016  0.00  0.00    +0.000 A 
ENDROOT
BRANCH   1   7
ATOM      7  C   UNL     1      44.480   4.890  10.869  0.00  0.00    +0.000 C 
BRANCH   7   9
ATOM      8  C   UNL     1      43.463   2.743  11.357  0.00  0.00    +0.000 C 
ATOM      9  N   UNL     1      44.515   3.428  10.597  0.00  0.00    +0.000 NA
BRANCH   9  10
ATOM     10  C   UNL     1      44.329   3.230   9.138  0.00  0.00    +0.000 C 
BRANCH  10  11
ATOM     11  C   UNL     1      45.543   2.758   8.356  0.00  0.00    +0.000 A 
ATOM     12  C   UNL     1      45.908   1.400   8.370  0.00  0.00    +0.000 A 
ATOM     13  C   UNL     1      46.969   0.935   7.588  0.00  0.00    +0.000 A 
ATOM     14  C   UNL     1      47.681   1.820   6.780  0.00  0.00    +0.000 A 
ATOM     15  C   UNL     1      47.334   3.171   6.764  0.00  0.00    +0.000 A 
ATOM     16  C   UNL     1      46.273   3.638   7.546  0.00  0.00    +0.000 A 
ENDBRANCH  10  11
ENDBRANCH   9  10
ENDBRANCH   7   9
ENDBRANCH   1   7
BRANCH   4  17
ATOM     17  C   UNL     1      48.848   6.898  14.221  0.00  0.00    +0.000 C 
BRANCH  17  18
ATOM     18  N   UNL     1      48.482   7.036  15.609  0.00  0.00    +0.000 N 
ATOM     19  C   UNL     1      49.278   6.514  16.599  0.00  0.00    +0.000 C 
ATOM     20  O   UNL     1      50.336   5.939  16.349  0.00  0.00    +0.000 OA
ATOM     21  H   UNL     1      47.524   7.301  15.816  0.00  0.00    +0.000 HD
BRANCH  19  22
ATOM     22  C   UNL     1      48.834   6.719  17.983  0.00  0.00    +0.000 A 
ATOM     23  C   UNL     1      48.527   8.000  18.424  0.00  0.00    +0.000 A 
ATOM     24  S   UNL     1      47.980   8.054  20.041  0.00  0.00    +0.000 S 
ATOM     25  C   UNL     1      48.188   6.377  20.219  0.00  0.00    +0.000 A 
ATOM     26  N   UNL     1      47.929   5.744  21.390  0.00  0.00    +0.000 NA
ATOM     27  N   UNL     1      48.130   4.507  21.481  0.00  0.00    +0.000 NA
ATOM     28  N   UNL     1      48.594   3.825  20.391  0.00  0.00    +0.000 N 
ATOM     29  C   UNL     1      48.861   4.362  19.152  0.00  0.00    +0.000 A 
ATOM     30  O   UNL     1      49.247   3.673  18.214  0.00  0.00    +0.000 OA
ATOM     31  C   UNL     1      48.643   5.785  19.062  0.00  0.00    +0.000 A 
ATOM     32  H   UNL     1      48.733   2.832  20.518  0.00  0.00    +0.000 HD
ENDBRANCH  19  22
ENDBRANCH  17  18
ENDBRANCH   4  17
TORSDOF 7
ENDMDL
MODEL 2
REMARK VINA RESULT:    -8.390      1.776      2.105
REMARK INTER + INTRA:         -12.671
REMARK INTER:                 -11.445
REMARK INTRA:                  -1.227
REMARK UNBOUND:                -0.848
REMARK  Name = 
REMARK  8 active torsions:
REMARK  status: ('A' for Active; 'I' for Inactive)
REMARK    1  A    between atoms: C_1  and  N_2
REMARK    2  A    between atoms: N_2  and  C_3
REMARK    3  A    between atoms: N_2  and  C_10
REMARK    4  A    between atoms: C_3  and  C_4
REMARK    5  A    between atoms: C_10  and  C_11
REMARK    6  A    between atoms: C_14  and  C_15
REMARK    7  A    between atoms: C_15  and  N_16
REMARK    8  A    between atoms: C_17  and  C_19
REMARK                            x       y       z     vdW  Elec       q    Type
REMARK                         _______ _______ _______ _____ _____    ______ ____
ROOT
ATOM      1  C   UNL     1      44.850   5.679  11.088  0.00  0.00    +0.000 A 
ATOM      2  C   UNL     1      46.251   5.638  11.078  0.00  0.00    +0.000 A 
ATOM      3  C   UNL     1      46.999   6.553  11.831  0.00  0.00    +0.000 A 
ATOM      4  C   UNL     1      46.365   7.528  12.613  0.00  0.00    +0.000 A 
ATOM      5  C   UNL     1      44.968   7.606  12.579  0.00  0.00    +0.000 A 
ATOM      6  C   UNL     1      44.220   6.690  11.831  0.00  0.00    +0.000 A 
ENDROOT
BRANCH   1   7
ATOM      7  C   UNL     1      44.026   4.690  10.280  0.00  0.00    +0.000 C 
BRANCH   7   9
ATOM      8  C   UNL     1      43.436   2.650  11.452  0.00  0.00    +0.000 C 
ATOM      9  N   UNL     1      44.354   3.254  10.478  0.00  0.00    +0.000 NA
BRANCH   9  10
ATOM     10  C   UNL     1      44.252   2.576   9.162  0.00  0.00    +0.000 C 
BRANCH  10  11
ATOM     11  C   UNL     1      45.526   2.494   8.339  0.00  0.00    +0.000 A 
ATOM     12  C   UNL     1      46.164   1.256   8.147  0.00  0.00    +0.000 A 
ATOM     13  C   UNL     1      47.288   1.149   7.323  0.00  0.00    +0.000 A 
ATOM     14  C   UNL     1      47.789   2.278   6.676  0.00  0.00    +0.000 A 
ATOM     15  C   UNL     1      47.170   3.513   6.864  0.00  0.00    +0.000 A 
ATOM     16  C   UNL     1      46.045   3.621   7.690  0.00  0.00    +0.000 A 
ENDBRANCH  10  11
ENDBRANCH   9  10
ENDBRANCH   7   9
ENDBRANCH   1   7
BRANCH   4  17
ATOM     17  C   UNL     1      47.164   8.476  13.470  0.00  0.00    +0.000 C 
BRANCH  17  18
ATOM     18  N   UNL     1      47.617   7.859  14.692  0.00  0.00    +0.000 N 
ATOM     19  C   UNL     1      48.895   7.368  14.797  0.00  0.00    +0.000 C 
ATOM     20  O   UNL     1      49.705   7.457  13.876  0.00  0.00    +0.000 OA
ATOM     21  H   UNL     1      46.909   7.581  15.365  0.00  0.00    +0.000 HD
BRANCH  19  22
ATOM     22  C   UNL     1      49.272   6.775  16.086  0.00  0.00    +0.000 A 
ATOM     23  C   UNL     1      50.266   7.369  16.853  0.00  0.00    +0.000 A 
ATOM     24  S   UNL     1      50.544   6.581  18.342  0.00  0.00    +0.000 S 
ATOM     25  C   UNL     1      49.385   5.391  17.985  0.00  0.00    +0.000 A 
ATOM     26  N   UNL     1      49.128   4.365  18.833  0.00  0.00    +0.000 NA
ATOM     27  N   UNL     1      48.285   3.491  18.509  0.00  0.00    +0.000 NA
ATOM     28  N   UNL     1      47.637   3.603  17.311  0.00  0.00    +0.000 N 
ATOM     29  C   UNL     1      47.801   4.614  16.392  0.00  0.00    +0.000 A 
ATOM     30  O   UNL     1      47.155   4.657  15.350  0.00  0.00    +0.000 OA
ATOM     31  C   UNL     1      48.782   5.603  16.765  0.00  0.00    +0.000 A 
ATOM     32  H   UNL     1      46.966   2.876  17.102  0.00  0.00    +0.000 HD
ENDBRANCH  19  22
ENDBRANCH  17  18
ENDBRANCH   4  17
TORSDOF 7
ENDMDL
MODEL 3
REMARK VINA RESULT:    -8.274      1.349      2.184
REMARK INTER + INTRA:         -12.508
REMARK INTER:                 -11.466
REMARK INTRA:                  -1.042
REMARK UNBOUND:                -0.848
REMARK  Name = 
REMARK  8 active torsions:
REMARK  status: ('A' for Active; 'I' for Inactive)
REMARK    1  A    between atoms: C_1  and  N_2
REMARK    2  A    between atoms: N_2  and  C_3
REMARK    3  A    between atoms: N_2  and  C_10
REMARK    4  A    between atoms: C_3  and  C_4
REMARK    5  A    between atoms: C_10  and  C_11
REMARK    6  A    between atoms: C_14  and  C_15
REMARK    7  A    between atoms: C_15  and  N_16
REMARK    8  A    between atoms: C_17  and  C_19
REMARK                            x       y       z     vdW  Elec       q    Type
REMARK                         _______ _______ _______ _____ _____    ______ ____
ROOT
ATOM      1  C   UNL     1      45.653   5.397  11.833  0.00  0.00    +0.000 A 
ATOM      2  C   UNL     1      45.890   4.813  13.085  0.00  0.00    +0.000 A 
ATOM      3  C   UNL     1      46.914   5.288  13.914  0.00  0.00    +0.000 A 
ATOM      4  C   UNL     1      47.725   6.357  13.512  0.00  0.00    +0.000 A 
ATOM      5  C   UNL     1      47.528   6.904  12.239  0.00  0.00    +0.000 A 
ATOM      6  C   UNL     1      46.501   6.434  11.413  0.00  0.00    +0.000 A 
ENDROOT
BRANCH   1   7
ATOM      7  C   UNL     1      44.542   4.895  10.925  0.00  0.00    +0.000 C 
BRANCH   7   9
ATOM      8  C   UNL     1      43.469   2.777  11.421  0.00  0.00    +0.000 C 
ATOM      9  N   UNL     1      44.534   3.434  10.653  0.00  0.00    +0.000 NA
BRANCH   9  10
ATOM     10  C   UNL     1      44.331   3.242   9.195  0.00  0.00    +0.000 C 
BRANCH  10  11
ATOM     11  C   UNL     1      45.532   2.757   8.401  0.00  0.00    +0.000 A 
ATOM     12  C   UNL     1      45.881   1.396   8.407  0.00  0.00    +0.000 A 
ATOM     13  C   UNL     1      46.928   0.920   7.614  0.00  0.00    +0.000 A 
ATOM     14  C   UNL     1      47.643   1.798   6.801  0.00  0.00    +0.000 A 
ATOM     15  C   UNL     1      47.312   3.153   6.791  0.00  0.00    +0.000 A 
ATOM     16  C   UNL     1      46.264   3.631   7.585  0.00  0.00    +0.000 A 
ENDBRANCH  10  11
ENDBRANCH   9  10
ENDBRANCH   7   9
ENDBRANCH   1   7
BRANCH   4  17
ATOM     17  C   UNL     1      48.791   6.909  14.424  0.00  0.00    +0.000 C 
BRANCH  17  18
ATOM     18  N   UNL     1      48.447   6.766  15.817  0.00  0.00    +0.000 N 
ATOM     19  C   UNL     1      49.324   6.187  16.700  0.00  0.00    +0.000 C 
ATOM     20  O   UNL     1      50.437   5.797  16.351  0.00  0.00    +0.000 OA
ATOM     21  H   UNL     1      47.469   6.872  16.070  0.00  0.00    +0.000 HD
BRANCH  19  22
ATOM     22  C   UNL     1      48.894   6.101  18.101  0.00  0.00    +0.000 A 
ATOM     23  C   UNL     1      49.058   4.911  18.800  0.00  0.00    +0.000 A 
ATOM     24  S   UNL     1      48.551   4.999  20.428  0.00  0.00    +0.000 S 
ATOM     25  C   UNL     1      48.049   6.611  20.236  0.00  0.00    +0.000 A 
ATOM     26  N   UNL     1      47.480   7.308  21.250  0.00  0.00    +0.000 NA
ATOM     27  N   UNL     1      47.094   8.488  21.049  0.00  0.00    +0.000 NA
ATOM     28  N   UNL     1      47.270   9.044  19.813  0.00  0.00    +0.000 N 
ATOM     29  C   UNL     1      47.859   8.438  18.727  0.00  0.00    +0.000 A 
ATOM     30  O   UNL     1      48.007   9.020  17.658  0.00  0.00    +0.000 OA
ATOM     31  C   UNL     1      48.283   7.079  18.963  0.00  0.00    +0.000 A 
ATOM     32  H   UNL     1      46.947   9.996  19.708  0.00  0.00    +0.000 HD
ENDBRANCH  19  22
ENDBRANCH  17  18
ENDBRANCH   4  17
TORSDOF 7
ENDMDL
MODEL 4
REMARK VINA RESULT:    -7.926      2.517      3.029
REMARK INTER + INTRA:         -12.018
REMARK INTER:                 -11.312
REMARK INTRA:                  -0.706
REMARK UNBOUND:                -0.848
REMARK  Name = 
REMARK  8 active torsions:
REMARK  status: ('A' for Active; 'I' for Inactive)
REMARK    1  A    between atoms: C_1  and  N_2
REMARK    2  A    between atoms: N_2  and  C_3
REMARK    3  A    between atoms: N_2  and  C_10
REMARK    4  A    between atoms: C_3  and  C_4
REMARK    5  A    between atoms: C_10  and  C_11
REMARK    6  A    between atoms: C_14  and  C_15
REMARK    7  A    between atoms: C_15  and  N_16
REMARK    8  A    between atoms: C_17  and  C_19
REMARK                            x       y       z     vdW  Elec       q    Type
REMARK                         _______ _______ _______ _____ _____    ______ ____
ROOT
ATOM      1  C   UNL     1      45.992   5.400  12.183  0.00  0.00    +0.000 A 
ATOM      2  C   UNL     1      46.538   4.551  13.155  0.00  0.00    +0.000 A 
ATOM      3  C   UNL     1      47.353   5.061  14.174  0.00  0.00    +0.000 A 
ATOM      4  C   UNL     1      47.642   6.431  14.245  0.00  0.00    +0.000 A 
ATOM      5  C   UNL     1      47.144   7.271  13.242  0.00  0.00    +0.000 A 
ATOM      6  C   UNL     1      46.326   6.763  12.228  0.00  0.00    +0.000 A 
ENDROOT
BRANCH   1   7
ATOM      7  C   UNL     1      45.102   4.862  11.075  0.00  0.00    +0.000 C 
BRANCH   7   9
ATOM      8  C   UNL     1      43.641   3.275  12.185  0.00  0.00    +0.000 C 
ATOM      9  N   UNL     1      44.710   3.432  11.191  0.00  0.00    +0.000 NA
BRANCH   9  10
ATOM     10  C   UNL     1      44.263   2.971   9.854  0.00  0.00    +0.000 C 
BRANCH  10  11
ATOM     11  C   UNL     1      45.344   2.785   8.802  0.00  0.00    +0.000 A 
ATOM     12  C   UNL     1      45.892   1.512   8.570  0.00  0.00    +0.000 A 
ATOM     13  C   UNL     1      46.823   1.309   7.548  0.00  0.00    +0.000 A 
ATOM     14  C   UNL     1      47.220   2.375   6.742  0.00  0.00    +0.000 A 
ATOM     15  C   UNL     1      46.690   3.645   6.969  0.00  0.00    +0.000 A 
ATOM     16  C   UNL     1      45.758   3.850   7.991  0.00  0.00    +0.000 A 
ENDBRANCH  10  11
ENDBRANCH   9  10
ENDBRANCH   7   9
ENDBRANCH   1   7
BRANCH   4  17
ATOM     17  C   UNL     1      48.471   6.992  15.372  0.00  0.00    +0.000 C 
BRANCH  17  18
ATOM     18  N   UNL     1      49.502   6.079  15.800  0.00  0.00    +0.000 N 
ATOM     19  C   UNL     1      49.924   6.060  17.106  0.00  0.00    +0.000 C 
ATOM     20  O   UNL     1      49.427   6.792  17.961  0.00  0.00    +0.000 OA
ATOM     21  H   UNL     1      50.066   5.640  15.078  0.00  0.00    +0.000 HD
BRANCH  19  22
ATOM     22  C   UNL     1      50.964   5.085  17.452  0.00  0.00    +0.000 A 
ATOM     23  C   UNL     1      52.205   5.529  17.893  0.00  0.00    +0.000 A 
ATOM     24  S   UNL     1      53.279   4.265  18.299  0.00  0.00    +0.000 S 
ATOM     25  C   UNL     1      52.141   3.087  17.848  0.00  0.00    +0.000 A 
ATOM     26  N   UNL     1      52.418   1.761  17.914  0.00  0.00    +0.000 NA
ATOM     27  N   UNL     1      51.555   0.929  17.538  0.00  0.00    +0.000 NA
ATOM     28  N   UNL     1      50.349   1.381  17.081  0.00  0.00    +0.000 N 
ATOM     29  C   UNL     1      49.955   2.697  16.999  0.00  0.00    +0.000 A 
ATOM     30  O   UNL     1      48.838   3.019  16.606  0.00  0.00    +0.000 OA
ATOM     31  C   UNL     1      50.958   3.645  17.418  0.00  0.00    +0.000 A 
ATOM     32  H   UNL     1      49.690   0.670  16.796  0.00  0.00    +0.000 HD
ENDBRANCH  19  22
ENDBRANCH  17  18
ENDBRANCH   4  17
TORSDOF 7
ENDMDL
MODEL 5
REMARK VINA RESULT:    -7.512      3.645      8.739
REMARK INTER + INTRA:         -11.434
REMARK INTER:                  -9.173
REMARK INTRA:                  -2.261
REMARK UNBOUND:                -0.848
REMARK  Name = 
REMARK  8 active torsions:
REMARK  status: ('A' for Active; 'I' for Inactive)
REMARK    1  A    between atoms: C_1  and  N_2
REMARK    2  A    between atoms: N_2  and  C_3
REMARK    3  A    between atoms: N_2  and  C_10
REMARK    4  A    between atoms: C_3  and  C_4
REMARK    5  A    between atoms: C_10  and  C_11
REMARK    6  A    between atoms: C_14  and  C_15
REMARK    7  A    between atoms: C_15  and  N_16
REMARK    8  A    between atoms: C_17  and  C_19
REMARK                            x       y       z     vdW  Elec       q    Type
REMARK                         _______ _______ _______ _____ _____    ______ ____
ROOT
ATOM      1  C   UNL     1      49.815   7.177  18.519  0.00  0.00    +0.000 A 
ATOM      2  C   UNL     1      48.764   8.089  18.357  0.00  0.00    +0.000 A 
ATOM      3  C   UNL     1      48.343   8.476  17.078  0.00  0.00    +0.000 A 
ATOM      4  C   UNL     1      48.961   7.959  15.931  0.00  0.00    +0.000 A 
ATOM      5  C   UNL     1      50.048   7.092  16.092  0.00  0.00    +0.000 A 
ATOM      6  C   UNL     1      50.466   6.701  17.369  0.00  0.00    +0.000 A 
ENDROOT
BRANCH   1   7
ATOM      7  C   UNL     1      50.280   6.744  19.900  0.00  0.00    +0.000 C 
BRANCH   7   9
ATOM      8  C   UNL     1      50.944   4.997  21.445  0.00  0.00    +0.000 C 
ATOM      9  N   UNL     1      50.343   5.278  20.135  0.00  0.00    +0.000 NA
BRANCH   9  10
ATOM     10  C   UNL     1      48.960   4.743  20.061  0.00  0.00    +0.000 C 
BRANCH  10  11
ATOM     11  C   UNL     1      48.545   4.114  18.742  0.00  0.00    +0.000 A 
ATOM     12  C   UNL     1      47.430   4.608  18.044  0.00  0.00    +0.000 A 
ATOM     13  C   UNL     1      47.087   4.098  16.789  0.00  0.00    +0.000 A 
ATOM     14  C   UNL     1      47.855   3.088  16.211  0.00  0.00    +0.000 A 
ATOM     15  C   UNL     1      48.960   2.584  16.897  0.00  0.00    +0.000 A 
ATOM     16  C   UNL     1      49.304   3.093  18.154  0.00  0.00    +0.000 A 
ENDBRANCH  10  11
ENDBRANCH   9  10
ENDBRANCH   7   9
ENDBRANCH   1   7
BRANCH   4  17
ATOM     17  C   UNL     1      48.473   8.327  14.554  0.00  0.00    +0.000 C 
BRANCH  17  18
ATOM     18  N   UNL     1      47.407   7.468  14.103  0.00  0.00    +0.000 N 
ATOM     19  C   UNL     1      47.663   6.419  13.254  0.00  0.00    +0.000 C 
ATOM     20  O   UNL     1      48.801   6.155  12.870  0.00  0.00    +0.000 OA
ATOM     21  H   UNL     1      46.455   7.801  14.225  0.00  0.00    +0.000 HD
BRANCH  19  22
ATOM     22  C   UNL     1      46.518   5.588  12.864  0.00  0.00    +0.000 A 
ATOM     23  C   UNL     1      46.562   4.215  13.068  0.00  0.00    +0.000 A 
ATOM     24  S   UNL     1      45.131   3.407  12.605  0.00  0.00    +0.000 S 
ATOM     25  C   UNL     1      44.428   4.858  12.067  0.00  0.00    +0.000 A 
ATOM     26  N   UNL     1      43.191   4.892  11.513  0.00  0.00    +0.000 NA
ATOM     27  N   UNL     1      42.729   5.985  11.100  0.00  0.00    +0.000 NA
ATOM     28  N   UNL     1      43.480   7.119  11.232  0.00  0.00    +0.000 N 
ATOM     29  C   UNL     1      44.730   7.201  11.802  0.00  0.00    +0.000 A 
ATOM     30  O   UNL     1      45.327   8.267  11.910  0.00  0.00    +0.000 OA
ATOM     31  C   UNL     1      45.259   5.939  12.258  0.00  0.00    +0.000 A 
ATOM     32  H   UNL     1      43.058   7.970  10.888  0.00  0.00    +0.000 HD
ENDBRANCH  19  22
ENDBRANCH  17  18
ENDBRANCH   4  17
TORSDOF 7
ENDMDL
MODEL 6
REMARK VINA RESULT:    -7.505      3.649      8.961
REMARK INTER + INTRA:         -11.425
REMARK INTER:                  -9.645
REMARK INTRA:                  -1.780
REMARK UNBOUND:                -0.848
REMARK  Name = 
REMARK  8 active torsions:
REMARK  status: ('A' for Active; 'I' for Inactive)
REMARK    1  A    between atoms: C_1  and  N_2
REMARK    2  A    between atoms: N_2  and  C_3
REMARK    3  A    between atoms: N_2  and  C_10
REMARK    4  A    between atoms: C_3  and  C_4
REMARK    5  A    between atoms: C_10  and  C_11
REMARK    6  A    between atoms: C_14  and  C_15
REMARK    7  A    between atoms: C_15  and  N_16
REMARK    8  A    between atoms: C_17  and  C_19
REMARK                            x       y       z     vdW  Elec       q    Type
REMARK                         _______ _______ _______ _____ _____    ______ ____
ROOT
ATOM      1  C   UNL     1      49.373   8.093  15.986  0.00  0.00    +0.000 A 
ATOM      2  C   UNL     1      48.244   8.838  15.617  0.00  0.00    +0.000 A 
ATOM      3  C   UNL     1      47.739   8.773  14.312  0.00  0.00    +0.000 A 
ATOM      4  C   UNL     1      48.348   7.962  13.346  0.00  0.00    +0.000 A 
ATOM      5  C   UNL     1      49.508   7.261  13.696  0.00  0.00    +0.000 A 
ATOM      6  C   UNL     1      50.011   7.322  15.001  0.00  0.00    +0.000 A 
ENDROOT
BRANCH   1   7
ATOM      7  C   UNL     1      49.930   8.149  17.399  0.00  0.00    +0.000 C 
BRANCH   7   9
ATOM      8  C   UNL     1      51.661   7.267  18.850  0.00  0.00    +0.000 C 
ATOM      9  N   UNL     1      50.619   6.921  17.876  0.00  0.00    +0.000 NA
BRANCH   9  10
ATOM     10  C   UNL     1      49.599   6.032  18.485  0.00  0.00    +0.000 C 
BRANCH  10  11
ATOM     11  C   UNL     1      49.240   4.778  17.706  0.00  0.00    +0.000 A 
ATOM     12  C   UNL     1      50.046   3.631  17.802  0.00  0.00    +0.000 A 
ATOM     13  C   UNL     1      49.683   2.443  17.162  0.00  0.00    +0.000 A 
ATOM     14  C   UNL     1      48.507   2.383  16.416  0.00  0.00    +0.000 A 
ATOM     15  C   UNL     1      47.701   3.517  16.306  0.00  0.00    +0.000 A 
ATOM     16  C   UNL     1      48.064   4.707  16.946  0.00  0.00    +0.000 A 
ENDBRANCH  10  11
ENDBRANCH   9  10
ENDBRANCH   7   9
ENDBRANCH   1   7
BRANCH   4  17
ATOM     17  C   UNL     1      47.774   7.844  11.957  0.00  0.00    +0.000 C 
BRANCH  17  18
ATOM     18  N   UNL     1      47.059   6.607  11.764  0.00  0.00    +0.000 N 
ATOM     19  C   UNL     1      45.696   6.552  11.923  0.00  0.00    +0.000 C 
ATOM     20  O   UNL     1      45.033   7.548  12.207  0.00  0.00    +0.000 OA
ATOM     21  H   UNL     1      47.603   5.749  11.754  0.00  0.00    +0.000 HD
BRANCH  19  22
ATOM     22  C   UNL     1      45.054   5.254  11.688  0.00  0.00    +0.000 A 
ATOM     23  C   UNL     1      44.385   4.618  12.726  0.00  0.00    +0.000 A 
ATOM     24  S   UNL     1      43.654   3.144  12.268  0.00  0.00    +0.000 S 
ATOM     25  C   UNL     1      44.253   3.282  10.684  0.00  0.00    +0.000 A 
ATOM     26  N   UNL     1      44.024   2.330   9.747  0.00  0.00    +0.000 NA
ATOM     27  N   UNL     1      44.516   2.463   8.598  0.00  0.00    +0.000 NA
ATOM     28  N   UNL     1      45.261   3.572   8.316  0.00  0.00    +0.000 N 
ATOM     29  C   UNL     1      45.531   4.609   9.182  0.00  0.00    +0.000 A 
ATOM     30  O   UNL     1      46.186   5.588   8.840  0.00  0.00    +0.000 OA
ATOM     31  C   UNL     1      44.976   4.440  10.502  0.00  0.00    +0.000 A 
ATOM     32  H   UNL     1      45.629   3.630   7.377  0.00  0.00    +0.000 HD
ENDBRANCH  19  22
ENDBRANCH  17  18
ENDBRANCH   4  17
TORSDOF 7
ENDMDL
MODEL 7
REMARK VINA RESULT:    -7.331      3.926      8.357
REMARK INTER + INTRA:         -11.180
REMARK INTER:                  -8.878
REMARK INTRA:                  -2.302
REMARK UNBOUND:                -0.848
REMARK  Name = 
REMARK  8 active torsions:
REMARK  status: ('A' for Active; 'I' for Inactive)
REMARK    1  A    between atoms: C_1  and  N_2
REMARK    2  A    between atoms: N_2  and  C_3
REMARK    3  A    between atoms: N_2  and  C_10
REMARK    4  A    between atoms: C_3  and  C_4
REMARK    5  A    between atoms: C_10  and  C_11
REMARK    6  A    between atoms: C_14  and  C_15
REMARK    7  A    between atoms: C_15  and  N_16
REMARK    8  A    between atoms: C_17  and  C_19
REMARK                            x       y       z     vdW  Elec       q    Type
REMARK                         _______ _______ _______ _____ _____    ______ ____
ROOT
ATOM      1  C   UNL     1      51.247   7.123  17.397  0.00  0.00    +0.000 A 
ATOM      2  C   UNL     1      50.442   8.140  17.930  0.00  0.00    +0.000 A 
ATOM      3  C   UNL     1      49.506   8.806  17.128  0.00  0.00    +0.000 A 
ATOM      4  C   UNL     1      49.351   8.471  15.776  0.00  0.00    +0.000 A 
ATOM      5  C   UNL     1      50.193   7.496  15.228  0.00  0.00    +0.000 A 
ATOM      6  C   UNL     1      51.125   6.827  16.030  0.00  0.00    +0.000 A 
ENDROOT
BRANCH   1   7
ATOM      7  C   UNL     1      52.263   6.389  18.256  0.00  0.00    +0.000 C 
BRANCH   7   9
ATOM      8  C   UNL     1      53.295   4.304  18.942  0.00  0.00    +0.000 C 
ATOM      9  N   UNL     1      52.109   4.912  18.326  0.00  0.00    +0.000 NA
BRANCH   9  10
ATOM     10  C   UNL     1      50.890   4.616  19.119  0.00  0.00    +0.000 C 
BRANCH  10  11
ATOM     11  C   UNL     1      49.650   4.220  18.336  0.00  0.00    +0.000 A 
ATOM     12  C   UNL     1      49.664   3.072  17.525  0.00  0.00    +0.000 A 
ATOM     13  C   UNL     1      48.507   2.645  16.867  0.00  0.00    +0.000 A 
ATOM     14  C   UNL     1      47.318   3.359  17.011  0.00  0.00    +0.000 A 
ATOM     15  C   UNL     1      47.293   4.505  17.806  0.00  0.00    +0.000 A 
ATOM     16  C   UNL     1      48.451   4.933  18.465  0.00  0.00    +0.000 A 
ENDBRANCH  10  11
ENDBRANCH   9  10
ENDBRANCH   7   9
ENDBRANCH   1   7
BRANCH   4  17
ATOM     17  C   UNL     1      48.306   9.144  14.925  0.00  0.00    +0.000 C 
BRANCH  17  18
ATOM     18  N   UNL     1      47.340   8.209  14.402  0.00  0.00    +0.000 N 
ATOM     19  C   UNL     1      47.140   8.090  13.049  0.00  0.00    +0.000 C 
ATOM     20  O   UNL     1      47.787   8.747  12.235  0.00  0.00    +0.000 OA
ATOM     21  H   UNL     1      46.654   7.834  15.052  0.00  0.00    +0.000 HD
BRANCH  19  22
ATOM     22  C   UNL     1      46.150   7.100  12.611  0.00  0.00    +0.000 A 
ATOM     23  C   UNL     1      45.046   7.509  11.873  0.00  0.00    +0.000 A 
ATOM     24  S   UNL     1      44.023   6.226  11.403  0.00  0.00    +0.000 S 
ATOM     25  C   UNL     1      44.992   5.091  12.215  0.00  0.00    +0.000 A 
ATOM     26  N   UNL     1      44.676   3.772  12.247  0.00  0.00    +0.000 NA
ATOM     27  N   UNL     1      45.407   2.977  12.889  0.00  0.00    +0.000 NA
ATOM     28  N   UNL     1      46.514   3.459  13.530  0.00  0.00    +0.000 N 
ATOM     29  C   UNL     1      46.940   4.767  13.538  0.00  0.00    +0.000 A 
ATOM     30  O   UNL     1      47.966   5.113  14.115  0.00  0.00    +0.000 OA
ATOM     31  C   UNL     1      46.086   5.675  12.813  0.00  0.00    +0.000 A 
ATOM     32  H   UNL     1      47.068   2.775  14.027  0.00  0.00    +0.000 HD
ENDBRANCH  19  22
ENDBRANCH  17  18
ENDBRANCH   4  17
TORSDOF 7
ENDMDL
MODEL 8
REMARK VINA RESULT:    -7.296      4.852      7.118
REMARK INTER + INTRA:         -11.130
REMARK INTER:                  -9.976
REMARK INTRA:                  -1.154
REMARK UNBOUND:                -0.848
REMARK  Name = 
REMARK  8 active torsions:
REMARK  status: ('A' for Active; 'I' for Inactive)
REMARK    1  A    between atoms: C_1  and  N_2
REMARK    2  A    between atoms: N_2  and  C_3
REMARK    3  A    between atoms: N_2  and  C_10
REMARK    4  A    between atoms: C_3  and  C_4
REMARK    5  A    between atoms: C_10  and  C_11
REMARK    6  A    between atoms: C_14  and  C_15
REMARK    7  A    between atoms: C_15  and  N_16
REMARK    8  A    between atoms: C_17  and  C_19
REMARK                            x       y       z     vdW  Elec       q    Type
REMARK                         _______ _______ _______ _____ _____    ______ ____
ROOT
ATOM      1  C   UNL     1      45.744   5.617  12.083  0.00  0.00    +0.000 A 
ATOM      2  C   UNL     1      46.371   5.273  13.288  0.00  0.00    +0.000 A 
ATOM      3  C   UNL     1      47.606   5.835  13.638  0.00  0.00    +0.000 A 
ATOM      4  C   UNL     1      48.242   6.755  12.794  0.00  0.00    +0.000 A 
ATOM      5  C   UNL     1      47.645   7.057  11.564  0.00  0.00    +0.000 A 
ATOM      6  C   UNL     1      46.409   6.499  11.216  0.00  0.00    +0.000 A 
ENDROOT
BRANCH   1   7
ATOM      7  C   UNL     1      44.402   5.020  11.692  0.00  0.00    +0.000 C 
BRANCH   7   9
ATOM      8  C   UNL     1      43.411   2.810  11.565  0.00  0.00    +0.000 C 
ATOM      9  N   UNL     1      44.451   3.693  11.024  0.00  0.00    +0.000 NA
BRANCH   9  10
ATOM     10  C   UNL     1      44.260   3.907   9.568  0.00  0.00    +0.000 C 
BRANCH  10  11
ATOM     11  C   UNL     1      45.223   3.184   8.642  0.00  0.00    +0.000 A 
ATOM     12  C   UNL     1      45.925   3.899   7.656  0.00  0.00    +0.000 A 
ATOM     13  C   UNL     1      46.879   3.265   6.854  0.00  0.00    +0.000 A 
ATOM     14  C   UNL     1      47.147   1.908   7.028  0.00  0.00    +0.000 A 
ATOM     15  C   UNL     1      46.451   1.186   7.998  0.00  0.00    +0.000 A 
ATOM     16  C   UNL     1      45.496   1.819   8.801  0.00  0.00    +0.000 A 
ENDBRANCH  10  11
ENDBRANCH   9  10
ENDBRANCH   7   9
ENDBRANCH   1   7
BRANCH   4  17
ATOM     17  C   UNL     1      49.541   7.406  13.192  0.00  0.00    +0.000 C 
BRANCH  17  18
ATOM     18  N   UNL     1      50.150   8.125  12.101  0.00  0.00    +0.000 N 
ATOM     19  C   UNL     1      51.177   9.008  12.329  0.00  0.00    +0.000 C 
ATOM     20  O   UNL     1      51.633   9.199  13.455  0.00  0.00    +0.000 OA
ATOM     21  H   UNL     1      49.647   8.150  11.219  0.00  0.00    +0.000 HD
BRANCH  19  22
ATOM     22  C   UNL     1      51.746   9.680  11.155  0.00  0.00    +0.000 A 
ATOM     23  C   UNL     1      51.735  11.068  11.083  0.00  0.00    +0.000 A 
ATOM     24  S   UNL     1      52.480  11.686   9.676  0.00  0.00    +0.000 S 
ATOM     25  C   UNL     1      52.790  10.120   9.093  0.00  0.00    +0.000 A 
ATOM     26  N   UNL     1      53.392   9.909   7.897  0.00  0.00    +0.000 NA
ATOM     27  N   UNL     1      53.570   8.731   7.494  0.00  0.00    +0.000 NA
ATOM     28  N   UNL     1      53.163   7.690   8.280  0.00  0.00    +0.000 N 
ATOM     29  C   UNL     1      52.571   7.792   9.518  0.00  0.00    +0.000 A 
ATOM     30  O   UNL     1      52.262   6.803  10.175  0.00  0.00    +0.000 OA
ATOM     31  C   UNL     1      52.355   9.146   9.964  0.00  0.00    +0.000 A 
ATOM     32  H   UNL     1      53.335   6.765   7.910  0.00  0.00    +0.000 HD
ENDBRANCH  19  22
ENDBRANCH  17  18
ENDBRANCH   4  17
TORSDOF 7
ENDMDL
MODEL 9
REMARK VINA RESULT:    -7.093      2.527      3.232
REMARK INTER + INTRA:         -10.844
REMARK INTER:                  -9.785
REMARK INTRA:                  -1.059
REMARK UNBOUND:                -0.848
REMARK  Name = 
REMARK  8 active torsions:
REMARK  status: ('A' for Active; 'I' for Inactive)
REMARK    1  A    between atoms: C_1  and  N_2
REMARK    2  A    between atoms: N_2  and  C_3
REMARK    3  A    between atoms: N_2  and  C_10
REMARK    4  A    between atoms: C_3  and  C_4
REMARK    5  A    between atoms: C_10  and  C_11
REMARK    6  A    between atoms: C_14  and  C_15
REMARK    7  A    between atoms: C_15  and  N_16
REMARK    8  A    between atoms: C_17  and  C_19
REMARK                            x       y       z     vdW  Elec       q    Type
REMARK                         _______ _______ _______ _____ _____    ______ ____
ROOT
ATOM      1  C   UNL     1      45.015   5.540  12.439  0.00  0.00    +0.000 A 
ATOM      2  C   UNL     1      46.160   5.285  13.205  0.00  0.00    +0.000 A 
ATOM      3  C   UNL     1      47.177   6.243  13.313  0.00  0.00    +0.000 A 
ATOM      4  C   UNL     1      47.073   7.478  12.660  0.00  0.00    +0.000 A 
ATOM      5  C   UNL     1      45.957   7.712  11.848  0.00  0.00    +0.000 A 
ATOM      6  C   UNL     1      44.938   6.757  11.743  0.00  0.00    +0.000 A 
ENDROOT
BRANCH   1   7
ATOM      7  C   UNL     1      43.901   4.513  12.316  0.00  0.00    +0.000 C 
BRANCH   7   9
ATOM      8  C   UNL     1      43.270   2.239  11.753  0.00  0.00    +0.000 C 
ATOM      9  N   UNL     1      44.189   3.342  11.446  0.00  0.00    +0.000 NA
BRANCH   9  10
ATOM     10  C   UNL     1      44.043   3.775  10.034  0.00  0.00    +0.000 C 
BRANCH  10  11
ATOM     11  C   UNL     1      45.118   3.310   9.066  0.00  0.00    +0.000 A 
ATOM     12  C   UNL     1      45.386   1.939   8.915  0.00  0.00    +0.000 A 
ATOM     13  C   UNL     1      46.310   1.490   7.967  0.00  0.00    +0.000 A 
ATOM     14  C   UNL     1      46.979   2.405   7.155  0.00  0.00    +0.000 A 
ATOM     15  C   UNL     1      46.727   3.769   7.301  0.00  0.00    +0.000 A 
ATOM     16  C   UNL     1      45.803   4.220   8.250  0.00  0.00    +0.000 A 
ENDBRANCH  10  11
ENDBRANCH   9  10
ENDBRANCH   7   9
ENDBRANCH   1   7
BRANCH   4  17
ATOM     17  C   UNL     1      48.137   8.533  12.819  0.00  0.00    +0.000 C 
BRANCH  17  18
ATOM     18  N   UNL     1      49.343   8.008  13.409  0.00  0.00    +0.000 N 
ATOM     19  C   UNL     1      49.730   8.388  14.671  0.00  0.00    +0.000 C 
ATOM     20  O   UNL     1      49.058   9.160  15.353  0.00  0.00    +0.000 OA
ATOM     21  H   UNL     1      50.010   7.559  12.788  0.00  0.00    +0.000 HD
BRANCH  19  22
ATOM     22  C   UNL     1      50.962   7.788  15.195  0.00  0.00    +0.000 A 
ATOM     23  C   UNL     1      52.196   8.261  14.765  0.00  0.00    +0.000 A 
ATOM     24  S   UNL     1      53.523   7.487  15.510  0.00  0.00    +0.000 S 
ATOM     25  C   UNL     1      52.494   6.460  16.389  0.00  0.00    +0.000 A 
ATOM     26  N   UNL     1      52.977   5.507  17.224  0.00  0.00    +0.000 NA
ATOM     27  N   UNL     1      52.175   4.751  17.827  0.00  0.00    +0.000 NA
ATOM     28  N   UNL     1      50.832   4.915  17.637  0.00  0.00    +0.000 N 
ATOM     29  C   UNL     1      50.237   5.865  16.838  0.00  0.00    +0.000 A 
ATOM     30  O   UNL     1      49.018   5.966  16.745  0.00  0.00    +0.000 OA
ATOM     31  C   UNL     1      51.165   6.717  16.137  0.00  0.00    +0.000 A 
ATOM     32  H   UNL     1      50.233   4.283  18.150  0.00  0.00    +0.000 HD
ENDBRANCH  19  22
ENDBRANCH  17  18
ENDBRANCH   4  17
TORSDOF 7
ENDMDL
