MODEL 1
REMARK VINA RESULT:    -7.872      0.000      0.000
REMARK INTER + INTRA:         -10.899
REMARK INTER:                 -10.403
REMARK INTRA:                  -0.496
REMARK UNBOUND:                -0.496
REMARK  Name = 
REMARK  6 active torsions:
REMARK  status: ('A' for Active; 'I' for Inactive)
REMARK    1  A    between atoms: C_2  and  C_4
REMARK    2  A    between atoms: C_7  and  O_8
REMARK    3  A    between atoms: C_9  and  N_10
REMARK    4  A    between atoms: N_10  and  C_11
REMARK    5  A    between atoms: C_11  and  C_12
REMARK    6  A    between atoms: C_17  and  N_18
REMARK                            x       y       z     vdW  Elec       q    Type
REMARK                         _______ _______ _______ _____ _____    ______ ____
ROOT
ATOM      1  N   UNL     1      44.329   4.870   9.318  0.00  0.00    +0.000 N 
ATOM      2  H   UNL     1      44.733   5.706   8.905  0.00  0.00    +0.000 HD
ENDROOT
BRANCH   1   7
ATOM      3  C   UNL     1      46.484   2.640   7.298  0.00  0.00    +0.000 A 
ATOM      4  C   UNL     1      46.188   1.376   7.809  0.00  0.00    +0.000 A 
ATOM      5  C   UNL     1      45.288   1.252   8.863  0.00  0.00    +0.000 A 
ATOM      6  C   UNL     1      44.678   2.392   9.405  0.00  0.00    +0.000 A 
ATOM      7  C   UNL     1      44.972   3.687   8.930  0.00  0.00    +0.000 A 
ATOM      8  C   UNL     1      45.888   3.780   7.865  0.00  0.00    +0.000 A 
BRANCH   3  10
ATOM      9  N   UNL     1      48.755   2.647   6.426  0.00  0.00    +0.000 N 
ATOM     10  C   UNL     1      47.422   2.819   6.163  0.00  0.00    +0.000 C 
ATOM     11  O   UNL     1      47.031   3.073   5.031  0.00  0.00    +0.000 OA
ATOM     12  H   UNL     1      49.370   2.649   5.625  0.00  0.00    +0.000 HD
ATOM     13  H   UNL     1      49.083   2.184   7.264  0.00  0.00    +0.000 HD
ENDBRANCH   3  10
BRANCH   6  14
ATOM     14  O   UNL     1      43.793   2.209  10.435  0.00  0.00    +0.000 OA
ATOM     15  H   UNL     1      43.947   2.886  11.113  0.00  0.00    +0.000 HD
ENDBRANCH   6  14
ENDBRANCH   1   7
BRANCH   1  16
ATOM     16  C   UNL     1      43.867   5.055  10.682  0.00  0.00    +0.000 C 
BRANCH  16  17
ATOM     17  C   UNL     1      45.036   5.301  11.613  0.00  0.00    +0.000 A 
ATOM     18  C   UNL     1      45.297   4.426  12.665  0.00  0.00    +0.000 A 
ATOM     19  C   UNL     1      46.315   4.719  13.565  0.00  0.00    +0.000 A 
ATOM     20  C   UNL     1      47.091   5.883  13.424  0.00  0.00    +0.000 A 
ATOM     21 CL   UNL     1      48.177   6.189  14.745  0.00  0.00    +0.000 Cl
ATOM     22  C   UNL     1      46.909   6.770  12.334  0.00  0.00    +0.000 A 
ATOM     23  C   UNL     1      45.862   6.430  11.445  0.00  0.00    +0.000 A 
BRANCH  22  24
ATOM     24  N   UNL     1      47.671   7.897  12.068  0.00  0.00    +0.000 N 
ATOM     25  C   UNL     1      49.016   7.824  11.469  0.00  0.00    +0.000 C 
ATOM     26  C   UNL     1      49.980   8.712  12.270  0.00  0.00    +0.000 C 
ATOM     27  O   UNL     1      49.518  10.072  12.309  0.00  0.00    +0.000 OA
ATOM     28  C   UNL     1      48.228  10.136  12.937  0.00  0.00    +0.000 C 
ATOM     29  C   UNL     1      47.177   9.277  12.210  0.00  0.00    +0.000 C 
ENDBRANCH  22  24
ENDBRANCH  16  17
ENDBRANCH   1  16
TORSDOF 6
ENDMDL
MODEL 2
REMARK VINA RESULT:    -7.499      2.448      3.410
REMARK INTER + INTRA:         -10.406
REMARK INTER:                  -9.932
REMARK INTRA:                  -0.475
REMARK UNBOUND:                -0.496
REMARK  Name = 
REMARK  6 active torsions:
REMARK  status: ('A' for Active; 'I' for Inactive)
REMARK    1  A    between atoms: C_2  and  C_4
REMARK    2  A    between atoms: C_7  and  O_8
REMARK    3  A    between atoms: C_9  and  N_10
REMARK    4  A    between atoms: N_10  and  C_11
REMARK    5  A    between atoms: C_11  and  C_12
REMARK    6  A    between atoms: C_17  and  N_18
REMARK                            x       y       z     vdW  Elec       q    Type
REMARK                         _______ _______ _______ _____ _____    ______ ____
ROOT
ATOM      1  N   UNL     1      43.882   5.520  10.515  0.00  0.00    +0.000 N 
ATOM      2  H   UNL     1      44.105   6.309   9.914  0.00  0.00    +0.000 HD
ENDROOT
BRANCH   1   7
ATOM      3  C   UNL     1      45.746   3.189   8.327  0.00  0.00    +0.000 A 
ATOM      4  C   UNL     1      45.269   1.940   8.727  0.00  0.00    +0.000 A 
ATOM      5  C   UNL     1      44.342   1.855   9.760  0.00  0.00    +0.000 A 
ATOM      6  C   UNL     1      43.885   3.019  10.392  0.00  0.00    +0.000 A 
ATOM      7  C   UNL     1      44.363   4.296  10.031  0.00  0.00    +0.000 A 
ATOM      8  C   UNL     1      45.302   4.349   8.985  0.00  0.00    +0.000 A 
BRANCH   3  10
ATOM      9  N   UNL     1      47.599   2.297   7.028  0.00  0.00    +0.000 N 
ATOM     10  C   UNL     1      46.721   3.329   7.217  0.00  0.00    +0.000 C 
ATOM     11  O   UNL     1      46.726   4.305   6.477  0.00  0.00    +0.000 OA
ATOM     12  H   UNL     1      48.173   2.347   6.198  0.00  0.00    +0.000 HD
ATOM     13  H   UNL     1      47.451   1.382   7.436  0.00  0.00    +0.000 HD
ENDBRANCH   3  10
BRANCH   6  14
ATOM     14  O   UNL     1      42.964   2.875  11.398  0.00  0.00    +0.000 OA
ATOM     15  H   UNL     1      42.120   3.263  11.117  0.00  0.00    +0.000 HD
ENDBRANCH   6  14
ENDBRANCH   1   7
BRANCH   1  16
ATOM     16  C   UNL     1      43.926   5.832  11.932  0.00  0.00    +0.000 C 
BRANCH  16  17
ATOM     17  C   UNL     1      45.321   6.251  12.344  0.00  0.00    +0.000 A 
ATOM     18  C   UNL     1      46.041   7.163  11.575  0.00  0.00    +0.000 A 
ATOM     19  C   UNL     1      47.355   7.463  11.916  0.00  0.00    +0.000 A 
ATOM     20  C   UNL     1      47.966   6.863  13.032  0.00  0.00    +0.000 A 
ATOM     21 CL   UNL     1      49.664   7.198  13.188  0.00  0.00    +0.000 Cl
ATOM     22  C   UNL     1      47.257   5.980  13.883  0.00  0.00    +0.000 A 
ATOM     23  C   UNL     1      45.924   5.706  13.495  0.00  0.00    +0.000 A 
BRANCH  22  24
ATOM     24  N   UNL     1      47.748   5.401  15.043  0.00  0.00    +0.000 N 
ATOM     25  C   UNL     1      47.440   4.012  15.430  0.00  0.00    +0.000 C 
ATOM     26  C   UNL     1      47.014   3.977  16.906  0.00  0.00    +0.000 C 
ATOM     27  O   UNL     1      48.039   4.522  17.752  0.00  0.00    +0.000 OA
ATOM     28  C   UNL     1      48.298   5.889  17.396  0.00  0.00    +0.000 C 
ATOM     29  C   UNL     1      48.736   6.041  15.928  0.00  0.00    +0.000 C 
ENDBRANCH  22  24
ENDBRANCH  16  17
ENDBRANCH   1  16
TORSDOF 6
ENDMDL
MODEL 3
REMARK VINA RESULT:    -7.151      1.730      2.378
REMARK INTER + INTRA:          -9.946
REMARK INTER:                  -9.650
REMARK INTRA:                  -0.295
REMARK UNBOUND:                -0.496
REMARK  Name = 
REMARK  6 active torsions:
REMARK  status: ('A' for Active; 'I' for Inactive)
REMARK    1  A    between atoms: C_2  and  C_4
REMARK    2  A    between atoms: C_7  and  O_8
REMARK    3  A    between atoms: C_9  and  N_10
REMARK    4  A    between atoms: N_10  and  C_11
REMARK    5  A    between atoms: C_11  and  C_12
REMARK    6  A    between atoms: C_17  and  N_18
REMARK                            x       y       z     vdW  Elec       q    Type
REMARK                         _______ _______ _______ _____ _____    ______ ____
ROOT
ATOM      1  N   UNL     1      45.017   5.355   9.595  0.00  0.00    +0.000 N 
ATOM      2  H   UNL     1      45.624   6.043   9.158  0.00  0.00    +0.000 HD
ENDROOT
BRANCH   1   7
ATOM      3  C   UNL     1      46.506   2.604   7.618  0.00  0.00    +0.000 A 
ATOM      4  C   UNL     1      45.802   1.485   8.064  0.00  0.00    +0.000 A 
ATOM      5  C   UNL     1      44.842   1.627   9.060  0.00  0.00    +0.000 A 
ATOM      6  C   UNL     1      44.579   2.889   9.608  0.00  0.00    +0.000 A 
ATOM      7  C   UNL     1      45.287   4.038   9.199  0.00  0.00    +0.000 A 
ATOM      8  C   UNL     1      46.255   3.862   8.192  0.00  0.00    +0.000 A 
BRANCH   3  10
ATOM      9  N   UNL     1      47.377   3.332   5.466  0.00  0.00    +0.000 N 
ATOM     10  C   UNL     1      47.526   2.503   6.545  0.00  0.00    +0.000 C 
ATOM     11  O   UNL     1      48.482   1.742   6.628  0.00  0.00    +0.000 OA
ATOM     12  H   UNL     1      48.140   3.343   4.804  0.00  0.00    +0.000 HD
ATOM     13  H   UNL     1      46.770   4.141   5.489  0.00  0.00    +0.000 HD
ENDBRANCH   3  10
BRANCH   6  14
ATOM     14  O   UNL     1      43.615   2.971  10.580  0.00  0.00    +0.000 OA
ATOM     15  H   UNL     1      43.911   2.487  11.366  0.00  0.00    +0.000 HD
ENDBRANCH   6  14
ENDBRANCH   1   7
BRANCH   1  16
ATOM     16  C   UNL     1      44.674   5.665  10.971  0.00  0.00    +0.000 C 
BRANCH  16  17
ATOM     17  C   UNL     1      45.421   6.895  11.443  0.00  0.00    +0.000 A 
ATOM     18  C   UNL     1      44.770   8.122  11.542  0.00  0.00    +0.000 A 
ATOM     19  C   UNL     1      45.494   9.259  11.885  0.00  0.00    +0.000 A 
ATOM     20  C   UNL     1      46.875   9.185  12.142  0.00  0.00    +0.000 A 
ATOM     21 CL   UNL     1      47.649  10.725  12.356  0.00  0.00    +0.000 Cl
ATOM     22  C   UNL     1      47.570   7.950  12.119  0.00  0.00    +0.000 A 
ATOM     23  C   UNL     1      46.790   6.823  11.765  0.00  0.00    +0.000 A 
BRANCH  22  24
ATOM     24  N   UNL     1      48.908   7.767  12.431  0.00  0.00    +0.000 N 
ATOM     25  C   UNL     1      49.370   7.449  13.795  0.00  0.00    +0.000 C 
ATOM     26  C   UNL     1      50.548   8.365  14.160  0.00  0.00    +0.000 C 
ATOM     27  O   UNL     1      51.624   8.223  13.216  0.00  0.00    +0.000 OA
ATOM     28  C   UNL     1      51.174   8.579  11.900  0.00  0.00    +0.000 C 
ATOM     29  C   UNL     1      49.988   7.718  11.431  0.00  0.00    +0.000 C 
ENDBRANCH  22  24
ENDBRANCH  16  17
ENDBRANCH   1  16
TORSDOF 6
ENDMDL
MODEL 4
REMARK VINA RESULT:    -7.028      4.281      8.127
REMARK INTER + INTRA:          -9.784
REMARK INTER:                  -9.070
REMARK INTRA:                  -0.714
REMARK UNBOUND:                -0.496
REMARK  Name = 
REMARK  6 active torsions:
REMARK  status: ('A' for Active; 'I' for Inactive)
REMARK    1  A    between atoms: C_2  and  C_4
REMARK    2  A    between atoms: C_7  and  O_8
REMARK    3  A    between atoms: C_9  and  N_10
REMARK    4  A    between atoms: N_10  and  C_11
REMARK    5  A    between atoms: C_11  and  C_12
REMARK    6  A    between atoms: C_17  and  N_18
REMARK                            x       y       z     vdW  Elec       q    Type
REMARK                         _______ _______ _______ _____ _____    ______ ____
ROOT
ATOM      1  N   UNL     1      48.104   6.670  15.857  0.00  0.00    +0.000 N 
ATOM      2  H   UNL     1      47.199   7.124  15.946  0.00  0.00    +0.000 HD
ENDROOT
BRANCH   1   7
ATOM      3  C   UNL     1      49.204   3.528  17.476  0.00  0.00    +0.000 A 
ATOM      4  C   UNL     1      48.799   3.703  18.800  0.00  0.00    +0.000 A 
ATOM      5  C   UNL     1      48.183   4.891  19.181  0.00  0.00    +0.000 A 
ATOM      6  C   UNL     1      47.965   5.904  18.238  0.00  0.00    +0.000 A 
ATOM      7  C   UNL     1      48.382   5.772  16.897  0.00  0.00    +0.000 A 
ATOM      8  C   UNL     1      49.005   4.561  16.543  0.00  0.00    +0.000 A 
BRANCH   3  10
ATOM      9  N   UNL     1      50.872   1.786  17.786  0.00  0.00    +0.000 N 
ATOM     10  C   UNL     1      49.847   2.272  17.020  0.00  0.00    +0.000 C 
ATOM     11  O   UNL     1      49.463   1.670  16.025  0.00  0.00    +0.000 OA
ATOM     12  H   UNL     1      51.219   0.870  17.537  0.00  0.00    +0.000 HD
ATOM     13  H   UNL     1      51.032   2.101  18.734  0.00  0.00    +0.000 HD
ENDBRANCH   3  10
BRANCH   6  14
ATOM     14  O   UNL     1      47.345   7.049  18.668  0.00  0.00    +0.000 OA
ATOM     15  H   UNL     1      46.705   7.337  17.998  0.00  0.00    +0.000 HD
ENDBRANCH   6  14
ENDBRANCH   1   7
BRANCH   1  16
ATOM     16  C   UNL     1      48.476   6.364  14.488  0.00  0.00    +0.000 C 
BRANCH  16  17
ATOM     17  C   UNL     1      47.393   6.811  13.528  0.00  0.00    +0.000 A 
ATOM     18  C   UNL     1      47.335   8.134  13.096  0.00  0.00    +0.000 A 
ATOM     19  C   UNL     1      46.279   8.548  12.291  0.00  0.00    +0.000 A 
ATOM     20  C   UNL     1      45.273   7.646  11.900  0.00  0.00    +0.000 A 
ATOM     21 CL   UNL     1      43.935   8.379  11.069  0.00  0.00    +0.000 Cl
ATOM     22  C   UNL     1      45.322   6.276  12.258  0.00  0.00    +0.000 A 
ATOM     23  C   UNL     1      46.415   5.903  13.077  0.00  0.00    +0.000 A 
BRANCH  22  24
ATOM     24  N   UNL     1      44.423   5.300  11.859  0.00  0.00    +0.000 N 
ATOM     25  C   UNL     1      43.488   4.650  12.796  0.00  0.00    +0.000 C 
ATOM     26  C   UNL     1      43.537   3.128  12.592  0.00  0.00    +0.000 C 
ATOM     27  O   UNL     1      43.216   2.779  11.235  0.00  0.00    +0.000 OA
ATOM     28  C   UNL     1      44.160   3.380  10.335  0.00  0.00    +0.000 C 
ATOM     29  C   UNL     1      44.193   4.914  10.456  0.00  0.00    +0.000 C 
ENDBRANCH  22  24
ENDBRANCH  16  17
ENDBRANCH   1  16
TORSDOF 6
ENDMDL
MODEL 5
REMARK VINA RESULT:    -6.957      1.450      1.945
REMARK INTER + INTRA:          -9.690
REMARK INTER:                  -9.257
REMARK INTRA:                  -0.433
REMARK UNBOUND:                -0.496
REMARK  Name = 
REMARK  6 active torsions:
REMARK  status: ('A' for Active; 'I' for Inactive)
REMARK    1  A    between atoms: C_2  and  C_4
REMARK    2  A    between atoms: C_7  and  O_8
REMARK    3  A    between atoms: C_9  and  N_10
REMARK    4  A    between atoms: N_10  and  C_11
REMARK    5  A    between atoms: C_11  and  C_12
REMARK    6  A    between atoms: C_17  and  N_18
REMARK                            x       y       z     vdW  Elec       q    Type
REMARK                         _______ _______ _______ _____ _____    ______ ____
ROOT
ATOM      1  N   UNL     1      44.377   5.440  10.520  0.00  0.00    +0.000 N 
ATOM      2  H   UNL     1      43.509   5.844  10.179  0.00  0.00    +0.000 HD
ENDROOT
BRANCH   1   7
ATOM      3  C   UNL     1      45.902   3.151   8.043  0.00  0.00    +0.000 A 
ATOM      4  C   UNL     1      45.311   1.925   8.349  0.00  0.00    +0.000 A 
ATOM      5  C   UNL     1      44.418   1.836   9.412  0.00  0.00    +0.000 A 
ATOM      6  C   UNL     1      44.110   2.974  10.169  0.00  0.00    +0.000 A 
ATOM      7  C   UNL     1      44.708   4.225   9.905  0.00  0.00    +0.000 A 
ATOM      8  C   UNL     1      45.609   4.282   8.825  0.00  0.00    +0.000 A 
BRANCH   3  10
ATOM      9  N   UNL     1      47.924   2.455   6.884  0.00  0.00    +0.000 N 
ATOM     10  C   UNL     1      46.846   3.297   6.908  0.00  0.00    +0.000 C 
ATOM     11  O   UNL     1      46.658   4.107   6.008  0.00  0.00    +0.000 OA
ATOM     12  H   UNL     1      48.489   2.479   6.047  0.00  0.00    +0.000 HD
ATOM     13  H   UNL     1      47.965   1.616   7.449  0.00  0.00    +0.000 HD
ENDBRANCH   3  10
BRANCH   6  14
ATOM     14  O   UNL     1      43.217   2.829  11.199  0.00  0.00    +0.000 OA
ATOM     15  H   UNL     1      43.697   2.586  12.007  0.00  0.00    +0.000 HD
ENDBRANCH   6  14
ENDBRANCH   1   7
BRANCH   1  16
ATOM     16  C   UNL     1      45.401   6.422  10.829  0.00  0.00    +0.000 C 
BRANCH  16  17
ATOM     17  C   UNL     1      46.145   6.039  12.091  0.00  0.00    +0.000 A 
ATOM     18  C   UNL     1      45.915   4.808  12.700  0.00  0.00    +0.000 A 
ATOM     19  C   UNL     1      46.536   4.513  13.909  0.00  0.00    +0.000 A 
ATOM     20  C   UNL     1      47.400   5.438  14.521  0.00  0.00    +0.000 A 
ATOM     21 CL   UNL     1      47.924   4.987  16.115  0.00  0.00    +0.000 Cl
ATOM     22  C   UNL     1      47.718   6.676  13.910  0.00  0.00    +0.000 A 
ATOM     23  C   UNL     1      47.062   6.931  12.682  0.00  0.00    +0.000 A 
BRANCH  22  24
ATOM     24  N   UNL     1      48.612   7.616  14.397  0.00  0.00    +0.000 N 
ATOM     25  C   UNL     1      48.178   8.903  14.972  0.00  0.00    +0.000 C 
ATOM     26  C   UNL     1      49.016  10.040  14.366  0.00  0.00    +0.000 C 
ATOM     27  O   UNL     1      50.419   9.829  14.600  0.00  0.00    +0.000 OA
ATOM     28  C   UNL     1      50.839   8.596  13.996  0.00  0.00    +0.000 C 
ATOM     29  C   UNL     1      50.060   7.382  14.534  0.00  0.00    +0.000 C 
ENDBRANCH  22  24
ENDBRANCH  16  17
ENDBRANCH   1  16
TORSDOF 6
ENDMDL
MODEL 6
REMARK VINA RESULT:    -6.944      3.459      4.230
REMARK INTER + INTRA:          -9.672
REMARK INTER:                  -9.074
REMARK INTRA:                  -0.598
REMARK UNBOUND:                -0.496
REMARK  Name = 
REMARK  6 active torsions:
REMARK  status: ('A' for Active; 'I' for Inactive)
REMARK    1  A    between atoms: C_2  and  C_4
REMARK    2  A    between atoms: C_7  and  O_8
REMARK    3  A    between atoms: C_9  and  N_10
REMARK    4  A    between atoms: N_10  and  C_11
REMARK    5  A    between atoms: C_11  and  C_12
REMARK    6  A    between atoms: C_17  and  N_18
REMARK                            x       y       z     vdW  Elec       q    Type
REMARK                         _______ _______ _______ _____ _____    ______ ____
ROOT
ATOM      1  N   UNL     1      44.572   5.449  10.167  0.00  0.00    +0.000 N 
ATOM      2  H   UNL     1      44.688   6.187   9.478  0.00  0.00    +0.000 HD
ENDROOT
BRANCH   1   7
ATOM      3  C   UNL     1      46.155   2.902   7.998  0.00  0.00    +0.000 A 
ATOM      4  C   UNL     1      45.495   1.729   8.365  0.00  0.00    +0.000 A 
ATOM      5  C   UNL     1      44.534   1.763   9.370  0.00  0.00    +0.000 A 
ATOM      6  C   UNL     1      44.226   2.974  10.006  0.00  0.00    +0.000 A 
ATOM      7  C   UNL     1      44.890   4.174   9.679  0.00  0.00    +0.000 A 
ATOM      8  C   UNL     1      45.859   4.106   8.661  0.00  0.00    +0.000 A 
BRANCH   3  10
ATOM      9  N   UNL     1      46.971   3.787   5.885  0.00  0.00    +0.000 N 
ATOM     10  C   UNL     1      47.174   2.915   6.920  0.00  0.00    +0.000 C 
ATOM     11  O   UNL     1      48.173   2.208   6.962  0.00  0.00    +0.000 OA
ATOM     12  H   UNL     1      47.729   3.876   5.222  0.00  0.00    +0.000 HD
ATOM     13  H   UNL     1      46.317   4.557   5.949  0.00  0.00    +0.000 HD
ENDBRANCH   3  10
BRANCH   6  14
ATOM     14  O   UNL     1      43.264   2.950  10.983  0.00  0.00    +0.000 OA
ATOM     15  H   UNL     1      42.872   3.834  11.067  0.00  0.00    +0.000 HD
ENDBRANCH   6  14
ENDBRANCH   1   7
BRANCH   1  16
ATOM     16  C   UNL     1      44.935   5.843  11.516  0.00  0.00    +0.000 C 
BRANCH  16  17
ATOM     17  C   UNL     1      45.323   7.306  11.558  0.00  0.00    +0.000 A 
ATOM     18  C   UNL     1      46.558   7.695  12.070  0.00  0.00    +0.000 A 
ATOM     19  C   UNL     1      46.858   9.048  12.189  0.00  0.00    +0.000 A 
ATOM     20  C   UNL     1      45.933  10.030  11.792  0.00  0.00    +0.000 A 
ATOM     21 CL   UNL     1      46.393  11.655  12.197  0.00  0.00    +0.000 Cl
ATOM     22  C   UNL     1      44.690   9.686  11.204  0.00  0.00    +0.000 A 
ATOM     23  C   UNL     1      44.431   8.298  11.104  0.00  0.00    +0.000 A 
BRANCH  22  24
ATOM     24  N   UNL     1      43.750  10.579  10.714  0.00  0.00    +0.000 N 
ATOM     25  C   UNL     1      42.494  10.881  11.426  0.00  0.00    +0.000 C 
ATOM     26  C   UNL     1      41.319  10.807  10.440  0.00  0.00    +0.000 C 
ATOM     27  O   UNL     1      41.508  11.715   9.342  0.00  0.00    +0.000 OA
ATOM     28  C   UNL     1      42.710  11.382   8.629  0.00  0.00    +0.000 C 
ATOM     29  C   UNL     1      43.958  11.426   9.528  0.00  0.00    +0.000 C 
ENDBRANCH  22  24
ENDBRANCH  16  17
ENDBRANCH   1  16
TORSDOF 6
ENDMDL
MODEL 7
REMARK VINA RESULT:    -6.930      3.394      5.087
REMARK INTER + INTRA:          -9.655
REMARK INTER:                  -8.891
REMARK INTRA:                  -0.763
REMARK UNBOUND:                -0.496
REMARK  Name = 
REMARK  6 active torsions:
REMARK  status: ('A' for Active; 'I' for Inactive)
REMARK    1  A    between atoms: C_2  and  C_4
REMARK    2  A    between atoms: C_7  and  O_8
REMARK    3  A    between atoms: C_9  and  N_10
REMARK    4  A    between atoms: N_10  and  C_11
REMARK    5  A    between atoms: C_11  and  C_12
REMARK    6  A    between atoms: C_17  and  N_18
REMARK                            x       y       z     vdW  Elec       q    Type
REMARK                         _______ _______ _______ _____ _____    ______ ____
ROOT
ATOM      1  N   UNL     1      45.482   7.059  12.655  0.00  0.00    +0.000 N 
ATOM      2  H   UNL     1      44.837   7.794  12.934  0.00  0.00    +0.000 HD
ENDROOT
BRANCH   1   7
ATOM      3  C   UNL     1      44.859   4.673   9.895  0.00  0.00    +0.000 A 
ATOM      4  C   UNL     1      43.643   4.092  10.256  0.00  0.00    +0.000 A 
ATOM      5  C   UNL     1      43.029   4.462  11.448  0.00  0.00    +0.000 A 
ATOM      6  C   UNL     1      43.626   5.420  12.278  0.00  0.00    +0.000 A 
ATOM      7  C   UNL     1      44.866   6.011  11.958  0.00  0.00    +0.000 A 
ATOM      8  C   UNL     1      45.464   5.613  10.747  0.00  0.00    +0.000 A 
BRANCH   3  10
ATOM      9  N   UNL     1      45.134   3.176   7.998  0.00  0.00    +0.000 N 
ATOM     10  C   UNL     1      45.541   4.322   8.625  0.00  0.00    +0.000 C 
ATOM     11  O   UNL     1      46.406   5.037   8.134  0.00  0.00    +0.000 OA
ATOM     12  H   UNL     1      45.516   3.013   7.077  0.00  0.00    +0.000 HD
ATOM     13  H   UNL     1      44.261   2.718   8.227  0.00  0.00    +0.000 HD
ENDBRANCH   3  10
BRANCH   6  14
ATOM     14  O   UNL     1      42.971   5.754  13.436  0.00  0.00    +0.000 OA
ATOM     15  H   UNL     1      43.320   6.595  13.770  0.00  0.00    +0.000 HD
ENDBRANCH   6  14
ENDBRANCH   1   7
BRANCH   1  16
ATOM     16  C   UNL     1      46.793   7.546  12.265  0.00  0.00    +0.000 C 
BRANCH  16  17
ATOM     17  C   UNL     1      47.793   7.339  13.383  0.00  0.00    +0.000 A 
ATOM     18  C   UNL     1      48.984   8.059  13.407  0.00  0.00    +0.000 A 
ATOM     19  C   UNL     1      49.932   7.787  14.388  0.00  0.00    +0.000 A 
ATOM     20  C   UNL     1      49.701   6.799  15.361  0.00  0.00    +0.000 A 
ATOM     21 CL   UNL     1      51.068   6.457  16.377  0.00  0.00    +0.000 Cl
ATOM     22  C   UNL     1      48.478   6.085  15.419  0.00  0.00    +0.000 A 
ATOM     23  C   UNL     1      47.546   6.397  14.401  0.00  0.00    +0.000 A 
BRANCH  22  24
ATOM     24  N   UNL     1      48.129   5.150  16.382  0.00  0.00    +0.000 N 
ATOM     25  C   UNL     1      48.082   5.472  17.820  0.00  0.00    +0.000 C 
ATOM     26  C   UNL     1      48.820   4.380  18.611  0.00  0.00    +0.000 C 
ATOM     27  O   UNL     1      48.246   3.086  18.362  0.00  0.00    +0.000 OA
ATOM     28  C   UNL     1      48.340   2.765  16.966  0.00  0.00    +0.000 C 
ATOM     29  C   UNL     1      47.629   3.800  16.076  0.00  0.00    +0.000 C 
ENDBRANCH  22  24
ENDBRANCH  16  17
ENDBRANCH   1  16
TORSDOF 6
ENDMDL
MODEL 8
REMARK VINA RESULT:    -6.870      4.129      5.921
REMARK INTER + INTRA:          -9.574
REMARK INTER:                  -8.816
REMARK INTRA:                  -0.758
REMARK UNBOUND:                -0.496
REMARK  Name = 
REMARK  6 active torsions:
REMARK  status: ('A' for Active; 'I' for Inactive)
REMARK    1  A    between atoms: C_2  and  C_4
REMARK    2  A    between atoms: C_7  and  O_8
REMARK    3  A    between atoms: C_9  and  N_10
REMARK    4  A    between atoms: N_10  and  C_11
REMARK    5  A    between atoms: C_11  and  C_12
REMARK    6  A    between atoms: C_17  and  N_18
REMARK                            x       y       z     vdW  Elec       q    Type
REMARK                         _______ _______ _______ _____ _____    ______ ____
ROOT
ATOM      1  N   UNL     1      46.092   4.595  14.627  0.00  0.00    +0.000 N 
ATOM      2  H   UNL     1      45.850   5.204  15.404  0.00  0.00    +0.000 HD
ENDROOT
BRANCH   1   7
ATOM      3  C   UNL     1      44.920   4.820  11.124  0.00  0.00    +0.000 A 
ATOM      4  C   UNL     1      45.475   6.024  10.688  0.00  0.00    +0.000 A 
ATOM      5  C   UNL     1      46.222   6.798  11.570  0.00  0.00    +0.000 A 
ATOM      6  C   UNL     1      46.420   6.367  12.889  0.00  0.00    +0.000 A 
ATOM      7  C   UNL     1      45.854   5.169  13.372  0.00  0.00    +0.000 A 
ATOM      8  C   UNL     1      45.101   4.410  12.456  0.00  0.00    +0.000 A 
BRANCH   3  10
ATOM      9  N   UNL     1      44.054   4.338   8.902  0.00  0.00    +0.000 N 
ATOM     10  C   UNL     1      44.133   3.953  10.213  0.00  0.00    +0.000 C 
ATOM     11  O   UNL     1      43.603   2.919  10.599  0.00  0.00    +0.000 OA
ATOM     12  H   UNL     1      43.623   3.680   8.270  0.00  0.00    +0.000 HD
ATOM     13  H   UNL     1      44.686   5.020   8.503  0.00  0.00    +0.000 HD
ENDBRANCH   3  10
BRANCH   6  14
ATOM     14  O   UNL     1      47.172   7.166  13.711  0.00  0.00    +0.000 OA
ATOM     15  H   UNL     1      47.388   7.991  13.247  0.00  0.00    +0.000 HD
ENDBRANCH   6  14
ENDBRANCH   1   7
BRANCH   1  16
ATOM     16  C   UNL     1      47.271   3.781  14.864  0.00  0.00    +0.000 C 
BRANCH  16  17
ATOM     17  C   UNL     1      47.776   3.973  16.279  0.00  0.00    +0.000 A 
ATOM     18  C   UNL     1      47.943   2.878  17.124  0.00  0.00    +0.000 A 
ATOM     19  C   UNL     1      48.316   3.082  18.448  0.00  0.00    +0.000 A 
ATOM     20  C   UNL     1      48.535   4.380  18.944  0.00  0.00    +0.000 A 
ATOM     21 CL   UNL     1      48.796   4.459  20.660  0.00  0.00    +0.000 Cl
ATOM     22  C   UNL     1      48.444   5.521  18.108  0.00  0.00    +0.000 A 
ATOM     23  C   UNL     1      48.062   5.262  16.770  0.00  0.00    +0.000 A 
BRANCH  22  24
ATOM     24  N   UNL     1      48.714   6.827  18.486  0.00  0.00    +0.000 N 
ATOM     25  C   UNL     1      47.658   7.772  18.891  0.00  0.00    +0.000 C 
ATOM     26  C   UNL     1      47.861   9.108  18.159  0.00  0.00    +0.000 C 
ATOM     27  O   UNL     1      49.161   9.655  18.434  0.00  0.00    +0.000 OA
ATOM     28  C   UNL     1      50.181   8.746  17.993  0.00  0.00    +0.000 C 
ATOM     29  C   UNL     1      50.072   7.367  18.668  0.00  0.00    +0.000 C 
ENDBRANCH  22  24
ENDBRANCH  16  17
ENDBRANCH   1  16
TORSDOF 6
ENDMDL
MODEL 9
REMARK VINA RESULT:    -6.645      3.832      5.159
REMARK INTER + INTRA:          -9.278
REMARK INTER:                  -8.496
REMARK INTRA:                  -0.782
REMARK UNBOUND:                -0.496
REMARK  Name = 
REMARK  6 active torsions:
REMARK  status: ('A' for Active; 'I' for Inactive)
REMARK    1  A    between atoms: C_2  and  C_4
REMARK    2  A    between atoms: C_7  and  O_8
REMARK    3  A    between atoms: C_9  and  N_10
REMARK    4  A    between atoms: N_10  and  C_11
REMARK    5  A    between atoms: C_11  and  C_12
REMARK    6  A    between atoms: C_17  and  N_18
REMARK                            x       y       z     vdW  Elec       q    Type
REMARK                         _______ _______ _______ _____ _____    ______ ____
ROOT
ATOM      1  N   UNL     1      44.517   6.668  12.572  0.00  0.00    +0.000 N 
ATOM      2  H   UNL     1      43.924   7.377  12.149  0.00  0.00    +0.000 HD
ENDROOT
BRANCH   1   7
ATOM      3  C   UNL     1      44.760   3.923  10.100  0.00  0.00    +0.000 A 
ATOM      4  C   UNL     1      43.891   2.962  10.618  0.00  0.00    +0.000 A 
ATOM      5  C   UNL     1      43.236   3.201  11.822  0.00  0.00    +0.000 A 
ATOM      6  C   UNL     1      43.445   4.405  12.508  0.00  0.00    +0.000 A 
ATOM      7  C   UNL     1      44.334   5.389  12.028  0.00  0.00    +0.000 A 
ATOM      8  C   UNL     1      44.983   5.116  10.809  0.00  0.00    +0.000 A 
BRANCH   3  10
ATOM      9  N   UNL     1      45.720   2.426   8.441  0.00  0.00    +0.000 N 
ATOM     10  C   UNL     1      45.465   3.719   8.811  0.00  0.00    +0.000 C 
ATOM     11  O   UNL     1      45.777   4.656   8.087  0.00  0.00    +0.000 OA
ATOM     12  H   UNL     1      46.088   2.294   7.509  0.00  0.00    +0.000 HD
ATOM     13  H   UNL     1      45.250   1.640   8.871  0.00  0.00    +0.000 HD
ENDBRANCH   3  10
BRANCH   6  14
ATOM     14  O   UNL     1      42.766   4.591  13.685  0.00  0.00    +0.000 OA
ATOM     15  H   UNL     1      42.352   5.469  13.681  0.00  0.00    +0.000 HD
ENDBRANCH   6  14
ENDBRANCH   1   7
BRANCH   1  16
ATOM     16  C   UNL     1      45.842   7.145  12.925  0.00  0.00    +0.000 C 
BRANCH  16  17
ATOM     17  C   UNL     1      46.060   8.550  12.405  0.00  0.00    +0.000 A 
ATOM     18  C   UNL     1      47.293   9.178  12.562  0.00  0.00    +0.000 A 
ATOM     19  C   UNL     1      47.445  10.502  12.163  0.00  0.00    +0.000 A 
ATOM     20  C   UNL     1      46.373  11.213  11.596  0.00  0.00    +0.000 A 
ATOM     21 CL   UNL     1      46.684  12.904  11.345  0.00  0.00    +0.000 Cl
ATOM     22  C   UNL     1      45.119  10.599  11.354  0.00  0.00    +0.000 A 
ATOM     23  C   UNL     1      45.013   9.253  11.776  0.00  0.00    +0.000 A 
BRANCH  22  24
ATOM     24  N   UNL     1      44.031  11.193  10.734  0.00  0.00    +0.000 N 
ATOM     25  C   UNL     1      42.749  11.423  11.426  0.00  0.00    +0.000 C 
ATOM     26  C   UNL     1      41.595  10.941  10.535  0.00  0.00    +0.000 C 
ATOM     27  O   UNL     1      41.610  11.611   9.263  0.00  0.00    +0.000 OA
ATOM     28  C   UNL     1      42.843  11.341   8.579  0.00  0.00    +0.000 C 
ATOM     29  C   UNL     1      44.074  11.788   9.387  0.00  0.00    +0.000 C 
ENDBRANCH  22  24
ENDBRANCH  16  17
ENDBRANCH   1  16
TORSDOF 6
ENDMDL
