MODEL 1
REMARK VINA RESULT:    -8.285      0.000      0.000
REMARK INTER + INTRA:         -12.250
REMARK INTER:                 -11.192
REMARK INTRA:                  -1.058
REMARK UNBOUND:                -1.058
REMARK  Name = 
REMARK  6 active torsions:
REMARK  status: ('A' for Active; 'I' for Inactive)
REMARK    1  A    between atoms: C_2  and  C_4
REMARK    2  A    between atoms: C_7  and  O_8
REMARK    3  A    between atoms: O_8  and  C_9
REMARK    4  A    between atoms: C_9  and  C_10
REMARK    5  A    between atoms: C_10  and  C_11
REMARK    6  A    between atoms: C_15  and  C_16
REMARK                            x       y       z     vdW  Elec       q    Type
REMARK                         _______ _______ _______ _____ _____    ______ ____
ROOT
ATOM      1  C   UNL     1      43.312   3.787  11.414  0.00  0.00    +0.000 C 
ENDROOT
BRANCH   1   2
ATOM      2  O   UNL     1      43.600   4.440  10.172  0.00  0.00    +0.000 OA
BRANCH   2   6
ATOM      3  C   UNL     1      46.282   2.311   7.906  0.00  0.00    +0.000 A 
ATOM      4  C   UNL     1      46.257   3.682   7.709  0.00  0.00    +0.000 A 
ATOM      5  C   UNL     1      45.360   4.447   8.452  0.00  0.00    +0.000 A 
ATOM      6  C   UNL     1      44.518   3.822   9.374  0.00  0.00    +0.000 A 
ATOM      7  C   UNL     1      44.620   2.436   9.496  0.00  0.00    +0.000 A 
ATOM      8  N   UNL     1      45.476   1.656   8.788  0.00  0.00    +0.000 NA
BRANCH   3  10
ATOM      9  N   UNL     1      48.338   2.130   6.628  0.00  0.00    +0.000 N 
ATOM     10  C   UNL     1      47.238   1.475   7.111  0.00  0.00    +0.000 C 
ATOM     11  O   UNL     1      47.057   0.282   6.900  0.00  0.00    +0.000 OA
ATOM     12  H   UNL     1      49.021   1.623   6.085  0.00  0.00    +0.000 HD
ATOM     13  H   UNL     1      48.457   3.119   6.819  0.00  0.00    +0.000 HD
ENDBRANCH   3  10
ENDBRANCH   2   6
ENDBRANCH   1   2
BRANCH   1  14
ATOM     14  C   UNL     1      43.334   4.807  12.552  0.00  0.00    +0.000 C 
BRANCH  14  15
ATOM     15  C   UNL     1      44.753   5.195  12.885  0.00  0.00    +0.000 A 
ATOM     16  C   UNL     1      45.647   4.260  13.410  0.00  0.00    +0.000 A 
ATOM     17  C   UNL     1      46.972   4.618  13.644  0.00  0.00    +0.000 A 
ATOM     18  C   UNL     1      47.421   5.903  13.325  0.00  0.00    +0.000 A 
ATOM     19  C   UNL     1      46.565   6.856  12.745  0.00  0.00    +0.000 A 
ATOM     20  C   UNL     1      45.219   6.483  12.567  0.00  0.00    +0.000 A 
BRANCH  19  21
ATOM     21  C   UNL     1      47.069   8.154  12.236  0.00  0.00    +0.000 A 
ATOM     22  C   UNL     1      46.227   9.282  12.183  0.00  0.00    +0.000 A 
ATOM     23  C   UNL     1      46.711  10.544  11.827  0.00  0.00    +0.000 A 
ATOM     24  C   UNL     1      48.055  10.710  11.516  0.00  0.00    +0.000 A 
ATOM     25  C   UNL     1      48.908   9.610  11.534  0.00  0.00    +0.000 A 
ATOM     26  C   UNL     1      48.416   8.345  11.878  0.00  0.00    +0.000 A 
ENDBRANCH  19  21
ENDBRANCH  14  15
ENDBRANCH   1  14
TORSDOF 6
ENDMDL
MODEL 2
REMARK VINA RESULT:    -8.192      1.897      3.795
REMARK INTER + INTRA:         -12.124
REMARK INTER:                 -11.048
REMARK INTRA:                  -1.076
REMARK UNBOUND:                -1.058
REMARK  Name = 
REMARK  6 active torsions:
REMARK  status: ('A' for Active; 'I' for Inactive)
REMARK    1  A    between atoms: C_2  and  C_4
REMARK    2  A    between atoms: C_7  and  O_8
REMARK    3  A    between atoms: O_8  and  C_9
REMARK    4  A    between atoms: C_9  and  C_10
REMARK    5  A    between atoms: C_10  and  C_11
REMARK    6  A    between atoms: C_15  and  C_16
REMARK                            x       y       z     vdW  Elec       q    Type
REMARK                         _______ _______ _______ _____ _____    ______ ____
ROOT
ATOM      1  C   UNL     1      43.414   4.901  10.742  0.00  0.00    +0.000 C 
ENDROOT
BRANCH   1   2
ATOM      2  O   UNL     1      43.622   3.543  10.333  0.00  0.00    +0.000 OA
BRANCH   2   6
ATOM      3  C   UNL     1      46.513   2.655   7.555  0.00  0.00    +0.000 A 
ATOM      4  C   UNL     1      46.144   3.987   7.661  0.00  0.00    +0.000 A 
ATOM      5  C   UNL     1      45.164   4.337   8.586  0.00  0.00    +0.000 A 
ATOM      6  C   UNL     1      44.583   3.349   9.384  0.00  0.00    +0.000 A 
ATOM      7  C   UNL     1      45.023   2.037   9.199  0.00  0.00    +0.000 A 
ATOM      8  N   UNL     1      45.970   1.656   8.306  0.00  0.00    +0.000 NA
BRANCH   3  10
ATOM      9  N   UNL     1      47.541   2.946   5.375  0.00  0.00    +0.000 N 
ATOM     10  C   UNL     1      47.563   2.263   6.560  0.00  0.00    +0.000 C 
ATOM     11  O   UNL     1      48.391   1.389   6.783  0.00  0.00    +0.000 OA
ATOM     12  H   UNL     1      48.223   2.730   4.663  0.00  0.00    +0.000 HD
ATOM     13  H   UNL     1      46.840   3.663   5.223  0.00  0.00    +0.000 HD
ENDBRANCH   3  10
ENDBRANCH   2   6
ENDBRANCH   1   2
BRANCH   1  14
ATOM     14  C   UNL     1      43.662   5.031  12.244  0.00  0.00    +0.000 C 
BRANCH  14  15
ATOM     15  C   UNL     1      45.108   5.367  12.512  0.00  0.00    +0.000 A 
ATOM     16  C   UNL     1      45.805   6.249  11.683  0.00  0.00    +0.000 A 
ATOM     17  C   UNL     1      47.118   6.602  11.988  0.00  0.00    +0.000 A 
ATOM     18  C   UNL     1      47.731   6.101  13.141  0.00  0.00    +0.000 A 
ATOM     19  C   UNL     1      47.045   5.254  14.028  0.00  0.00    +0.000 A 
ATOM     20  C   UNL     1      45.738   4.873  13.669  0.00  0.00    +0.000 A 
BRANCH  19  21
ATOM     21  C   UNL     1      47.618   4.864  15.339  0.00  0.00    +0.000 A 
ATOM     22  C   UNL     1      47.390   3.580  15.870  0.00  0.00    +0.000 A 
ATOM     23  C   UNL     1      48.020   3.147  17.041  0.00  0.00    +0.000 A 
ATOM     24  C   UNL     1      48.899   3.991  17.709  0.00  0.00    +0.000 A 
ATOM     25  C   UNL     1      49.125   5.276  17.224  0.00  0.00    +0.000 A 
ATOM     26  C   UNL     1      48.482   5.710  16.059  0.00  0.00    +0.000 A 
ENDBRANCH  19  21
ENDBRANCH  14  15
ENDBRANCH   1  14
TORSDOF 6
ENDMDL
MODEL 3
REMARK VINA RESULT:    -8.056      3.766      7.092
REMARK INTER + INTRA:         -11.940
REMARK INTER:                 -10.736
REMARK INTRA:                  -1.204
REMARK UNBOUND:                -1.058
REMARK  Name = 
REMARK  6 active torsions:
REMARK  status: ('A' for Active; 'I' for Inactive)
REMARK    1  A    between atoms: C_2  and  C_4
REMARK    2  A    between atoms: C_7  and  O_8
REMARK    3  A    between atoms: O_8  and  C_9
REMARK    4  A    between atoms: C_9  and  C_10
REMARK    5  A    between atoms: C_10  and  C_11
REMARK    6  A    between atoms: C_15  and  C_16
REMARK                            x       y       z     vdW  Elec       q    Type
REMARK                         _______ _______ _______ _____ _____    ______ ____
ROOT
ATOM      1  C   UNL     1      45.687   7.573  12.712  0.00  0.00    +0.000 C 
ENDROOT
BRANCH   1   2
ATOM      2  O   UNL     1      46.989   6.975  12.731  0.00  0.00    +0.000 OA
BRANCH   2   6
ATOM      3  C   UNL     1      47.787   4.251  15.699  0.00  0.00    +0.000 A 
ATOM      4  C   UNL     1      46.869   3.865  14.736  0.00  0.00    +0.000 A 
ATOM      5  C   UNL     1      46.562   4.758  13.711  0.00  0.00    +0.000 A 
ATOM      6  C   UNL     1      47.184   6.007  13.673  0.00  0.00    +0.000 A 
ATOM      7  C   UNL     1      48.093   6.299  14.691  0.00  0.00    +0.000 A 
ATOM      8  N   UNL     1      48.414   5.461  15.708  0.00  0.00    +0.000 NA
BRANCH   3  10
ATOM      9  N   UNL     1      47.067   2.883  17.570  0.00  0.00    +0.000 N 
ATOM     10  C   UNL     1      48.124   3.304  16.810  0.00  0.00    +0.000 C 
ATOM     11  O   UNL     1      49.267   2.925  17.033  0.00  0.00    +0.000 OA
ATOM     12  H   UNL     1      47.227   2.243  18.334  0.00  0.00    +0.000 HD
ATOM     13  H   UNL     1      46.133   3.217  17.360  0.00  0.00    +0.000 HD
ENDBRANCH   3  10
ENDBRANCH   2   6
ENDBRANCH   1   2
BRANCH   1  14
ATOM     14  C   UNL     1      45.067   7.417  11.324  0.00  0.00    +0.000 C 
BRANCH  14  15
ATOM     15  C   UNL     1      44.659   5.984  11.087  0.00  0.00    +0.000 A 
ATOM     16  C   UNL     1      43.524   5.451  11.702  0.00  0.00    +0.000 A 
ATOM     17  C   UNL     1      43.122   4.149  11.415  0.00  0.00    +0.000 A 
ATOM     18  C   UNL     1      43.834   3.381  10.488  0.00  0.00    +0.000 A 
ATOM     19  C   UNL     1      44.950   3.900   9.809  0.00  0.00    +0.000 A 
ATOM     20  C   UNL     1      45.363   5.201  10.155  0.00  0.00    +0.000 A 
BRANCH  19  21
ATOM     21  C   UNL     1      45.601   3.166   8.697  0.00  0.00    +0.000 A 
ATOM     22  C   UNL     1      46.135   3.859   7.593  0.00  0.00    +0.000 A 
ATOM     23  C   UNL     1      46.862   3.202   6.596  0.00  0.00    +0.000 A 
ATOM     24  C   UNL     1      47.075   1.832   6.680  0.00  0.00    +0.000 A 
ATOM     25  C   UNL     1      46.537   1.114   7.745  0.00  0.00    +0.000 A 
ATOM     26  C   UNL     1      45.798   1.774   8.734  0.00  0.00    +0.000 A 
ENDBRANCH  19  21
ENDBRANCH  14  15
ENDBRANCH   1  14
TORSDOF 6
ENDMDL
MODEL 4
REMARK VINA RESULT:    -7.077      4.801      8.259
REMARK INTER + INTRA:         -10.617
REMARK INTER:                 -10.094
REMARK INTRA:                  -0.523
REMARK UNBOUND:                -1.058
REMARK  Name = 
REMARK  6 active torsions:
REMARK  status: ('A' for Active; 'I' for Inactive)
REMARK    1  A    between atoms: C_2  and  C_4
REMARK    2  A    between atoms: C_7  and  O_8
REMARK    3  A    between atoms: O_8  and  C_9
REMARK    4  A    between atoms: C_9  and  C_10
REMARK    5  A    between atoms: C_10  and  C_11
REMARK    6  A    between atoms: C_15  and  C_16
REMARK                            x       y       z     vdW  Elec       q    Type
REMARK                         _______ _______ _______ _____ _____    ______ ____
ROOT
ATOM      1  C   UNL     1      46.983   4.297  13.787  0.00  0.00    +0.000 C 
ENDROOT
BRANCH   1   2
ATOM      2  O   UNL     1      47.389   3.222  14.643  0.00  0.00    +0.000 OA
BRANCH   2   6
ATOM      3  C   UNL     1      48.491   4.577  18.359  0.00  0.00    +0.000 A 
ATOM      4  C   UNL     1      48.246   3.218  18.243  0.00  0.00    +0.000 A 
ATOM      5  C   UNL     1      47.865   2.712  17.003  0.00  0.00    +0.000 A 
ATOM      6  C   UNL     1      47.744   3.575  15.912  0.00  0.00    +0.000 A 
ATOM      7  C   UNL     1      48.012   4.926  16.134  0.00  0.00    +0.000 A 
ATOM      8  N   UNL     1      48.380   5.458  17.326  0.00  0.00    +0.000 NA
BRANCH   3  10
ATOM      9  N   UNL     1      49.918   4.481  20.320  0.00  0.00    +0.000 N 
ATOM     10  C   UNL     1      48.897   5.137  19.688  0.00  0.00    +0.000 C 
ATOM     11  O   UNL     1      48.357   6.116  20.187  0.00  0.00    +0.000 OA
ATOM     12  H   UNL     1      50.240   4.808  21.218  0.00  0.00    +0.000 HD
ATOM     13  H   UNL     1      50.343   3.672  19.880  0.00  0.00    +0.000 HD
ENDBRANCH   3  10
ENDBRANCH   2   6
ENDBRANCH   1   2
BRANCH   1  14
ATOM     14  C   UNL     1      45.505   4.609  14.015  0.00  0.00    +0.000 C 
BRANCH  14  15
ATOM     15  C   UNL     1      44.766   4.654  12.700  0.00  0.00    +0.000 A 
ATOM     16  C   UNL     1      43.663   5.493  12.526  0.00  0.00    +0.000 A 
ATOM     17  C   UNL     1      43.038   5.575  11.285  0.00  0.00    +0.000 A 
ATOM     18  C   UNL     1      43.531   4.843  10.200  0.00  0.00    +0.000 A 
ATOM     19  C   UNL     1      44.671   4.030  10.321  0.00  0.00    +0.000 A 
ATOM     20  C   UNL     1      45.252   3.926  11.599  0.00  0.00    +0.000 A 
BRANCH  19  21
ATOM     21  C   UNL     1      45.309   3.395   9.142  0.00  0.00    +0.000 A 
ATOM     22  C   UNL     1      45.824   4.180   8.093  0.00  0.00    +0.000 A 
ATOM     23  C   UNL     1      46.539   3.613   7.034  0.00  0.00    +0.000 A 
ATOM     24  C   UNL     1      46.760   2.242   7.001  0.00  0.00    +0.000 A 
ATOM     25  C   UNL     1      46.241   1.435   8.009  0.00  0.00    +0.000 A 
ATOM     26  C   UNL     1      45.514   2.005   9.061  0.00  0.00    +0.000 A 
ENDBRANCH  19  21
ENDBRANCH  14  15
ENDBRANCH   1  14
TORSDOF 6
ENDMDL
MODEL 5
REMARK VINA RESULT:    -6.955      4.372      7.470
REMARK INTER + INTRA:         -10.453
REMARK INTER:                  -9.250
REMARK INTRA:                  -1.202
REMARK UNBOUND:                -1.058
REMARK  Name = 
REMARK  6 active torsions:
REMARK  status: ('A' for Active; 'I' for Inactive)
REMARK    1  A    between atoms: C_2  and  C_4
REMARK    2  A    between atoms: C_7  and  O_8
REMARK    3  A    between atoms: O_8  and  C_9
REMARK    4  A    between atoms: C_9  and  C_10
REMARK    5  A    between atoms: C_10  and  C_11
REMARK    6  A    between atoms: C_15  and  C_16
REMARK                            x       y       z     vdW  Elec       q    Type
REMARK                         _______ _______ _______ _____ _____    ______ ____
ROOT
ATOM      1  C   UNL     1      49.527   7.374  13.278  0.00  0.00    +0.000 C 
ENDROOT
BRANCH   1   2
ATOM      2  O   UNL     1      48.939   7.635  14.558  0.00  0.00    +0.000 OA
BRANCH   2   6
ATOM      3  C   UNL     1      47.906   4.423  16.899  0.00  0.00    +0.000 A 
ATOM      4  C   UNL     1      47.314   4.493  15.648  0.00  0.00    +0.000 A 
ATOM      5  C   UNL     1      47.630   5.567  14.819  0.00  0.00    +0.000 A 
ATOM      6  C   UNL     1      48.532   6.537  15.260  0.00  0.00    +0.000 A 
ATOM      7  C   UNL     1      49.072   6.376  16.536  0.00  0.00    +0.000 A 
ATOM      8  N   UNL     1      48.786   5.348  17.375  0.00  0.00    +0.000 NA
BRANCH   3  10
ATOM      9  N   UNL     1      48.409   3.101  18.871  0.00  0.00    +0.000 N 
ATOM     10  C   UNL     1      47.572   3.276  17.803  0.00  0.00    +0.000 C 
ATOM     11  O   UNL     1      46.616   2.535  17.608  0.00  0.00    +0.000 OA
ATOM     12  H   UNL     1      48.238   2.346  19.519  0.00  0.00    +0.000 HD
ATOM     13  H   UNL     1      49.192   3.731  19.003  0.00  0.00    +0.000 HD
ENDBRANCH   3  10
ENDBRANCH   2   6
ENDBRANCH   1   2
BRANCH   1  14
ATOM     14  C   UNL     1      48.854   8.238  12.213  0.00  0.00    +0.000 C 
BRANCH  14  15
ATOM     15  C   UNL     1      47.404   7.852  12.061  0.00  0.00    +0.000 A 
ATOM     16  C   UNL     1      46.384   8.736  12.423  0.00  0.00    +0.000 A 
ATOM     17  C   UNL     1      45.053   8.391  12.208  0.00  0.00    +0.000 A 
ATOM     18  C   UNL     1      44.731   7.173  11.600  0.00  0.00    +0.000 A 
ATOM     19  C   UNL     1      45.730   6.280  11.173  0.00  0.00    +0.000 A 
ATOM     20  C   UNL     1      47.065   6.632  11.449  0.00  0.00    +0.000 A 
BRANCH  19  21
ATOM     21  C   UNL     1      45.411   5.076  10.368  0.00  0.00    +0.000 A 
ATOM     22  C   UNL     1      44.657   4.022  10.918  0.00  0.00    +0.000 A 
ATOM     23  C   UNL     1      44.238   2.937  10.143  0.00  0.00    +0.000 A 
ATOM     24  C   UNL     1      44.563   2.880   8.793  0.00  0.00    +0.000 A 
ATOM     25  C   UNL     1      45.331   3.893   8.226  0.00  0.00    +0.000 A 
ATOM     26  C   UNL     1      45.759   4.972   9.009  0.00  0.00    +0.000 A 
ENDBRANCH  19  21
ENDBRANCH  14  15
ENDBRANCH   1  14
TORSDOF 6
ENDMDL
MODEL 6
REMARK VINA RESULT:    -6.739      3.963      7.389
REMARK INTER + INTRA:         -10.161
REMARK INTER:                  -9.420
REMARK INTRA:                  -0.741
REMARK UNBOUND:                -1.058
REMARK  Name = 
REMARK  6 active torsions:
REMARK  status: ('A' for Active; 'I' for Inactive)
REMARK    1  A    between atoms: C_2  and  C_4
REMARK    2  A    between atoms: C_7  and  O_8
REMARK    3  A    between atoms: O_8  and  C_9
REMARK    4  A    between atoms: C_9  and  C_10
REMARK    5  A    between atoms: C_10  and  C_11
REMARK    6  A    between atoms: C_15  and  C_16
REMARK                            x       y       z     vdW  Elec       q    Type
REMARK                         _______ _______ _______ _____ _____    ______ ____
ROOT
ATOM      1  C   UNL     1      45.811   7.014  11.406  0.00  0.00    +0.000 C 
ENDROOT
BRANCH   1   2
ATOM      2  O   UNL     1      46.230   7.754  12.558  0.00  0.00    +0.000 OA
BRANCH   2   6
ATOM      3  C   UNL     1      50.231   8.173  13.383  0.00  0.00    +0.000 A 
ATOM      4  C   UNL     1      49.899   7.849  12.077  0.00  0.00    +0.000 A 
ATOM      5  C   UNL     1      48.554   7.692  11.750  0.00  0.00    +0.000 A 
ATOM      6  C   UNL     1      47.579   7.868  12.733  0.00  0.00    +0.000 A 
ATOM      7  C   UNL     1      48.018   8.192  14.018  0.00  0.00    +0.000 A 
ATOM      8  N   UNL     1      49.317   8.348  14.377  0.00  0.00    +0.000 NA
BRANCH   3  10
ATOM      9  N   UNL     1      52.116   7.562  14.786  0.00  0.00    +0.000 N 
ATOM     10  C   UNL     1      51.674   8.340  13.751  0.00  0.00    +0.000 C 
ATOM     11  O   UNL     1      52.419   9.122  13.171  0.00  0.00    +0.000 OA
ATOM     12  H   UNL     1      53.079   7.627  15.082  0.00  0.00    +0.000 HD
ATOM     13  H   UNL     1      51.473   6.927  15.246  0.00  0.00    +0.000 HD
ENDBRANCH   3  10
ENDBRANCH   2   6
ENDBRANCH   1   2
BRANCH   1  14
ATOM     14  C   UNL     1      44.392   6.490  11.616  0.00  0.00    +0.000 C 
BRANCH  14  15
ATOM     15  C   UNL     1      44.305   5.033  11.235  0.00  0.00    +0.000 A 
ATOM     16  C   UNL     1      43.386   4.183  11.854  0.00  0.00    +0.000 A 
ATOM     17  C   UNL     1      43.271   2.859  11.439  0.00  0.00    +0.000 A 
ATOM     18  C   UNL     1      44.051   2.384  10.380  0.00  0.00    +0.000 A 
ATOM     19  C   UNL     1      44.949   3.222   9.697  0.00  0.00    +0.000 A 
ATOM     20  C   UNL     1      45.081   4.541  10.170  0.00  0.00    +0.000 A 
BRANCH  19  21
ATOM     21  C   UNL     1      45.645   2.784   8.463  0.00  0.00    +0.000 A 
ATOM     22  C   UNL     1      45.853   3.680   7.397  0.00  0.00    +0.000 A 
ATOM     23  C   UNL     1      46.614   3.327   6.279  0.00  0.00    +0.000 A 
ATOM     24  C   UNL     1      47.190   2.065   6.200  0.00  0.00    +0.000 A 
ATOM     25  C   UNL     1      46.980   1.146   7.225  0.00  0.00    +0.000 A 
ATOM     26  C   UNL     1      46.206   1.499   8.337  0.00  0.00    +0.000 A 
ENDBRANCH  19  21
ENDBRANCH  14  15
ENDBRANCH   1  14
TORSDOF 6
ENDMDL
MODEL 7
REMARK VINA RESULT:    -6.648      1.524      2.682
REMARK INTER + INTRA:         -10.038
REMARK INTER:                  -9.067
REMARK INTRA:                  -0.971
REMARK UNBOUND:                -1.058
REMARK  Name = 
REMARK  6 active torsions:
REMARK  status: ('A' for Active; 'I' for Inactive)
REMARK    1  A    between atoms: C_2  and  C_4
REMARK    2  A    between atoms: C_7  and  O_8
REMARK    3  A    between atoms: O_8  and  C_9
REMARK    4  A    between atoms: C_9  and  C_10
REMARK    5  A    between atoms: C_10  and  C_11
REMARK    6  A    between atoms: C_15  and  C_16
REMARK                            x       y       z     vdW  Elec       q    Type
REMARK                         _______ _______ _______ _____ _____    ______ ____
ROOT
ATOM      1  C   UNL     1      44.443   4.923  11.447  0.00  0.00    +0.000 C 
ENDROOT
BRANCH   1   2
ATOM      2  O   UNL     1      44.000   3.994  10.450  0.00  0.00    +0.000 OA
BRANCH   2   6
ATOM      3  C   UNL     1      46.641   2.849   7.522  0.00  0.00    +0.000 A 
ATOM      4  C   UNL     1      46.513   4.211   7.741  0.00  0.00    +0.000 A 
ATOM      5  C   UNL     1      45.625   4.649   8.721  0.00  0.00    +0.000 A 
ATOM      6  C   UNL     1      44.896   3.714   9.459  0.00  0.00    +0.000 A 
ATOM      7  C   UNL     1      45.097   2.366   9.161  0.00  0.00    +0.000 A 
ATOM      8  N   UNL     1      45.947   1.901   8.211  0.00  0.00    +0.000 NA
BRANCH   3  10
ATOM      9  N   UNL     1      47.457   2.948   5.238  0.00  0.00    +0.000 N 
ATOM     10  C   UNL     1      47.589   2.363   6.468  0.00  0.00    +0.000 C 
ATOM     11  O   UNL     1      48.430   1.498   6.681  0.00  0.00    +0.000 OA
ATOM     12  H   UNL     1      48.067   2.666   4.485  0.00  0.00    +0.000 HD
ATOM     13  H   UNL     1      46.750   3.660   5.095  0.00  0.00    +0.000 HD
ENDBRANCH   3  10
ENDBRANCH   2   6
ENDBRANCH   1   2
BRANCH   1  14
ATOM     14  C   UNL     1      43.582   6.184  11.398  0.00  0.00    +0.000 C 
BRANCH  14  15
ATOM     15  C   UNL     1      44.448   7.417  11.470  0.00  0.00    +0.000 A 
ATOM     16  C   UNL     1      43.894   8.692  11.332  0.00  0.00    +0.000 A 
ATOM     17  C   UNL     1      44.697   9.820  11.473  0.00  0.00    +0.000 A 
ATOM     18  C   UNL     1      46.054   9.684  11.784  0.00  0.00    +0.000 A 
ATOM     19  C   UNL     1      46.637   8.421  11.983  0.00  0.00    +0.000 A 
ATOM     20  C   UNL     1      45.814   7.296  11.785  0.00  0.00    +0.000 A 
BRANCH  19  21
ATOM     21  C   UNL     1      48.023   8.269  12.490  0.00  0.00    +0.000 A 
ATOM     22  C   UNL     1      49.057   7.836  11.638  0.00  0.00    +0.000 A 
ATOM     23  C   UNL     1      50.390   7.806  12.057  0.00  0.00    +0.000 A 
ATOM     24  C   UNL     1      50.722   8.212  13.344  0.00  0.00    +0.000 A 
ATOM     25  C   UNL     1      49.720   8.620  14.219  0.00  0.00    +0.000 A 
ATOM     26  C   UNL     1      48.384   8.636  13.799  0.00  0.00    +0.000 A 
ENDBRANCH  19  21
ENDBRANCH  14  15
ENDBRANCH   1  14
TORSDOF 6
ENDMDL
MODEL 8
REMARK VINA RESULT:    -6.438      4.597      7.040
REMARK INTER + INTRA:          -9.755
REMARK INTER:                  -8.807
REMARK INTRA:                  -0.948
REMARK UNBOUND:                -1.058
REMARK  Name = 
REMARK  6 active torsions:
REMARK  status: ('A' for Active; 'I' for Inactive)
REMARK    1  A    between atoms: C_2  and  C_4
REMARK    2  A    between atoms: C_7  and  O_8
REMARK    3  A    between atoms: O_8  and  C_9
REMARK    4  A    between atoms: C_9  and  C_10
REMARK    5  A    between atoms: C_10  and  C_11
REMARK    6  A    between atoms: C_15  and  C_16
REMARK                            x       y       z     vdW  Elec       q    Type
REMARK                         _______ _______ _______ _____ _____    ______ ____
ROOT
ATOM      1  C   UNL     1      48.478   6.475  14.171  0.00  0.00    +0.000 C 
ENDROOT
BRANCH   1   2
ATOM      2  O   UNL     1      47.247   7.002  13.663  0.00  0.00    +0.000 OA
BRANCH   2   6
ATOM      3  C   UNL     1      45.011   4.664  11.133  0.00  0.00    +0.000 A 
ATOM      4  C   UNL     1      45.350   4.105  12.355  0.00  0.00    +0.000 A 
ATOM      5  C   UNL     1      46.112   4.858  13.245  0.00  0.00    +0.000 A 
ATOM      6  C   UNL     1      46.509   6.150  12.893  0.00  0.00    +0.000 A 
ATOM      7  C   UNL     1      46.117   6.620  11.639  0.00  0.00    +0.000 A 
ATOM      8  N   UNL     1      45.380   5.916  10.743  0.00  0.00    +0.000 NA
BRANCH   3  10
ATOM      9  N   UNL     1      44.087   4.390   8.905  0.00  0.00    +0.000 N 
ATOM     10  C   UNL     1      44.195   3.864  10.163  0.00  0.00    +0.000 C 
ATOM     11  O   UNL     1      43.654   2.808  10.467  0.00  0.00    +0.000 OA
ATOM     12  H   UNL     1      43.552   3.899   8.204  0.00  0.00    +0.000 HD
ATOM     13  H   UNL     1      44.547   5.268   8.687  0.00  0.00    +0.000 HD
ENDBRANCH   3  10
ENDBRANCH   2   6
ENDBRANCH   1   2
BRANCH   1  14
ATOM     14  C   UNL     1      48.553   6.703  15.680  0.00  0.00    +0.000 C 
BRANCH  14  15
ATOM     15  C   UNL     1      48.522   5.386  16.415  0.00  0.00    +0.000 A 
ATOM     16  C   UNL     1      47.327   4.677  16.564  0.00  0.00    +0.000 A 
ATOM     17  C   UNL     1      47.330   3.429  17.182  0.00  0.00    +0.000 A 
ATOM     18  C   UNL     1      48.531   2.867  17.627  0.00  0.00    +0.000 A 
ATOM     19  C   UNL     1      49.759   3.526  17.448  0.00  0.00    +0.000 A 
ATOM     20  C   UNL     1      49.721   4.807  16.866  0.00  0.00    +0.000 A 
BRANCH  19  21
ATOM     21  C   UNL     1      51.053   2.865  17.748  0.00  0.00    +0.000 A 
ATOM     22  C   UNL     1      51.277   1.523  17.385  0.00  0.00    +0.000 A 
ATOM     23  C   UNL     1      52.527   0.918  17.544  0.00  0.00    +0.000 A 
ATOM     24  C   UNL     1      53.588   1.645  18.070  0.00  0.00    +0.000 A 
ATOM     25  C   UNL     1      53.392   2.966  18.463  0.00  0.00    +0.000 A 
ATOM     26  C   UNL     1      52.135   3.564  18.315  0.00  0.00    +0.000 A 
ENDBRANCH  19  21
ENDBRANCH  14  15
ENDBRANCH   1  14
TORSDOF 6
ENDMDL
MODEL 9
REMARK VINA RESULT:    -6.268      3.337      6.204
REMARK INTER + INTRA:          -9.524
REMARK INTER:                  -8.097
REMARK INTRA:                  -1.428
REMARK UNBOUND:                -1.058
REMARK  Name = 
REMARK  6 active torsions:
REMARK  status: ('A' for Active; 'I' for Inactive)
REMARK    1  A    between atoms: C_2  and  C_4
REMARK    2  A    between atoms: C_7  and  O_8
REMARK    3  A    between atoms: O_8  and  C_9
REMARK    4  A    between atoms: C_9  and  C_10
REMARK    5  A    between atoms: C_10  and  C_11
REMARK    6  A    between atoms: C_15  and  C_16
REMARK                            x       y       z     vdW  Elec       q    Type
REMARK                         _______ _______ _______ _____ _____    ______ ____
ROOT
ATOM      1  C   UNL     1      48.941   7.480  12.116  0.00  0.00    +0.000 C 
ENDROOT
BRANCH   1   2
ATOM      2  O   UNL     1      47.535   7.649  11.898  0.00  0.00    +0.000 OA
BRANCH   2   6
ATOM      3  C   UNL     1      45.148   4.308  11.927  0.00  0.00    +0.000 A 
ATOM      4  C   UNL     1      45.880   4.555  13.077  0.00  0.00    +0.000 A 
ATOM      5  C   UNL     1      46.709   5.674  13.113  0.00  0.00    +0.000 A 
ATOM      6  C   UNL     1      46.778   6.518  12.003  0.00  0.00    +0.000 A 
ATOM      7  C   UNL     1      46.001   6.181  10.894  0.00  0.00    +0.000 A 
ATOM      8  N   UNL     1      45.187   5.098  10.818  0.00  0.00    +0.000 NA
BRANCH   3  10
ATOM      9  N   UNL     1      44.186   2.474  10.661  0.00  0.00    +0.000 N 
ATOM     10  C   UNL     1      44.255   3.105  11.872  0.00  0.00    +0.000 C 
ATOM     11  O   UNL     1      43.623   2.705  12.842  0.00  0.00    +0.000 OA
ATOM     12  H   UNL     1      43.603   1.656  10.557  0.00  0.00    +0.000 HD
ATOM     13  H   UNL     1      44.722   2.832   9.877  0.00  0.00    +0.000 HD
ENDBRANCH   3  10
ENDBRANCH   2   6
ENDBRANCH   1   2
BRANCH   1  14
ATOM     14  C   UNL     1      49.478   8.644  12.948  0.00  0.00    +0.000 C 
BRANCH  14  15
ATOM     15  C   UNL     1      49.212   8.411  14.414  0.00  0.00    +0.000 A 
ATOM     16  C   UNL     1      48.702   9.431  15.221  0.00  0.00    +0.000 A 
ATOM     17  C   UNL     1      48.396   9.177  16.555  0.00  0.00    +0.000 A 
ATOM     18  C   UNL     1      48.566   7.894  17.084  0.00  0.00    +0.000 A 
ATOM     19  C   UNL     1      49.026   6.829  16.291  0.00  0.00    +0.000 A 
ATOM     20  C   UNL     1      49.376   7.125  14.960  0.00  0.00    +0.000 A 
BRANCH  19  21
ATOM     21  C   UNL     1      49.039   5.431  16.787  0.00  0.00    +0.000 A 
ATOM     22  C   UNL     1      47.932   4.585  16.582  0.00  0.00    +0.000 A 
ATOM     23  C   UNL     1      47.969   3.231  16.928  0.00  0.00    +0.000 A 
ATOM     24  C   UNL     1      49.119   2.689  17.488  0.00  0.00    +0.000 A 
ATOM     25  C   UNL     1      50.221   3.505  17.729  0.00  0.00    +0.000 A 
ATOM     26  C   UNL     1      50.175   4.863  17.393  0.00  0.00    +0.000 A 
ENDBRANCH  19  21
ENDBRANCH  14  15
ENDBRANCH   1  14
TORSDOF 6
ENDMDL
