MODEL 1
REMARK VINA RESULT:    -7.892      0.000      0.000
REMARK INTER + INTRA:         -11.070
REMARK INTER:                 -10.430
REMARK INTRA:                  -0.640
REMARK UNBOUND:                -0.640
REMARK  Name = 
REMARK  7 active torsions:
REMARK  status: ('A' for Active; 'I' for Inactive)
REMARK    1  A    between atoms: C_1  and  C_2
REMARK    2  A    between atoms: C_5  and  C_6
REMARK    3  A    between atoms: C_6  and  C_7
REMARK    4  A    between atoms: C_7  and  N_8
REMARK    5  A    between atoms: C_12  and  C_13
REMARK    6  A    between atoms: C_19  and  C_20
REMARK    7  A    between atoms: C_20  and  N_21
REMARK                            x       y       z     vdW  Elec       q    Type
REMARK                         _______ _______ _______ _____ _____    ______ ____
ROOT
ATOM      1  C   UNL     1      43.243   5.042  10.541  0.00  0.00    +0.000 C 
ENDROOT
BRANCH   1   2
ATOM      2  N   UNL     1      43.619   3.617  10.538  0.00  0.00    +0.000 N 
ATOM      3  C   UNL     1      44.548   3.305   9.526  0.00  0.00    +0.000 A 
ATOM      4  C   UNL     1      44.992   1.991   9.392  0.00  0.00    +0.000 A 
ATOM      5  C   UNL     1      45.918   1.675   8.392  0.00  0.00    +0.000 A 
ATOM      6  C   UNL     1      46.385   2.677   7.540  0.00  0.00    +0.000 A 
ATOM      7  C   UNL     1      45.903   3.955   7.756  0.00  0.00    +0.000 A 
ATOM      8  N   UNL     1      45.012   4.280   8.723  0.00  0.00    +0.000 NA
ATOM      9  H   UNL     1      42.813   3.009  10.431  0.00  0.00    +0.000 HD
BRANCH   6  10
ATOM     10  C   UNL     1      47.353   2.344   6.468  0.00  0.00    +0.000 C 
ATOM     11  N   UNL     1      47.401   3.135   5.351  0.00  0.00    +0.000 N 
ATOM     12  O   UNL     1      48.096   1.376   6.565  0.00  0.00    +0.000 OA
ATOM     13  H   UNL     1      46.832   3.944   5.166  0.00  0.00    +0.000 HD
ATOM     14  H   UNL     1      48.075   2.866   4.640  0.00  0.00    +0.000 HD
ENDBRANCH   6  10
ENDBRANCH   1   2
BRANCH   1  15
ATOM     15  C   UNL     1      43.327   5.633  11.952  0.00  0.00    +0.000 C 
BRANCH  15  20
ATOM     16  C   UNL     1      48.865   6.792  13.443  0.00  0.00    +0.000 C 
ATOM     17  C   UNL     1      47.429   6.477  13.121  0.00  0.00    +0.000 A 
ATOM     18  C   UNL     1      46.804   7.197  12.087  0.00  0.00    +0.000 A 
ATOM     19  C   UNL     1      45.484   6.931  11.713  0.00  0.00    +0.000 A 
ATOM     20  C   UNL     1      44.754   5.932  12.358  0.00  0.00    +0.000 A 
ATOM     21  C   UNL     1      45.367   5.223  13.402  0.00  0.00    +0.000 A 
ATOM     22  C   UNL     1      46.700   5.475  13.796  0.00  0.00    +0.000 A 
BRANCH  22  23
ATOM     23  C   UNL     1      47.294   4.613  14.889  0.00  0.00    +0.000 C 
BRANCH  23  24
ATOM     24  N   UNL     1      47.439   3.219  14.476  0.00  0.00    +0.000 NA
ATOM     25  H   UNL     1      48.232   2.813  14.971  0.00  0.00    +0.000 HD
ATOM     26  H   UNL     1      47.670   3.188  13.485  0.00  0.00    +0.000 HD
ENDBRANCH  23  24
ENDBRANCH  22  23
ENDBRANCH  15  20
ENDBRANCH   1  15
TORSDOF 6
ENDMDL
MODEL 2
REMARK VINA RESULT:    -7.496      1.601      2.179
REMARK INTER + INTRA:         -10.547
REMARK INTER:                 -10.032
REMARK INTRA:                  -0.514
REMARK UNBOUND:                -0.640
REMARK  Name = 
REMARK  7 active torsions:
REMARK  status: ('A' for Active; 'I' for Inactive)
REMARK    1  A    between atoms: C_1  and  C_2
REMARK    2  A    between atoms: C_5  and  C_6
REMARK    3  A    between atoms: C_6  and  C_7
REMARK    4  A    between atoms: C_7  and  N_8
REMARK    5  A    between atoms: C_12  and  C_13
REMARK    6  A    between atoms: C_19  and  C_20
REMARK    7  A    between atoms: C_20  and  N_21
REMARK                            x       y       z     vdW  Elec       q    Type
REMARK                         _______ _______ _______ _____ _____    ______ ____
ROOT
ATOM      1  C   UNL     1      43.363   5.016  10.784  0.00  0.00    +0.000 C 
ENDROOT
BRANCH   1   2
ATOM      2  N   UNL     1      43.652   3.577  10.661  0.00  0.00    +0.000 N 
ATOM      3  C   UNL     1      44.574   3.295   9.633  0.00  0.00    +0.000 A 
ATOM      4  C   UNL     1      44.940   1.973   9.390  0.00  0.00    +0.000 A 
ATOM      5  C   UNL     1      45.858   1.687   8.374  0.00  0.00    +0.000 A 
ATOM      6  C   UNL     1      46.395   2.728   7.615  0.00  0.00    +0.000 A 
ATOM      7  C   UNL     1      45.988   4.009   7.936  0.00  0.00    +0.000 A 
ATOM      8  N   UNL     1      45.106   4.305   8.919  0.00  0.00    +0.000 NA
ATOM      9  H   UNL     1      42.812   3.030  10.496  0.00  0.00    +0.000 HD
BRANCH   6  10
ATOM     10  C   UNL     1      47.354   2.429   6.525  0.00  0.00    +0.000 C 
ATOM     11  N   UNL     1      47.314   3.182   5.383  0.00  0.00    +0.000 N 
ATOM     12  O   UNL     1      48.169   1.519   6.631  0.00  0.00    +0.000 OA
ATOM     13  H   UNL     1      46.683   3.942   5.189  0.00  0.00    +0.000 HD
ATOM     14  H   UNL     1      47.987   2.938   4.661  0.00  0.00    +0.000 HD
ENDBRANCH   6  10
ENDBRANCH   1   2
BRANCH   1  15
ATOM     15  C   UNL     1      43.396   5.465  12.248  0.00  0.00    +0.000 C 
BRANCH  15  20
ATOM     16  C   UNL     1      48.756   7.024  14.001  0.00  0.00    +0.000 C 
ATOM     17  C   UNL     1      47.381   6.668  13.503  0.00  0.00    +0.000 A 
ATOM     18  C   UNL     1      46.934   5.345  13.670  0.00  0.00    +0.000 A 
ATOM     19  C   UNL     1      45.655   4.955  13.263  0.00  0.00    +0.000 A 
ATOM     20  C   UNL     1      44.785   5.878  12.683  0.00  0.00    +0.000 A 
ATOM     21  C   UNL     1      45.233   7.195  12.498  0.00  0.00    +0.000 A 
ATOM     22  C   UNL     1      46.520   7.611  12.903  0.00  0.00    +0.000 A 
BRANCH  22  23
ATOM     23  C   UNL     1      46.888   9.068  12.720  0.00  0.00    +0.000 C 
BRANCH  23  24
ATOM     24  N   UNL     1      45.711   9.918  12.553  0.00  0.00    +0.000 NA
ATOM     25  H   UNL     1      46.020  10.879  12.413  0.00  0.00    +0.000 HD
ATOM     26  H   UNL     1      45.170   9.910  13.415  0.00  0.00    +0.000 HD
ENDBRANCH  23  24
ENDBRANCH  22  23
ENDBRANCH  15  20
ENDBRANCH   1  15
TORSDOF 6
ENDMDL
MODEL 3
REMARK VINA RESULT:    -6.718      2.815      7.317
REMARK INTER + INTRA:          -9.518
REMARK INTER:                  -9.138
REMARK INTRA:                  -0.381
REMARK UNBOUND:                -0.640
REMARK  Name = 
REMARK  7 active torsions:
REMARK  status: ('A' for Active; 'I' for Inactive)
REMARK    1  A    between atoms: C_1  and  C_2
REMARK    2  A    between atoms: C_5  and  C_6
REMARK    3  A    between atoms: C_6  and  C_7
REMARK    4  A    between atoms: C_7  and  N_8
REMARK    5  A    between atoms: C_12  and  C_13
REMARK    6  A    between atoms: C_19  and  C_20
REMARK    7  A    between atoms: C_20  and  N_21
REMARK                            x       y       z     vdW  Elec       q    Type
REMARK                         _______ _______ _______ _____ _____    ______ ____
ROOT
ATOM      1  C   UNL     1      44.977   5.273  10.706  0.00  0.00    +0.000 C 
ENDROOT
BRANCH   1   2
ATOM      2  N   UNL     1      46.065   6.182  11.108  0.00  0.00    +0.000 N 
ATOM      3  C   UNL     1      46.556   5.902  12.399  0.00  0.00    +0.000 A 
ATOM      4  C   UNL     1      47.582   6.685  12.921  0.00  0.00    +0.000 A 
ATOM      5  C   UNL     1      48.078   6.409  14.200  0.00  0.00    +0.000 A 
ATOM      6  C   UNL     1      47.538   5.354  14.938  0.00  0.00    +0.000 A 
ATOM      7  C   UNL     1      46.534   4.620  14.335  0.00  0.00    +0.000 A 
ATOM      8  N   UNL     1      46.047   4.869  13.096  0.00  0.00    +0.000 NA
ATOM      9  H   UNL     1      45.780   7.156  11.079  0.00  0.00    +0.000 HD
BRANCH   6  10
ATOM     10  C   UNL     1      48.046   5.069  16.301  0.00  0.00    +0.000 C 
ATOM     11  N   UNL     1      47.155   4.987  17.336  0.00  0.00    +0.000 N 
ATOM     12  O   UNL     1      49.244   4.916  16.510  0.00  0.00    +0.000 OA
ATOM     13  H   UNL     1      46.157   5.104  17.277  0.00  0.00    +0.000 HD
ATOM     14  H   UNL     1      47.549   4.795  18.253  0.00  0.00    +0.000 HD
ENDBRANCH   6  10
ENDBRANCH   1   2
BRANCH   1  15
ATOM     15  C   UNL     1      44.941   5.092   9.185  0.00  0.00    +0.000 C 
BRANCH  15  20
ATOM     16  C   UNL     1      46.664  -0.284   7.650  0.00  0.00    +0.000 C 
ATOM     17  C   UNL     1      46.237   1.119   7.985  0.00  0.00    +0.000 A 
ATOM     18  C   UNL     1      45.200   1.296   8.917  0.00  0.00    +0.000 A 
ATOM     19  C   UNL     1      44.778   2.571   9.302  0.00  0.00    +0.000 A 
ATOM     20  C   UNL     1      45.387   3.707   8.768  0.00  0.00    +0.000 A 
ATOM     21  C   UNL     1      46.410   3.537   7.824  0.00  0.00    +0.000 A 
ATOM     22  C   UNL     1      46.854   2.258   7.423  0.00  0.00    +0.000 A 
BRANCH  22  23
ATOM     23  C   UNL     1      48.009   2.177   6.448  0.00  0.00    +0.000 C 
BRANCH  23  24
ATOM     24  N   UNL     1      47.807   3.033   5.281  0.00  0.00    +0.000 NA
ATOM     25  H   UNL     1      46.806   3.138   5.123  0.00  0.00    +0.000 HD
ATOM     26  H   UNL     1      48.184   2.569   4.458  0.00  0.00    +0.000 HD
ENDBRANCH  23  24
ENDBRANCH  22  23
ENDBRANCH  15  20
ENDBRANCH   1  15
TORSDOF 6
ENDMDL
MODEL 4
REMARK VINA RESULT:    -6.521      3.835      6.113
REMARK INTER + INTRA:          -9.258
REMARK INTER:                  -8.918
REMARK INTRA:                  -0.340
REMARK UNBOUND:                -0.640
REMARK  Name = 
REMARK  7 active torsions:
REMARK  status: ('A' for Active; 'I' for Inactive)
REMARK    1  A    between atoms: C_1  and  C_2
REMARK    2  A    between atoms: C_5  and  C_6
REMARK    3  A    between atoms: C_6  and  C_7
REMARK    4  A    between atoms: C_7  and  N_8
REMARK    5  A    between atoms: C_12  and  C_13
REMARK    6  A    between atoms: C_19  and  C_20
REMARK    7  A    between atoms: C_20  and  N_21
REMARK                            x       y       z     vdW  Elec       q    Type
REMARK                         _______ _______ _______ _____ _____    ______ ____
ROOT
ATOM      1  C   UNL     1      47.353   3.894  15.636  0.00  0.00    +0.000 C 
ENDROOT
BRANCH   1   2
ATOM      2  N   UNL     1      46.786   5.061  14.937  0.00  0.00    +0.000 N 
ATOM      3  C   UNL     1      46.149   4.712  13.730  0.00  0.00    +0.000 A 
ATOM      4  C   UNL     1      45.571   5.712  12.951  0.00  0.00    +0.000 A 
ATOM      5  C   UNL     1      44.932   5.371  11.754  0.00  0.00    +0.000 A 
ATOM      6  C   UNL     1      44.883   4.036  11.352  0.00  0.00    +0.000 A 
ATOM      7  C   UNL     1      45.468   3.109  12.194  0.00  0.00    +0.000 A 
ATOM      8  N   UNL     1      46.084   3.419  13.359  0.00  0.00    +0.000 NA
ATOM      9  H   UNL     1      47.490   5.765  14.735  0.00  0.00    +0.000 HD
BRANCH   6  10
ATOM     10  C   UNL     1      44.223   3.672  10.076  0.00  0.00    +0.000 C 
ATOM     11  N   UNL     1      43.963   4.657   9.161  0.00  0.00    +0.000 N 
ATOM     12  O   UNL     1      43.904   2.514   9.836  0.00  0.00    +0.000 OA
ATOM     13  H   UNL     1      44.173   5.636   9.261  0.00  0.00    +0.000 HD
ATOM     14  H   UNL     1      43.505   4.362   8.303  0.00  0.00    +0.000 HD
ENDBRANCH   6  10
ENDBRANCH   1   2
BRANCH   1  15
ATOM     15  C   UNL     1      47.598   4.201  17.116  0.00  0.00    +0.000 C 
BRANCH  15  20
ATOM     16  C   UNL     1      53.223   3.541  18.583  0.00  0.00    +0.000 C 
ATOM     17  C   UNL     1      51.768   3.646  18.215  0.00  0.00    +0.000 A 
ATOM     18  C   UNL     1      51.094   4.848  18.498  0.00  0.00    +0.000 A 
ATOM     19  C   UNL     1      49.753   5.027  18.150  0.00  0.00    +0.000 A 
ATOM     20  C   UNL     1      49.048   4.011  17.503  0.00  0.00    +0.000 A 
ATOM     21  C   UNL     1      49.711   2.804  17.234  0.00  0.00    +0.000 A 
ATOM     22  C   UNL     1      51.067   2.602  17.575  0.00  0.00    +0.000 A 
BRANCH  22  23
ATOM     23  C   UNL     1      51.711   1.289  17.185  0.00  0.00    +0.000 C 
BRANCH  23  24
ATOM     24  N   UNL     1      51.518   0.256  18.200  0.00  0.00    +0.000 NA
ATOM     25  H   UNL     1      51.301   0.708  19.087  0.00  0.00    +0.000 HD
ATOM     26  H   UNL     1      52.393  -0.245  18.336  0.00  0.00    +0.000 HD
ENDBRANCH  23  24
ENDBRANCH  22  23
ENDBRANCH  15  20
ENDBRANCH   1  15
TORSDOF 6
ENDMDL
MODEL 5
REMARK VINA RESULT:    -6.209      3.223      7.439
REMARK INTER + INTRA:          -8.845
REMARK INTER:                  -8.281
REMARK INTRA:                  -0.565
REMARK UNBOUND:                -0.640
REMARK  Name = 
REMARK  7 active torsions:
REMARK  status: ('A' for Active; 'I' for Inactive)
REMARK    1  A    between atoms: C_1  and  C_2
REMARK    2  A    between atoms: C_5  and  C_6
REMARK    3  A    between atoms: C_6  and  C_7
REMARK    4  A    between atoms: C_7  and  N_8
REMARK    5  A    between atoms: C_12  and  C_13
REMARK    6  A    between atoms: C_19  and  C_20
REMARK    7  A    between atoms: C_20  and  N_21
REMARK                            x       y       z     vdW  Elec       q    Type
REMARK                         _______ _______ _______ _____ _____    ______ ____
ROOT
ATOM      1  C   UNL     1      48.709   7.126  12.512  0.00  0.00    +0.000 C 
ENDROOT
BRANCH   1   2
ATOM      2  N   UNL     1      49.051   7.506  13.894  0.00  0.00    +0.000 N 
ATOM      3  C   UNL     1      48.645   6.541  14.837  0.00  0.00    +0.000 A 
ATOM      4  C   UNL     1      48.892   6.765  16.190  0.00  0.00    +0.000 A 
ATOM      5  C   UNL     1      48.495   5.809  17.131  0.00  0.00    +0.000 A 
ATOM      6  C   UNL     1      47.856   4.644  16.705  0.00  0.00    +0.000 A 
ATOM      7  C   UNL     1      47.667   4.497  15.344  0.00  0.00    +0.000 A 
ATOM      8  N   UNL     1      48.049   5.409  14.418  0.00  0.00    +0.000 NA
ATOM      9  H   UNL     1      48.646   8.400  14.157  0.00  0.00    +0.000 HD
BRANCH   6  10
ATOM     10  C   UNL     1      47.418   3.635  17.700  0.00  0.00    +0.000 C 
ATOM     11  N   UNL     1      48.030   3.604  18.923  0.00  0.00    +0.000 N 
ATOM     12  O   UNL     1      46.529   2.834  17.438  0.00  0.00    +0.000 OA
ATOM     13  H   UNL     1      48.773   4.207  19.237  0.00  0.00    +0.000 HD
ATOM     14  H   UNL     1      47.701   2.893  19.571  0.00  0.00    +0.000 HD
ENDBRANCH   6  10
ENDBRANCH   1   2
BRANCH   1  15
ATOM     15  C   UNL     1      47.466   7.876  12.024  0.00  0.00    +0.000 C 
BRANCH  15  20
ATOM     16  C   UNL     1      42.847   4.314  11.574  0.00  0.00    +0.000 C 
ATOM     17  C   UNL     1      44.034   5.237  11.625  0.00  0.00    +0.000 A 
ATOM     18  C   UNL     1      44.212   6.032  12.771  0.00  0.00    +0.000 A 
ATOM     19  C   UNL     1      45.311   6.884  12.900  0.00  0.00    +0.000 A 
ATOM     20  C   UNL     1      46.268   6.961  11.887  0.00  0.00    +0.000 A 
ATOM     21  C   UNL     1      46.087   6.184  10.734  0.00  0.00    +0.000 A 
ATOM     22  C   UNL     1      44.984   5.314  10.584  0.00  0.00    +0.000 A 
BRANCH  22  23
ATOM     23  C   UNL     1      44.909   4.468   9.331  0.00  0.00    +0.000 C 
BRANCH  23  24
ATOM     24  N   UNL     1      45.835   4.929   8.298  0.00  0.00    +0.000 NA
ATOM     25  H   UNL     1      46.547   4.214   8.157  0.00  0.00    +0.000 HD
ATOM     26  H   UNL     1      46.319   5.759   8.631  0.00  0.00    +0.000 HD
ENDBRANCH  23  24
ENDBRANCH  22  23
ENDBRANCH  15  20
ENDBRANCH   1  15
TORSDOF 6
ENDMDL
MODEL 6
REMARK VINA RESULT:    -6.062      4.055      8.078
REMARK INTER + INTRA:          -8.651
REMARK INTER:                  -8.323
REMARK INTRA:                  -0.328
REMARK UNBOUND:                -0.640
REMARK  Name = 
REMARK  7 active torsions:
REMARK  status: ('A' for Active; 'I' for Inactive)
REMARK    1  A    between atoms: C_1  and  C_2
REMARK    2  A    between atoms: C_5  and  C_6
REMARK    3  A    between atoms: C_6  and  C_7
REMARK    4  A    between atoms: C_7  and  N_8
REMARK    5  A    between atoms: C_12  and  C_13
REMARK    6  A    between atoms: C_19  and  C_20
REMARK    7  A    between atoms: C_20  and  N_21
REMARK                            x       y       z     vdW  Elec       q    Type
REMARK                         _______ _______ _______ _____ _____    ______ ____
ROOT
ATOM      1  C   UNL     1      47.367   5.809  13.934  0.00  0.00    +0.000 C 
ENDROOT
BRANCH   1   2
ATOM      2  N   UNL     1      46.913   4.850  14.957  0.00  0.00    +0.000 N 
ATOM      3  C   UNL     1      47.797   4.766  16.051  0.00  0.00    +0.000 A 
ATOM      4  C   UNL     1      47.506   3.893  17.096  0.00  0.00    +0.000 A 
ATOM      5  C   UNL     1      48.377   3.809  18.188  0.00  0.00    +0.000 A 
ATOM      6  C   UNL     1      49.527   4.599  18.217  0.00  0.00    +0.000 A 
ATOM      7  C   UNL     1      49.728   5.448  17.145  0.00  0.00    +0.000 A 
ATOM      8  N   UNL     1      48.893   5.548  16.084  0.00  0.00    +0.000 NA
ATOM      9  H   UNL     1      46.786   3.917  14.577  0.00  0.00    +0.000 HD
BRANCH   6  10
ATOM     10  C   UNL     1      50.463   4.500  19.362  0.00  0.00    +0.000 C 
ATOM     11  N   UNL     1      49.960   4.562  20.634  0.00  0.00    +0.000 N 
ATOM     12  O   UNL     1      51.668   4.375  19.186  0.00  0.00    +0.000 OA
ATOM     13  H   UNL     1      48.993   4.672  20.891  0.00  0.00    +0.000 HD
ATOM     14  H   UNL     1      50.638   4.495  21.388  0.00  0.00    +0.000 HD
ENDBRANCH   6  10
ENDBRANCH   1   2
BRANCH   1  15
ATOM     15  C   UNL     1      46.178   6.484  13.242  0.00  0.00    +0.000 C 
BRANCH  15  20
ATOM     16  C   UNL     1      44.536   3.706   8.362  0.00  0.00    +0.000 C 
ATOM     17  C   UNL     1      44.953   4.364   9.649  0.00  0.00    +0.000 A 
ATOM     18  C   UNL     1      45.822   5.467   9.583  0.00  0.00    +0.000 A 
ATOM     19  C   UNL     1      46.221   6.148  10.737  0.00  0.00    +0.000 A 
ATOM     20  C   UNL     1      45.757   5.747  11.990  0.00  0.00    +0.000 A 
ATOM     21  C   UNL     1      44.905   4.635  12.063  0.00  0.00    +0.000 A 
ATOM     22  C   UNL     1      44.487   3.934  10.910  0.00  0.00    +0.000 A 
BRANCH  22  23
ATOM     23  C   UNL     1      43.514   2.788  11.086  0.00  0.00    +0.000 C 
BRANCH  23  24
ATOM     24  N   UNL     1      43.561   2.227  12.435  0.00  0.00    +0.000 NA
ATOM     25  H   UNL     1      42.607   2.051  12.747  0.00  0.00    +0.000 HD
ATOM     26  H   UNL     1      43.952   2.919  13.070  0.00  0.00    +0.000 HD
ENDBRANCH  23  24
ENDBRANCH  22  23
ENDBRANCH  15  20
ENDBRANCH   1  15
TORSDOF 6
ENDMDL
MODEL 7
REMARK VINA RESULT:    -5.826      3.603      5.836
REMARK INTER + INTRA:          -8.339
REMARK INTER:                  -7.764
REMARK INTRA:                  -0.576
REMARK UNBOUND:                -0.640
REMARK  Name = 
REMARK  7 active torsions:
REMARK  status: ('A' for Active; 'I' for Inactive)
REMARK    1  A    between atoms: C_1  and  C_2
REMARK    2  A    between atoms: C_5  and  C_6
REMARK    3  A    between atoms: C_6  and  C_7
REMARK    4  A    between atoms: C_7  and  N_8
REMARK    5  A    between atoms: C_12  and  C_13
REMARK    6  A    between atoms: C_19  and  C_20
REMARK    7  A    between atoms: C_20  and  N_21
REMARK                            x       y       z     vdW  Elec       q    Type
REMARK                         _______ _______ _______ _____ _____    ______ ____
ROOT
ATOM      1  C   UNL     1      48.731   6.898  13.960  0.00  0.00    +0.000 C 
ENDROOT
BRANCH   1   2
ATOM      2  N   UNL     1      47.674   7.401  13.066  0.00  0.00    +0.000 N 
ATOM      3  C   UNL     1      46.735   6.407  12.725  0.00  0.00    +0.000 A 
ATOM      4  C   UNL     1      45.678   6.732  11.877  0.00  0.00    +0.000 A 
ATOM      5  C   UNL     1      44.740   5.751  11.537  0.00  0.00    +0.000 A 
ATOM      6  C   UNL     1      44.874   4.459  12.050  0.00  0.00    +0.000 A 
ATOM      7  C   UNL     1      45.942   4.232  12.897  0.00  0.00    +0.000 A 
ATOM      8  N   UNL     1      46.856   5.170  13.241  0.00  0.00    +0.000 NA
ATOM      9  H   UNL     1      48.051   7.792  12.208  0.00  0.00    +0.000 HD
BRANCH   6  10
ATOM     10  C   UNL     1      43.893   3.412  11.680  0.00  0.00    +0.000 C 
ATOM     11  N   UNL     1      43.722   2.340  12.514  0.00  0.00    +0.000 N 
ATOM     12  O   UNL     1      43.246   3.489  10.642  0.00  0.00    +0.000 OA
ATOM     13  H   UNL     1      44.206   2.174  13.382  0.00  0.00    +0.000 HD
ATOM     14  H   UNL     1      43.043   1.645  12.218  0.00  0.00    +0.000 HD
ENDBRANCH   6  10
ENDBRANCH   1   2
BRANCH   1  15
ATOM     15  C   UNL     1      48.852   7.765  15.217  0.00  0.00    +0.000 C 
BRANCH  15  20
ATOM     16  C   UNL     1      48.878   4.587  20.129  0.00  0.00    +0.000 C 
ATOM     17  C   UNL     1      48.822   5.367  18.844  0.00  0.00    +0.000 A 
ATOM     18  C   UNL     1      49.189   6.724  18.872  0.00  0.00    +0.000 A 
ATOM     19  C   UNL     1      49.195   7.498  17.708  0.00  0.00    +0.000 A 
ATOM     20  C   UNL     1      48.840   6.935  16.483  0.00  0.00    +0.000 A 
ATOM     21  C   UNL     1      48.456   5.586  16.452  0.00  0.00    +0.000 A 
ATOM     22  C   UNL     1      48.444   4.785  17.616  0.00  0.00    +0.000 A 
BRANCH  22  23
ATOM     23  C   UNL     1      48.078   3.323  17.471  0.00  0.00    +0.000 C 
BRANCH  23  24
ATOM     24  N   UNL     1      46.633   3.110  17.512  0.00  0.00    +0.000 NA
ATOM     25  H   UNL     1      46.188   3.771  16.877  0.00  0.00    +0.000 HD
ATOM     26  H   UNL     1      46.290   3.328  18.445  0.00  0.00    +0.000 HD
ENDBRANCH  23  24
ENDBRANCH  22  23
ENDBRANCH  15  20
ENDBRANCH   1  15
TORSDOF 6
ENDMDL
MODEL 8
REMARK VINA RESULT:    -5.607      4.817      8.751
REMARK INTER + INTRA:          -8.050
REMARK INTER:                  -7.635
REMARK INTRA:                  -0.415
REMARK UNBOUND:                -0.640
REMARK  Name = 
REMARK  7 active torsions:
REMARK  status: ('A' for Active; 'I' for Inactive)
REMARK    1  A    between atoms: C_1  and  C_2
REMARK    2  A    between atoms: C_5  and  C_6
REMARK    3  A    between atoms: C_6  and  C_7
REMARK    4  A    between atoms: C_7  and  N_8
REMARK    5  A    between atoms: C_12  and  C_13
REMARK    6  A    between atoms: C_19  and  C_20
REMARK    7  A    between atoms: C_20  and  N_21
REMARK                            x       y       z     vdW  Elec       q    Type
REMARK                         _______ _______ _______ _____ _____    ______ ____
ROOT
ATOM      1  C   UNL     1      48.243   6.615  14.090  0.00  0.00    +0.000 C 
ENDROOT
BRANCH   1   2
ATOM      2  N   UNL     1      48.487   7.505  15.238  0.00  0.00    +0.000 N 
ATOM      3  C   UNL     1      48.681   6.797  16.441  0.00  0.00    +0.000 A 
ATOM      4  C   UNL     1      48.915   7.505  17.617  0.00  0.00    +0.000 A 
ATOM      5  C   UNL     1      49.113   6.808  18.814  0.00  0.00    +0.000 A 
ATOM      6  C   UNL     1      49.073   5.413  18.816  0.00  0.00    +0.000 A 
ATOM      7  C   UNL     1      48.852   4.793  17.601  0.00  0.00    +0.000 A 
ATOM      8  N   UNL     1      48.665   5.451  16.432  0.00  0.00    +0.000 NA
ATOM      9  H   UNL     1      47.731   8.169  15.376  0.00  0.00    +0.000 HD
BRANCH   6  10
ATOM     10  C   UNL     1      49.265   4.670  20.084  0.00  0.00    +0.000 C 
ATOM     11  N   UNL     1      48.504   3.556  20.320  0.00  0.00    +0.000 N 
ATOM     12  O   UNL     1      50.081   5.042  20.918  0.00  0.00    +0.000 OA
ATOM     13  H   UNL     1      47.802   3.171  19.710  0.00  0.00    +0.000 HD
ATOM     14  H   UNL     1      48.666   3.082  21.204  0.00  0.00    +0.000 HD
ENDBRANCH   6  10
ENDBRANCH   1   2
BRANCH   1  15
ATOM     15  C   UNL     1      47.059   7.107  13.251  0.00  0.00    +0.000 C 
BRANCH  15  20
ATOM     16  C   UNL     1      43.391   2.745  11.931  0.00  0.00    +0.000 C 
ATOM     17  C   UNL     1      44.282   3.903  12.287  0.00  0.00    +0.000 A 
ATOM     18  C   UNL     1      45.579   3.626  12.756  0.00  0.00    +0.000 A 
ATOM     19  C   UNL     1      46.472   4.654  13.071  0.00  0.00    +0.000 A 
ATOM     20  C   UNL     1      46.095   5.988  12.920  0.00  0.00    +0.000 A 
ATOM     21  C   UNL     1      44.797   6.270  12.470  0.00  0.00    +0.000 A 
ATOM     22  C   UNL     1      43.879   5.247  12.144  0.00  0.00    +0.000 A 
BRANCH  22  23
ATOM     23  C   UNL     1      42.523   5.651  11.605  0.00  0.00    +0.000 C 
BRANCH  23  24
ATOM     24  N   UNL     1      42.489   7.052  11.191  0.00  0.00    +0.000 NA
ATOM     25  H   UNL     1      42.405   7.636  12.022  0.00  0.00    +0.000 HD
ATOM     26  H   UNL     1      41.652   7.215  10.635  0.00  0.00    +0.000 HD
ENDBRANCH  23  24
ENDBRANCH  22  23
ENDBRANCH  15  20
ENDBRANCH   1  15
TORSDOF 6
ENDMDL
MODEL 9
REMARK VINA RESULT:    -5.476      5.103      7.649
REMARK INTER + INTRA:          -7.877
REMARK INTER:                  -7.466
REMARK INTRA:                  -0.412
REMARK UNBOUND:                -0.640
REMARK  Name = 
REMARK  7 active torsions:
REMARK  status: ('A' for Active; 'I' for Inactive)
REMARK    1  A    between atoms: C_1  and  C_2
REMARK    2  A    between atoms: C_5  and  C_6
REMARK    3  A    between atoms: C_6  and  C_7
REMARK    4  A    between atoms: C_7  and  N_8
REMARK    5  A    between atoms: C_12  and  C_13
REMARK    6  A    between atoms: C_19  and  C_20
REMARK    7  A    between atoms: C_20  and  N_21
REMARK                            x       y       z     vdW  Elec       q    Type
REMARK                         _______ _______ _______ _____ _____    ______ ____
ROOT
ATOM      1  C   UNL     1      44.322   9.466  10.826  0.00  0.00    +0.000 C 
ENDROOT
BRANCH   1   2
ATOM      2  N   UNL     1      43.620   8.180  10.991  0.00  0.00    +0.000 N 
ATOM      3  C   UNL     1      44.354   7.258  11.763  0.00  0.00    +0.000 A 
ATOM      4  C   UNL     1      43.822   5.992  11.999  0.00  0.00    +0.000 A 
ATOM      5  C   UNL     1      44.544   5.073  12.768  0.00  0.00    +0.000 A 
ATOM      6  C   UNL     1      45.787   5.434  13.289  0.00  0.00    +0.000 A 
ATOM      7  C   UNL     1      46.230   6.715  13.019  0.00  0.00    +0.000 A 
ATOM      8  N   UNL     1      45.542   7.619  12.282  0.00  0.00    +0.000 NA
ATOM      9  H   UNL     1      43.400   7.747  10.099  0.00  0.00    +0.000 HD
BRANCH   6  10
ATOM     10  C   UNL     1      46.564   4.458  14.090  0.00  0.00    +0.000 C 
ATOM     11  N   UNL     1      47.071   4.849  15.300  0.00  0.00    +0.000 N 
ATOM     12  O   UNL     1      46.762   3.320  13.682  0.00  0.00    +0.000 OA
ATOM     13  H   UNL     1      46.975   5.757  15.723  0.00  0.00    +0.000 HD
ATOM     14  H   UNL     1      47.600   4.149  15.812  0.00  0.00    +0.000 HD
ENDBRANCH   6  10
ENDBRANCH   1   2
BRANCH   1  15
ATOM     15  C   UNL     1      43.607  10.587  11.587  0.00  0.00    +0.000 C 
BRANCH  15  20
ATOM     16  C   UNL     1      38.451  11.972   9.195  0.00  0.00    +0.000 C 
ATOM     17  C   UNL     1      39.750  11.562   9.833  0.00  0.00    +0.000 A 
ATOM     18  C   UNL     1      40.950  11.967   9.223  0.00  0.00    +0.000 A 
ATOM     19  C   UNL     1      42.191  11.652   9.782  0.00  0.00    +0.000 A 
ATOM     20  C   UNL     1      42.267  10.926  10.971  0.00  0.00    +0.000 A 
ATOM     21  C   UNL     1      41.073  10.504  11.574  0.00  0.00    +0.000 A 
ATOM     22  C   UNL     1      39.808  10.813  11.028  0.00  0.00    +0.000 A 
BRANCH  22  23
ATOM     23  C   UNL     1      38.576  10.369  11.787  0.00  0.00    +0.000 C 
BRANCH  23  24
ATOM     24  N   UNL     1      38.240   8.971  11.524  0.00  0.00    +0.000 NA
ATOM     25  H   UNL     1      37.225   8.880  11.497  0.00  0.00    +0.000 HD
ATOM     26  H   UNL     1      38.562   8.399  12.302  0.00  0.00    +0.000 HD
ENDBRANCH  23  24
ENDBRANCH  22  23
ENDBRANCH  15  20
ENDBRANCH   1  15
TORSDOF 6
ENDMDL
