MODEL 1
REMARK VINA RESULT:    -8.651      0.000      0.000
REMARK INTER + INTRA:         -13.255
REMARK INTER:                 -12.191
REMARK INTRA:                  -1.065
REMARK UNBOUND:                -1.065
REMARK  Name = 
REMARK  9 active torsions:
REMARK  status: ('A' for Active; 'I' for Inactive)
REMARK    1  A    between atoms: C_1  and  C_2
REMARK    2  A    between atoms: C_2  and  C_3
REMARK    3  A    between atoms: C_2  and  C_4
REMARK    4  A    between atoms: C_2  and  C_15
REMARK    5  A    between atoms: C_4  and  O_5
REMARK    6  A    between atoms: O_5  and  C_6
REMARK    7  A    between atoms: C_9  and  C_10
REMARK    8  A    between atoms: C_19  and  O_20
REMARK    9  A    between atoms: O_20  and  C_21
REMARK                            x       y       z     vdW  Elec       q    Type
REMARK                         _______ _______ _______ _____ _____    ______ ____
ROOT
ATOM      1  C   UNL     1      42.844   5.427  12.845  0.00  0.00    +0.000 C 
ATOM      2  C   UNL     1      43.947   4.614  12.124  0.00  0.00    +0.000 C 
ATOM      3  C   UNL     1      43.804   3.158  12.632  0.00  0.00    +0.000 C 
ENDROOT
BRANCH   2   4
ATOM      4  C   UNL     1      45.359   5.191  12.367  0.00  0.00    +0.000 A 
ATOM      5  C   UNL     1      45.915   6.165  11.519  0.00  0.00    +0.000 A 
ATOM      6  C   UNL     1      47.151   6.758  11.801  0.00  0.00    +0.000 A 
ATOM      7  C   UNL     1      47.867   6.398  12.944  0.00  0.00    +0.000 A 
ATOM      8  C   UNL     1      47.346   5.434  13.797  0.00  0.00    +0.000 A 
ATOM      9  C   UNL     1      46.103   4.849  13.514  0.00  0.00    +0.000 A 
BRANCH   8  10
ATOM     10  O   UNL     1      47.927   5.021  14.970  0.00  0.00    +0.000 OA
BRANCH  10  11
ATOM     11  C   UNL     1      47.232   4.086  15.822  0.00  0.00    +0.000 C 
ATOM     12  C   UNL     1      47.232   4.380  17.343  0.00  0.00    +0.000 C 
ATOM     13  C   UNL     1      47.554   2.899  17.596  0.00  0.00    +0.000 C 
ATOM     14  C   UNL     1      48.050   2.807  16.146  0.00  0.00    +0.000 C 
ENDBRANCH  10  11
ENDBRANCH   8  10
ENDBRANCH   2   4
BRANCH   2  15
ATOM     15  C   UNL     1      43.699   4.657  10.592  0.00  0.00    +0.000 C 
BRANCH  15  16
ATOM     16  O   UNL     1      43.585   3.336  10.033  0.00  0.00    +0.000 OA
BRANCH  16  17
ATOM     17  C   UNL     1      44.602   3.064   9.140  0.00  0.00    +0.000 A 
ATOM     18  C   UNL     1      45.159   4.118   8.421  0.00  0.00    +0.000 A 
ATOM     19  N   UNL     1      46.179   3.955   7.533  0.00  0.00    +0.000 NA
ATOM     20  C   UNL     1      46.615   2.666   7.407  0.00  0.00    +0.000 A 
ATOM     21  C   UNL     1      46.058   1.616   8.120  0.00  0.00    +0.000 A 
ATOM     22  N   UNL     1      45.041   1.792   8.999  0.00  0.00    +0.000 NA
BRANCH  20  23
ATOM     23  C   UNL     1      47.738   2.385   6.472  0.00  0.00    +0.000 C 
ATOM     24  N   UNL     1      47.742   3.087   5.302  0.00  0.00    +0.000 N 
ATOM     25  O   UNL     1      48.618   1.570   6.735  0.00  0.00    +0.000 OA
ATOM     26  H   UNL     1      47.011   3.761   5.103  0.00  0.00    +0.000 HD
ATOM     27  H   UNL     1      48.490   2.937   4.640  0.00  0.00    +0.000 HD
ENDBRANCH  20  23
ENDBRANCH  16  17
ENDBRANCH  15  16
ENDBRANCH   2  15
TORSDOF 7
ENDMDL
MODEL 2
REMARK VINA RESULT:    -7.600      2.666      4.669
REMARK INTER + INTRA:         -11.775
REMARK INTER:                 -11.009
REMARK INTRA:                  -0.766
REMARK UNBOUND:                -1.065
REMARK  Name = 
REMARK  9 active torsions:
REMARK  status: ('A' for Active; 'I' for Inactive)
REMARK    1  A    between atoms: C_1  and  C_2
REMARK    2  A    between atoms: C_2  and  C_3
REMARK    3  A    between atoms: C_2  and  C_4
REMARK    4  A    between atoms: C_2  and  C_15
REMARK    5  A    between atoms: C_4  and  O_5
REMARK    6  A    between atoms: O_5  and  C_6
REMARK    7  A    between atoms: C_9  and  C_10
REMARK    8  A    between atoms: C_19  and  O_20
REMARK    9  A    between atoms: O_20  and  C_21
REMARK                            x       y       z     vdW  Elec       q    Type
REMARK                         _______ _______ _______ _____ _____    ______ ____
ROOT
ATOM      1  C   UNL     1      43.159   4.791  13.094  0.00  0.00    +0.000 C 
ATOM      2  C   UNL     1      44.321   4.792  12.069  0.00  0.00    +0.000 C 
ATOM      3  C   UNL     1      45.156   3.524  12.370  0.00  0.00    +0.000 C 
ENDROOT
BRANCH   2   4
ATOM      4  C   UNL     1      45.162   6.086  12.133  0.00  0.00    +0.000 A 
ATOM      5  C   UNL     1      46.554   6.053  12.328  0.00  0.00    +0.000 A 
ATOM      6  C   UNL     1      47.324   7.221  12.282  0.00  0.00    +0.000 A 
ATOM      7  C   UNL     1      46.726   8.458  12.038  0.00  0.00    +0.000 A 
ATOM      8  C   UNL     1      45.351   8.522  11.849  0.00  0.00    +0.000 A 
ATOM      9  C   UNL     1      44.585   7.348  11.887  0.00  0.00    +0.000 A 
BRANCH   8  10
ATOM     10  O   UNL     1      44.647   9.665  11.561  0.00  0.00    +0.000 OA
BRANCH  10  11
ATOM     11  C   UNL     1      43.577   9.621  10.594  0.00  0.00    +0.000 C 
ATOM     12  C   UNL     1      43.686  10.572   9.375  0.00  0.00    +0.000 C 
ATOM     13  C   UNL     1      42.207  10.938   9.571  0.00  0.00    +0.000 C 
ATOM     14  C   UNL     1      42.318  10.426  11.014  0.00  0.00    +0.000 C 
ENDBRANCH  10  11
ENDBRANCH   8  10
ENDBRANCH   2   4
BRANCH   2  15
ATOM     15  C   UNL     1      43.739   4.702  10.632  0.00  0.00    +0.000 C 
BRANCH  15  16
ATOM     16  O   UNL     1      43.668   3.342  10.169  0.00  0.00    +0.000 OA
BRANCH  16  17
ATOM     17  C   UNL     1      44.627   3.070   9.214  0.00  0.00    +0.000 A 
ATOM     18  C   UNL     1      45.060   4.106   8.390  0.00  0.00    +0.000 A 
ATOM     19  N   UNL     1      46.016   3.943   7.433  0.00  0.00    +0.000 NA
ATOM     20  C   UNL     1      46.518   2.675   7.350  0.00  0.00    +0.000 A 
ATOM     21  C   UNL     1      46.084   1.644   8.168  0.00  0.00    +0.000 A 
ATOM     22  N   UNL     1      45.130   1.819   9.114  0.00  0.00    +0.000 NA
BRANCH  20  23
ATOM     23  C   UNL     1      47.580   2.398   6.345  0.00  0.00    +0.000 C 
ATOM     24  N   UNL     1      47.433   2.998   5.127  0.00  0.00    +0.000 N 
ATOM     25  O   UNL     1      48.540   1.674   6.591  0.00  0.00    +0.000 OA
ATOM     26  H   UNL     1      46.638   3.599   4.941  0.00  0.00    +0.000 HD
ATOM     27  H   UNL     1      48.135   2.846   4.417  0.00  0.00    +0.000 HD
ENDBRANCH  20  23
ENDBRANCH  16  17
ENDBRANCH  15  16
ENDBRANCH   2  15
TORSDOF 7
ENDMDL
MODEL 3
REMARK VINA RESULT:    -7.414      3.540      8.121
REMARK INTER + INTRA:         -11.513
REMARK INTER:                 -10.716
REMARK INTRA:                  -0.797
REMARK UNBOUND:                -1.065
REMARK  Name = 
REMARK  9 active torsions:
REMARK  status: ('A' for Active; 'I' for Inactive)
REMARK    1  A    between atoms: C_1  and  C_2
REMARK    2  A    between atoms: C_2  and  C_3
REMARK    3  A    between atoms: C_2  and  C_4
REMARK    4  A    between atoms: C_2  and  C_15
REMARK    5  A    between atoms: C_4  and  O_5
REMARK    6  A    between atoms: O_5  and  C_6
REMARK    7  A    between atoms: C_9  and  C_10
REMARK    8  A    between atoms: C_19  and  O_20
REMARK    9  A    between atoms: O_20  and  C_21
REMARK                            x       y       z     vdW  Elec       q    Type
REMARK                         _______ _______ _______ _____ _____    ______ ____
ROOT
ATOM      1  C   UNL     1      44.501   7.089  11.886  0.00  0.00    +0.000 C 
ATOM      2  C   UNL     1      45.605   6.005  11.836  0.00  0.00    +0.000 C 
ATOM      3  C   UNL     1      46.887   6.724  11.350  0.00  0.00    +0.000 C 
ENDROOT
BRANCH   2   4
ATOM      4  C   UNL     1      45.217   4.810  10.938  0.00  0.00    +0.000 A 
ATOM      5  C   UNL     1      44.446   3.740  11.424  0.00  0.00    +0.000 A 
ATOM      6  C   UNL     1      44.011   2.711  10.579  0.00  0.00    +0.000 A 
ATOM      7  C   UNL     1      44.333   2.723   9.221  0.00  0.00    +0.000 A 
ATOM      8  C   UNL     1      45.099   3.765   8.714  0.00  0.00    +0.000 A 
ATOM      9  C   UNL     1      45.525   4.797   9.563  0.00  0.00    +0.000 A 
BRANCH   8  10
ATOM     10  O   UNL     1      45.450   3.917   7.395  0.00  0.00    +0.000 OA
BRANCH  10  11
ATOM     11  C   UNL     1      46.771   3.533   6.958  0.00  0.00    +0.000 C 
ATOM     12  C   UNL     1      46.929   3.105   5.477  0.00  0.00    +0.000 C 
ATOM     13  C   UNL     1      47.781   1.916   5.947  0.00  0.00    +0.000 C 
ATOM     14  C   UNL     1      47.160   2.080   7.340  0.00  0.00    +0.000 C 
ENDBRANCH  10  11
ENDBRANCH   8  10
ENDBRANCH   2   4
BRANCH   2  15
ATOM     15  C   UNL     1      45.835   5.440  13.264  0.00  0.00    +0.000 C 
BRANCH  15  16
ATOM     16  O   UNL     1      47.127   4.818  13.390  0.00  0.00    +0.000 OA
BRANCH  16  17
ATOM     17  C   UNL     1      47.494   4.652  14.710  0.00  0.00    +0.000 A 
ATOM     18  C   UNL     1      48.063   5.729  15.385  0.00  0.00    +0.000 A 
ATOM     19  N   UNL     1      48.440   5.671  16.693  0.00  0.00    +0.000 NA
ATOM     20  C   UNL     1      48.210   4.465  17.291  0.00  0.00    +0.000 A 
ATOM     21  C   UNL     1      47.646   3.392  16.619  0.00  0.00    +0.000 A 
ATOM     22  N   UNL     1      47.279   3.462  15.316  0.00  0.00    +0.000 NA
BRANCH  20  23
ATOM     23  C   UNL     1      48.572   4.305  18.726  0.00  0.00    +0.000 C 
ATOM     24  N   UNL     1      48.317   3.085  19.282  0.00  0.00    +0.000 N 
ATOM     25  O   UNL     1      49.074   5.215  19.378  0.00  0.00    +0.000 OA
ATOM     26  H   UNL     1      47.908   2.341  18.728  0.00  0.00    +0.000 HD
ATOM     27  H   UNL     1      48.555   2.927  20.251  0.00  0.00    +0.000 HD
ENDBRANCH  20  23
ENDBRANCH  16  17
ENDBRANCH  15  16
ENDBRANCH   2  15
TORSDOF 7
ENDMDL
MODEL 4
REMARK VINA RESULT:    -6.968      3.699      8.054
REMARK INTER + INTRA:         -10.884
REMARK INTER:                 -10.081
REMARK INTRA:                  -0.803
REMARK UNBOUND:                -1.065
REMARK  Name = 
REMARK  9 active torsions:
REMARK  status: ('A' for Active; 'I' for Inactive)
REMARK    1  A    between atoms: C_1  and  C_2
REMARK    2  A    between atoms: C_2  and  C_3
REMARK    3  A    between atoms: C_2  and  C_4
REMARK    4  A    between atoms: C_2  and  C_15
REMARK    5  A    between atoms: C_4  and  O_5
REMARK    6  A    between atoms: O_5  and  C_6
REMARK    7  A    between atoms: C_9  and  C_10
REMARK    8  A    between atoms: C_19  and  O_20
REMARK    9  A    between atoms: O_20  and  C_21
REMARK                            x       y       z     vdW  Elec       q    Type
REMARK                         _______ _______ _______ _____ _____    ______ ____
ROOT
ATOM      1  C   UNL     1      46.301   7.863  13.268  0.00  0.00    +0.000 C 
ATOM      2  C   UNL     1      46.623   6.549  12.515  0.00  0.00    +0.000 C 
ATOM      3  C   UNL     1      47.398   6.966  11.241  0.00  0.00    +0.000 C 
ENDROOT
BRANCH   2   4
ATOM      4  C   UNL     1      45.354   5.727  12.196  0.00  0.00    +0.000 A 
ATOM      5  C   UNL     1      44.155   5.912  12.907  0.00  0.00    +0.000 A 
ATOM      6  C   UNL     1      42.982   5.239  12.546  0.00  0.00    +0.000 A 
ATOM      7  C   UNL     1      42.971   4.362  11.461  0.00  0.00    +0.000 A 
ATOM      8  C   UNL     1      44.143   4.154  10.744  0.00  0.00    +0.000 A 
ATOM      9  C   UNL     1      45.313   4.836  11.104  0.00  0.00    +0.000 A 
BRANCH   8  10
ATOM     10  O   UNL     1      44.257   3.351   9.635  0.00  0.00    +0.000 OA
BRANCH  10  11
ATOM     11  C   UNL     1      45.554   3.141   9.036  0.00  0.00    +0.000 C 
ATOM     12  C   UNL     1      45.738   3.606   7.569  0.00  0.00    +0.000 C 
ATOM     13  C   UNL     1      46.447   2.276   7.273  0.00  0.00    +0.000 C 
ATOM     14  C   UNL     1      45.781   1.693   8.526  0.00  0.00    +0.000 C 
ENDBRANCH  10  11
ENDBRANCH   8  10
ENDBRANCH   2   4
BRANCH   2  15
ATOM     15  C   UNL     1      47.528   5.654  13.405  0.00  0.00    +0.000 C 
BRANCH  15  16
ATOM     16  O   UNL     1      46.757   4.718  14.180  0.00  0.00    +0.000 OA
BRANCH  16  17
ATOM     17  C   UNL     1      47.248   4.582  15.463  0.00  0.00    +0.000 A 
ATOM     18  C   UNL     1      48.167   5.519  15.929  0.00  0.00    +0.000 A 
ATOM     19  N   UNL     1      48.693   5.482  17.186  0.00  0.00    +0.000 NA
ATOM     20  C   UNL     1      48.240   4.448  17.955  0.00  0.00    +0.000 A 
ATOM     21  C   UNL     1      47.328   3.514  17.489  0.00  0.00    +0.000 A 
ATOM     22  N   UNL     1      46.815   3.560  16.236  0.00  0.00    +0.000 NA
BRANCH  20  23
ATOM     23  C   UNL     1      48.743   4.330  19.350  0.00  0.00    +0.000 C 
ATOM     24  N   UNL     1      48.406   3.190  20.021  0.00  0.00    +0.000 N 
ATOM     25  O   UNL     1      49.426   5.204  19.875  0.00  0.00    +0.000 OA
ATOM     26  H   UNL     1      47.846   2.474  19.571  0.00  0.00    +0.000 HD
ATOM     27  H   UNL     1      48.733   3.061  20.968  0.00  0.00    +0.000 HD
ENDBRANCH  20  23
ENDBRANCH  16  17
ENDBRANCH  15  16
ENDBRANCH   2  15
TORSDOF 7
ENDMDL
MODEL 5
REMARK VINA RESULT:    -6.450      4.462      7.780
REMARK INTER + INTRA:         -10.154
REMARK INTER:                  -9.041
REMARK INTRA:                  -1.113
REMARK UNBOUND:                -1.065
REMARK  Name = 
REMARK  9 active torsions:
REMARK  status: ('A' for Active; 'I' for Inactive)
REMARK    1  A    between atoms: C_1  and  C_2
REMARK    2  A    between atoms: C_2  and  C_3
REMARK    3  A    between atoms: C_2  and  C_4
REMARK    4  A    between atoms: C_2  and  C_15
REMARK    5  A    between atoms: C_4  and  O_5
REMARK    6  A    between atoms: O_5  and  C_6
REMARK    7  A    between atoms: C_9  and  C_10
REMARK    8  A    between atoms: C_19  and  O_20
REMARK    9  A    between atoms: O_20  and  C_21
REMARK                            x       y       z     vdW  Elec       q    Type
REMARK                         _______ _______ _______ _____ _____    ______ ____
ROOT
ATOM      1  C   UNL     1      47.579   7.138  11.454  0.00  0.00    +0.000 C 
ATOM      2  C   UNL     1      46.534   6.895  12.571  0.00  0.00    +0.000 C 
ATOM      3  C   UNL     1      47.317   6.296  13.765  0.00  0.00    +0.000 C 
ENDROOT
BRANCH   2   4
ATOM      4  C   UNL     1      45.375   5.985  12.105  0.00  0.00    +0.000 A 
ATOM      5  C   UNL     1      44.221   5.800  12.888  0.00  0.00    +0.000 A 
ATOM      6  C   UNL     1      43.132   5.058  12.416  0.00  0.00    +0.000 A 
ATOM      7  C   UNL     1      43.161   4.482  11.145  0.00  0.00    +0.000 A 
ATOM      8  C   UNL     1      44.290   4.643  10.352  0.00  0.00    +0.000 A 
ATOM      9  C   UNL     1      45.376   5.394  10.826  0.00  0.00    +0.000 A 
BRANCH   8  10
ATOM     10  O   UNL     1      44.430   4.164   9.073  0.00  0.00    +0.000 OA
BRANCH  10  11
ATOM     11  C   UNL     1      45.671   3.543   8.674  0.00  0.00    +0.000 C 
ATOM     12  C   UNL     1      45.945   3.423   7.154  0.00  0.00    +0.000 C 
ATOM     13  C   UNL     1      46.404   1.976   7.385  0.00  0.00    +0.000 C 
ATOM     14  C   UNL     1      45.636   1.992   8.714  0.00  0.00    +0.000 C 
ENDBRANCH  10  11
ENDBRANCH   8  10
ENDBRANCH   2   4
BRANCH   2  15
ATOM     15  C   UNL     1      45.904   8.251  12.990  0.00  0.00    +0.000 C 
BRANCH  15  16
ATOM     16  O   UNL     1      46.044   9.245  11.960  0.00  0.00    +0.000 OA
BRANCH  16  17
ATOM     17  C   UNL     1      44.830   9.802  11.610  0.00  0.00    +0.000 A 
ATOM     18  C   UNL     1      43.903   9.010  10.938  0.00  0.00    +0.000 A 
ATOM     19  N   UNL     1      42.670   9.461  10.568  0.00  0.00    +0.000 NA
ATOM     20  C   UNL     1      42.418  10.757  10.916  0.00  0.00    +0.000 A 
ATOM     21  C   UNL     1      43.343  11.545  11.583  0.00  0.00    +0.000 A 
ATOM     22  N   UNL     1      44.566  11.086  11.942  0.00  0.00    +0.000 NA
BRANCH  20  23
ATOM     23  C   UNL     1      41.092  11.339  10.571  0.00  0.00    +0.000 C 
ATOM     24  N   UNL     1      40.170  11.381  11.577  0.00  0.00    +0.000 N 
ATOM     25  O   UNL     1      40.837  11.761   9.448  0.00  0.00    +0.000 OA
ATOM     26  H   UNL     1      40.399  11.034  12.501  0.00  0.00    +0.000 HD
ATOM     27  H   UNL     1      39.259  11.776  11.392  0.00  0.00    +0.000 HD
ENDBRANCH  20  23
ENDBRANCH  16  17
ENDBRANCH  15  16
ENDBRANCH   2  15
TORSDOF 7
ENDMDL
MODEL 6
REMARK VINA RESULT:    -6.441      3.812      7.881
REMARK INTER + INTRA:         -10.141
REMARK INTER:                  -9.058
REMARK INTRA:                  -1.083
REMARK UNBOUND:                -1.065
REMARK  Name = 
REMARK  9 active torsions:
REMARK  status: ('A' for Active; 'I' for Inactive)
REMARK    1  A    between atoms: C_1  and  C_2
REMARK    2  A    between atoms: C_2  and  C_3
REMARK    3  A    between atoms: C_2  and  C_4
REMARK    4  A    between atoms: C_2  and  C_15
REMARK    5  A    between atoms: C_4  and  O_5
REMARK    6  A    between atoms: O_5  and  C_6
REMARK    7  A    between atoms: C_9  and  C_10
REMARK    8  A    between atoms: C_19  and  O_20
REMARK    9  A    between atoms: O_20  and  C_21
REMARK                            x       y       z     vdW  Elec       q    Type
REMARK                         _______ _______ _______ _____ _____    ______ ____
ROOT
ATOM      1  C   UNL     1      49.145   9.658  12.678  0.00  0.00    +0.000 C 
ATOM      2  C   UNL     1      48.925   8.168  12.317  0.00  0.00    +0.000 C 
ATOM      3  C   UNL     1      49.752   7.914  11.033  0.00  0.00    +0.000 C 
ENDROOT
BRANCH   2   4
ATOM      4  C   UNL     1      47.430   7.820  12.139  0.00  0.00    +0.000 A 
ATOM      5  C   UNL     1      46.431   8.808  12.189  0.00  0.00    +0.000 A 
ATOM      6  C   UNL     1      45.090   8.503  11.925  0.00  0.00    +0.000 A 
ATOM      7  C   UNL     1      44.709   7.200  11.600  0.00  0.00    +0.000 A 
ATOM      8  C   UNL     1      45.673   6.203  11.549  0.00  0.00    +0.000 A 
ATOM      9  C   UNL     1      47.016   6.515  11.806  0.00  0.00    +0.000 A 
BRANCH   8  10
ATOM     10  O   UNL     1      45.438   4.895  11.203  0.00  0.00    +0.000 OA
BRANCH  10  11
ATOM     11  C   UNL     1      44.712   4.596   9.992  0.00  0.00    +0.000 C 
ATOM     12  C   UNL     1      44.497   3.100   9.648  0.00  0.00    +0.000 C 
ATOM     13  C   UNL     1      44.894   3.411   8.197  0.00  0.00    +0.000 C 
ATOM     14  C   UNL     1      45.576   4.689   8.705  0.00  0.00    +0.000 C 
ENDBRANCH  10  11
ENDBRANCH   8  10
ENDBRANCH   2   4
BRANCH   2  15
ATOM     15  C   UNL     1      49.463   7.274  13.467  0.00  0.00    +0.000 C 
BRANCH  15  16
ATOM     16  O   UNL     1      48.881   7.629  14.734  0.00  0.00    +0.000 OA
BRANCH  16  17
ATOM     17  C   UNL     1      48.570   6.516  15.489  0.00  0.00    +0.000 A 
ATOM     18  C   UNL     1      49.042   6.444  16.797  0.00  0.00    +0.000 A 
ATOM     19  N   UNL     1      48.772   5.398  17.628  0.00  0.00    +0.000 NA
ATOM     20  C   UNL     1      47.994   4.424  17.071  0.00  0.00    +0.000 A 
ATOM     21  C   UNL     1      47.527   4.494  15.768  0.00  0.00    +0.000 A 
ATOM     22  N   UNL     1      47.806   5.539  14.951  0.00  0.00    +0.000 NA
BRANCH  20  23
ATOM     23  C   UNL     1      47.629   3.245  17.903  0.00  0.00    +0.000 C 
ATOM     24  N   UNL     1      48.383   3.037  19.022  0.00  0.00    +0.000 N 
ATOM     25  O   UNL     1      46.700   2.500  17.608  0.00  0.00    +0.000 OA
ATOM     26  H   UNL     1      49.143   3.666  19.255  0.00  0.00    +0.000 HD
ATOM     27  H   UNL     1      48.166   2.254  19.623  0.00  0.00    +0.000 HD
ENDBRANCH  20  23
ENDBRANCH  16  17
ENDBRANCH  15  16
ENDBRANCH   2  15
TORSDOF 7
ENDMDL
MODEL 7
REMARK VINA RESULT:    -6.386      3.446      7.539
REMARK INTER + INTRA:         -10.064
REMARK INTER:                  -9.168
REMARK INTRA:                  -0.896
REMARK UNBOUND:                -1.065
REMARK  Name = 
REMARK  9 active torsions:
REMARK  status: ('A' for Active; 'I' for Inactive)
REMARK    1  A    between atoms: C_1  and  C_2
REMARK    2  A    between atoms: C_2  and  C_3
REMARK    3  A    between atoms: C_2  and  C_4
REMARK    4  A    between atoms: C_2  and  C_15
REMARK    5  A    between atoms: C_4  and  O_5
REMARK    6  A    between atoms: O_5  and  C_6
REMARK    7  A    between atoms: C_9  and  C_10
REMARK    8  A    between atoms: C_19  and  O_20
REMARK    9  A    between atoms: O_20  and  C_21
REMARK                            x       y       z     vdW  Elec       q    Type
REMARK                         _______ _______ _______ _____ _____    ______ ____
ROOT
ATOM      1  C   UNL     1      43.524   2.868  12.187  0.00  0.00    +0.000 C 
ATOM      2  C   UNL     1      43.831   4.385  12.177  0.00  0.00    +0.000 C 
ATOM      3  C   UNL     1      42.457   5.099  12.207  0.00  0.00    +0.000 C 
ENDROOT
BRANCH   2   4
ATOM      4  C   UNL     1      44.692   4.804  10.964  0.00  0.00    +0.000 A 
ATOM      5  C   UNL     1      45.472   5.973  10.981  0.00  0.00    +0.000 A 
ATOM      6  C   UNL     1      46.328   6.293   9.920  0.00  0.00    +0.000 A 
ATOM      7  C   UNL     1      46.432   5.452   8.812  0.00  0.00    +0.000 A 
ATOM      8  C   UNL     1      45.667   4.293   8.765  0.00  0.00    +0.000 A 
ATOM      9  C   UNL     1      44.817   3.973   9.833  0.00  0.00    +0.000 A 
BRANCH   8  10
ATOM     10  O   UNL     1      45.706   3.363   7.755  0.00  0.00    +0.000 OA
BRANCH  10  11
ATOM     11  C   UNL     1      46.847   3.313   6.873  0.00  0.00    +0.000 C 
ATOM     12  C   UNL     1      46.600   2.823   5.424  0.00  0.00    +0.000 C 
ATOM     13  C   UNL     1      47.857   1.949   5.540  0.00  0.00    +0.000 C 
ATOM     14  C   UNL     1      47.734   2.054   7.066  0.00  0.00    +0.000 C 
ENDBRANCH  10  11
ENDBRANCH   8  10
ENDBRANCH   2   4
BRANCH   2  15
ATOM     15  C   UNL     1      44.637   4.756  13.452  0.00  0.00    +0.000 C 
BRANCH  15  16
ATOM     16  O   UNL     1      45.782   3.902  13.626  0.00  0.00    +0.000 OA
BRANCH  16  17
ATOM     17  C   UNL     1      46.708   4.450  14.491  0.00  0.00    +0.000 A 
ATOM     18  C   UNL     1      47.476   5.525  14.053  0.00  0.00    +0.000 A 
ATOM     19  N   UNL     1      48.401   6.146  14.838  0.00  0.00    +0.000 NA
ATOM     20  C   UNL     1      48.510   5.627  16.097  0.00  0.00    +0.000 A 
ATOM     21  C   UNL     1      47.746   4.555  16.532  0.00  0.00    +0.000 A 
ATOM     22  N   UNL     1      46.833   3.944  15.740  0.00  0.00    +0.000 NA
BRANCH  20  23
ATOM     23  C   UNL     1      49.481   6.248  17.038  0.00  0.00    +0.000 C 
ATOM     24  N   UNL     1      49.384   7.599  17.205  0.00  0.00    +0.000 N 
ATOM     25  O   UNL     1      50.325   5.587  17.636  0.00  0.00    +0.000 OA
ATOM     26  H   UNL     1      48.677   8.130  16.709  0.00  0.00    +0.000 HD
ATOM     27  H   UNL     1      50.016   8.063  17.841  0.00  0.00    +0.000 HD
ENDBRANCH  20  23
ENDBRANCH  16  17
ENDBRANCH  15  16
ENDBRANCH   2  15
TORSDOF 7
ENDMDL
MODEL 8
REMARK VINA RESULT:    -6.105      3.327      5.241
REMARK INTER + INTRA:          -9.668
REMARK INTER:                  -8.432
REMARK INTRA:                  -1.237
REMARK UNBOUND:                -1.065
REMARK  Name = 
REMARK  9 active torsions:
REMARK  status: ('A' for Active; 'I' for Inactive)
REMARK    1  A    between atoms: C_1  and  C_2
REMARK    2  A    between atoms: C_2  and  C_3
REMARK    3  A    between atoms: C_2  and  C_4
REMARK    4  A    between atoms: C_2  and  C_15
REMARK    5  A    between atoms: C_4  and  O_5
REMARK    6  A    between atoms: O_5  and  C_6
REMARK    7  A    between atoms: C_9  and  C_10
REMARK    8  A    between atoms: C_19  and  O_20
REMARK    9  A    between atoms: O_20  and  C_21
REMARK                            x       y       z     vdW  Elec       q    Type
REMARK                         _______ _______ _______ _____ _____    ______ ____
ROOT
ATOM      1  C   UNL     1      50.592   8.408  11.852  0.00  0.00    +0.000 C 
ATOM      2  C   UNL     1      49.159   8.610  12.404  0.00  0.00    +0.000 C 
ATOM      3  C   UNL     1      48.742  10.043  11.991  0.00  0.00    +0.000 C 
ENDROOT
BRANCH   2   4
ATOM      4  C   UNL     1      49.079   8.385  13.930  0.00  0.00    +0.000 A 
ATOM      5  C   UNL     1      48.611   9.384  14.801  0.00  0.00    +0.000 A 
ATOM      6  C   UNL     1      48.443   9.140  16.169  0.00  0.00    +0.000 A 
ATOM      7  C   UNL     1      48.736   7.886  16.707  0.00  0.00    +0.000 A 
ATOM      8  C   UNL     1      49.206   6.880  15.872  0.00  0.00    +0.000 A 
ATOM      9  C   UNL     1      49.364   7.128  14.501  0.00  0.00    +0.000 A 
BRANCH   8  10
ATOM     10  O   UNL     1      49.491   5.596  16.266  0.00  0.00    +0.000 OA
BRANCH  10  11
ATOM     11  C   UNL     1      48.578   4.898  17.139  0.00  0.00    +0.000 C 
ATOM     12  C   UNL     1      48.974   3.465  17.576  0.00  0.00    +0.000 C 
ATOM     13  C   UNL     1      47.534   3.015  17.287  0.00  0.00    +0.000 C 
ATOM     14  C   UNL     1      47.371   4.257  16.402  0.00  0.00    +0.000 C 
ENDBRANCH  10  11
ENDBRANCH   8  10
ENDBRANCH   2   4
BRANCH   2  15
ATOM     15  C   UNL     1      48.203   7.580  11.743  0.00  0.00    +0.000 C 
BRANCH  15  16
ATOM     16  O   UNL     1      46.849   7.739  12.202  0.00  0.00    +0.000 OA
BRANCH  16  17
ATOM     17  C   UNL     1      46.146   6.552  12.160  0.00  0.00    +0.000 A 
ATOM     18  C   UNL     1      45.124   6.415  11.225  0.00  0.00    +0.000 A 
ATOM     19  N   UNL     1      44.387   5.276  11.091  0.00  0.00    +0.000 NA
ATOM     20  C   UNL     1      44.738   4.275  11.951  0.00  0.00    +0.000 A 
ATOM     21  C   UNL     1      45.753   4.413  12.884  0.00  0.00    +0.000 A 
ATOM     22  N   UNL     1      46.476   5.552  13.009  0.00  0.00    +0.000 NA
BRANCH  20  23
ATOM     23  C   UNL     1      44.002   2.983  11.873  0.00  0.00    +0.000 C 
ATOM     24  N   UNL     1      44.036   2.339  10.670  0.00  0.00    +0.000 N 
ATOM     25  O   UNL     1      43.399   2.516  12.835  0.00  0.00    +0.000 OA
ATOM     26  H   UNL     1      44.545   2.735   9.888  0.00  0.00    +0.000 HD
ATOM     27  H   UNL     1      43.559   1.454  10.573  0.00  0.00    +0.000 HD
ENDBRANCH  20  23
ENDBRANCH  16  17
ENDBRANCH  15  16
ENDBRANCH   2  15
TORSDOF 7
ENDMDL
MODEL 9
REMARK VINA RESULT:    -6.059      3.499      6.354
REMARK INTER + INTRA:          -9.603
REMARK INTER:                  -8.673
REMARK INTRA:                  -0.930
REMARK UNBOUND:                -1.065
REMARK  Name = 
REMARK  9 active torsions:
REMARK  status: ('A' for Active; 'I' for Inactive)
REMARK    1  A    between atoms: C_1  and  C_2
REMARK    2  A    between atoms: C_2  and  C_3
REMARK    3  A    between atoms: C_2  and  C_4
REMARK    4  A    between atoms: C_2  and  C_15
REMARK    5  A    between atoms: C_4  and  O_5
REMARK    6  A    between atoms: O_5  and  C_6
REMARK    7  A    between atoms: C_9  and  C_10
REMARK    8  A    between atoms: C_19  and  O_20
REMARK    9  A    between atoms: O_20  and  C_21
REMARK                            x       y       z     vdW  Elec       q    Type
REMARK                         _______ _______ _______ _____ _____    ______ ____
ROOT
ATOM      1  C   UNL     1      46.971   2.778  17.782  0.00  0.00    +0.000 C 
ATOM      2  C   UNL     1      48.052   3.436  16.891  0.00  0.00    +0.000 C 
ATOM      3  C   UNL     1      48.848   2.271  16.254  0.00  0.00    +0.000 C 
ENDROOT
BRANCH   2   4
ATOM      4  C   UNL     1      48.955   4.410  17.681  0.00  0.00    +0.000 A 
ATOM      5  C   UNL     1      50.357   4.301  17.658  0.00  0.00    +0.000 A 
ATOM      6  C   UNL     1      51.172   5.246  18.292  0.00  0.00    +0.000 A 
ATOM      7  C   UNL     1      50.610   6.331  18.966  0.00  0.00    +0.000 A 
ATOM      8  C   UNL     1      49.228   6.461  19.010  0.00  0.00    +0.000 A 
ATOM      9  C   UNL     1      48.416   5.516  18.367  0.00  0.00    +0.000 A 
BRANCH   8  10
ATOM     10  O   UNL     1      48.552   7.500  19.602  0.00  0.00    +0.000 OA
BRANCH  10  11
ATOM     11  C   UNL     1      47.756   8.390  18.790  0.00  0.00    +0.000 C 
ATOM     12  C   UNL     1      48.494   9.188  17.686  0.00  0.00    +0.000 C 
ATOM     13  C   UNL     1      47.721  10.441  18.122  0.00  0.00    +0.000 C 
ATOM     14  C   UNL     1      47.454   9.753  19.467  0.00  0.00    +0.000 C 
ENDBRANCH  10  11
ENDBRANCH   8  10
ENDBRANCH   2   4
BRANCH   2  15
ATOM     15  C   UNL     1      47.362   4.266  15.774  0.00  0.00    +0.000 C 
BRANCH  15  16
ATOM     16  O   UNL     1      47.400   3.589  14.505  0.00  0.00    +0.000 OA
BRANCH  16  17
ATOM     17  C   UNL     1      46.352   3.962  13.688  0.00  0.00    +0.000 A 
ATOM     18  C   UNL     1      45.961   5.298  13.674  0.00  0.00    +0.000 A 
ATOM     19  N   UNL     1      44.952   5.769  12.887  0.00  0.00    +0.000 NA
ATOM     20  C   UNL     1      44.356   4.818  12.109  0.00  0.00    +0.000 A 
ATOM     21  C   UNL     1      44.744   3.487  12.126  0.00  0.00    +0.000 A 
ATOM     22  N   UNL     1      45.746   3.032  12.916  0.00  0.00    +0.000 NA
BRANCH  20  23
ATOM     23  C   UNL     1      43.253   5.235  11.201  0.00  0.00    +0.000 C 
ATOM     24  N   UNL     1      42.205   5.887  11.781  0.00  0.00    +0.000 N 
ATOM     25  O   UNL     1      43.280   5.009   9.994  0.00  0.00    +0.000 OA
ATOM     26  H   UNL     1      42.201   6.072  12.778  0.00  0.00    +0.000 HD
ATOM     27  H   UNL     1      41.437   6.198  11.203  0.00  0.00    +0.000 HD
ENDBRANCH  20  23
ENDBRANCH  16  17
ENDBRANCH  15  16
ENDBRANCH   2  15
TORSDOF 7
ENDMDL
