MODEL 1
REMARK VINA RESULT:    -8.321      0.000      0.000
REMARK INTER + INTRA:         -14.064
REMARK INTER:                 -12.699
REMARK INTRA:                  -1.365
REMARK UNBOUND:                -1.365
REMARK  Name = 
REMARK  10 active torsions:
REMARK  status: ('A' for Active; 'I' for Inactive)
REMARK    1  A    between atoms: C_1  and  C_2
REMARK    2  A    between atoms: C_2  and  C_3
REMARK    3  A    between atoms: C_3  and  C_4
REMARK    4  A    between atoms: C_4  and  N_5
REMARK    5  A    between atoms: C_4  and  C_13
REMARK    6  A    between atoms: N_5  and  C_6
REMARK    7  A    between atoms: C_6  and  C_7
REMARK    8  A    between atoms: C_16  and  C_17
REMARK    9  A    between atoms: C_17  and  N_18
REMARK   10  A    between atoms: C_19  and  C_21
REMARK                            x       y       z     vdW  Elec       q    Type
REMARK                         _______ _______ _______ _____ _____    ______ ____
ROOT
ATOM      1  C   UNL     1      45.654   4.549  12.149  0.00  0.00    +0.000 A 
ATOM      2  C   UNL     1      46.253   4.341  13.404  0.00  0.00    +0.000 A 
ATOM      3  C   UNL     1      47.185   5.248  13.922  0.00  0.00    +0.000 A 
ATOM      4  C   UNL     1      47.481   6.427  13.230  0.00  0.00    +0.000 A 
ATOM      5  C   UNL     1      46.900   6.636  11.976  0.00  0.00    +0.000 A 
ATOM      6  C   UNL     1      46.016   5.703  11.437  0.00  0.00    +0.000 A 
ENDROOT
BRANCH   1   7
ATOM      7  C   UNL     1      44.694   3.499  11.562  0.00  0.00    +0.000 C 
BRANCH   7   8
ATOM      8  N   UNL     1      44.519   3.670  10.098  0.00  0.00    +0.000 NA
ATOM      9  H   UNL     1      45.251   4.287   9.750  0.00  0.00    +0.000 HD
BRANCH   8  10
ATOM     10  C   UNL     1      44.633   2.378   9.402  0.00  0.00    +0.000 C 
BRANCH  10  11
ATOM     11  C   UNL     1      45.626   2.301   8.265  0.00  0.00    +0.000 A 
ATOM     12  C   UNL     1      45.856   3.457   7.494  0.00  0.00    +0.000 A 
ATOM     13  C   UNL     1      46.887   3.506   6.556  0.00  0.00    +0.000 A 
ATOM     14  C   UNL     1      47.704   2.394   6.376  0.00  0.00    +0.000 A 
ATOM     15  C   UNL     1      47.474   1.233   7.116  0.00  0.00    +0.000 A 
ATOM     16  C   UNL     1      46.440   1.184   8.057  0.00  0.00    +0.000 A 
ENDBRANCH  10  11
ENDBRANCH   8  10
ENDBRANCH   7   8
BRANCH   7  17
ATOM     17  C   UNL     1      43.343   3.535  12.330  0.00  0.00    +0.000 C 
BRANCH  17  19
ATOM     18  C   UNL     1      42.278   5.729  11.780  0.00  0.00    +0.000 C 
ATOM     19  C   UNL     1      42.889   4.881  12.897  0.00  0.00    +0.000 C 
ENDBRANCH  17  19
ENDBRANCH   7  17
ENDBRANCH   1   7
BRANCH   4  20
ATOM     20  C   UNL     1      48.429   7.450  13.792  0.00  0.00    +0.000 C 
BRANCH  20  21
ATOM     21  N   UNL     1      48.476   7.377  15.228  0.00  0.00    +0.000 N 
ATOM     22  C   UNL     1      49.648   7.073  15.874  0.00  0.00    +0.000 C 
ATOM     23  O   UNL     1      50.701   6.901  15.266  0.00  0.00    +0.000 OA
ATOM     24  H   UNL     1      47.594   7.254  15.712  0.00  0.00    +0.000 HD
BRANCH  22  25
ATOM     25  C   UNL     1      49.592   7.031  17.339  0.00  0.00    +0.000 A 
ATOM     26  C   UNL     1      49.806   8.192  18.068  0.00  0.00    +0.000 A 
ATOM     27  S   UNL     1      49.620   7.983  19.751  0.00  0.00    +0.000 S 
ATOM     28  C   UNL     1      49.307   6.323  19.564  0.00  0.00    +0.000 A 
ATOM     29  N   UNL     1      49.068   5.529  20.644  0.00  0.00    +0.000 NA
ATOM     30  C   UNL     1      48.874   4.287  20.359  0.00  0.00    +0.000 A 
ATOM     31  N   UNL     1      48.896   3.759  19.094  0.00  0.00    +0.000 N 
ATOM     32  C   UNL     1      49.115   4.523  17.972  0.00  0.00    +0.000 A 
ATOM     33  O   UNL     1      49.107   4.026  16.851  0.00  0.00    +0.000 OA
ATOM     34  C   UNL     1      49.334   5.931  18.240  0.00  0.00    +0.000 A 
ATOM     35  H   UNL     1      48.737   2.775  18.940  0.00  0.00    +0.000 HD
ENDBRANCH  22  25
ENDBRANCH  20  21
ENDBRANCH   4  20
TORSDOF 9
ENDMDL
MODEL 2
REMARK VINA RESULT:    -8.181      1.633      2.280
REMARK INTER + INTRA:         -13.851
REMARK INTER:                 -12.248
REMARK INTRA:                  -1.602
REMARK UNBOUND:                -1.365
REMARK  Name = 
REMARK  10 active torsions:
REMARK  status: ('A' for Active; 'I' for Inactive)
REMARK    1  A    between atoms: C_1  and  C_2
REMARK    2  A    between atoms: C_2  and  C_3
REMARK    3  A    between atoms: C_3  and  C_4
REMARK    4  A    between atoms: C_4  and  N_5
REMARK    5  A    between atoms: C_4  and  C_13
REMARK    6  A    between atoms: N_5  and  C_6
REMARK    7  A    between atoms: C_6  and  C_7
REMARK    8  A    between atoms: C_16  and  C_17
REMARK    9  A    between atoms: C_17  and  N_18
REMARK   10  A    between atoms: C_19  and  C_21
REMARK                            x       y       z     vdW  Elec       q    Type
REMARK                         _______ _______ _______ _____ _____    ______ ____
ROOT
ATOM      1  C   UNL     1      46.069   5.565  11.732  0.00  0.00    +0.000 A 
ATOM      2  C   UNL     1      46.269   4.992  13.001  0.00  0.00    +0.000 A 
ATOM      3  C   UNL     1      47.218   5.510  13.889  0.00  0.00    +0.000 A 
ATOM      4  C   UNL     1      47.937   6.663  13.559  0.00  0.00    +0.000 A 
ATOM      5  C   UNL     1      47.755   7.232  12.295  0.00  0.00    +0.000 A 
ATOM      6  C   UNL     1      46.850   6.680  11.390  0.00  0.00    +0.000 A 
ENDROOT
BRANCH   1   7
ATOM      7  C   UNL     1      45.079   4.930  10.739  0.00  0.00    +0.000 C 
BRANCH   7   8
ATOM      8  N   UNL     1      45.449   5.219   9.330  0.00  0.00    +0.000 NA
ATOM      9  H   UNL     1      46.457   5.112   9.229  0.00  0.00    +0.000 HD
BRANCH   8  10
ATOM     10  C   UNL     1      44.789   4.278   8.411  0.00  0.00    +0.000 C 
BRANCH  10  11
ATOM     11  C   UNL     1      45.649   3.185   7.821  0.00  0.00    +0.000 A 
ATOM     12  C   UNL     1      46.549   3.520   6.791  0.00  0.00    +0.000 A 
ATOM     13  C   UNL     1      47.496   2.604   6.333  0.00  0.00    +0.000 A 
ATOM     14  C   UNL     1      47.554   1.335   6.902  0.00  0.00    +0.000 A 
ATOM     15  C   UNL     1      46.653   0.980   7.907  0.00  0.00    +0.000 A 
ATOM     16  C   UNL     1      45.703   1.899   8.366  0.00  0.00    +0.000 A 
ENDBRANCH  10  11
ENDBRANCH   8  10
ENDBRANCH   7   8
BRANCH   7  17
ATOM     17  C   UNL     1      43.631   5.386  11.077  0.00  0.00    +0.000 C 
BRANCH  17  19
ATOM     18  C   UNL     1      43.301   3.010  11.780  0.00  0.00    +0.000 C 
ATOM     19  C   UNL     1      42.770   4.438  11.913  0.00  0.00    +0.000 C 
ENDBRANCH  17  19
ENDBRANCH   7  17
ENDBRANCH   1   7
BRANCH   4  20
ATOM     20  C   UNL     1      48.917   7.279  14.519  0.00  0.00    +0.000 C 
BRANCH  20  21
ATOM     21  N   UNL     1      48.580   6.955  15.880  0.00  0.00    +0.000 N 
ATOM     22  C   UNL     1      49.488   6.325  16.693  0.00  0.00    +0.000 C 
ATOM     23  O   UNL     1      50.625   6.057  16.315  0.00  0.00    +0.000 OA
ATOM     24  H   UNL     1      47.594   6.925  16.116  0.00  0.00    +0.000 HD
BRANCH  22  25
ATOM     25  C   UNL     1      49.049   6.046  18.065  0.00  0.00    +0.000 A 
ATOM     26  C   UNL     1      49.198   4.769  18.587  0.00  0.00    +0.000 A 
ATOM     27  S   UNL     1      48.716   4.640  20.218  0.00  0.00    +0.000 S 
ATOM     28  C   UNL     1      48.238   6.271  20.261  0.00  0.00    +0.000 A 
ATOM     29  N   UNL     1      47.712   6.817  21.392  0.00  0.00    +0.000 NA
ATOM     30  C   UNL     1      47.366   8.053  21.274  0.00  0.00    +0.000 A 
ATOM     31  N   UNL     1      47.497   8.800  20.132  0.00  0.00    +0.000 N 
ATOM     32  C   UNL     1      48.039   8.298  18.972  0.00  0.00    +0.000 A 
ATOM     33  O   UNL     1      48.163   8.997  17.972  0.00  0.00    +0.000 OA
ATOM     34  C   UNL     1      48.448   6.909  19.055  0.00  0.00    +0.000 A 
ATOM     35  H   UNL     1      47.206   9.766  20.107  0.00  0.00    +0.000 HD
ENDBRANCH  22  25
ENDBRANCH  20  21
ENDBRANCH   4  20
TORSDOF 9
ENDMDL
MODEL 3
REMARK VINA RESULT:    -7.977      1.845      2.377
REMARK INTER + INTRA:         -13.539
REMARK INTER:                 -12.100
REMARK INTRA:                  -1.439
REMARK UNBOUND:                -1.365
REMARK  Name = 
REMARK  10 active torsions:
REMARK  status: ('A' for Active; 'I' for Inactive)
REMARK    1  A    between atoms: C_1  and  C_2
REMARK    2  A    between atoms: C_2  and  C_3
REMARK    3  A    between atoms: C_3  and  C_4
REMARK    4  A    between atoms: C_4  and  N_5
REMARK    5  A    between atoms: C_4  and  C_13
REMARK    6  A    between atoms: N_5  and  C_6
REMARK    7  A    between atoms: C_6  and  C_7
REMARK    8  A    between atoms: C_16  and  C_17
REMARK    9  A    between atoms: C_17  and  N_18
REMARK   10  A    between atoms: C_19  and  C_21
REMARK                            x       y       z     vdW  Elec       q    Type
REMARK                         _______ _______ _______ _____ _____    ______ ____
ROOT
ATOM      1  C   UNL     1      45.838   6.341  11.435  0.00  0.00    +0.000 A 
ATOM      2  C   UNL     1      45.097   7.165  12.301  0.00  0.00    +0.000 A 
ATOM      3  C   UNL     1      45.729   8.103  13.126  0.00  0.00    +0.000 A 
ATOM      4  C   UNL     1      47.112   8.293  13.047  0.00  0.00    +0.000 A 
ATOM      5  C   UNL     1      47.858   7.471  12.198  0.00  0.00    +0.000 A 
ATOM      6  C   UNL     1      47.233   6.498  11.420  0.00  0.00    +0.000 A 
ENDROOT
BRANCH   1   7
ATOM      7  C   UNL     1      45.133   5.260  10.597  0.00  0.00    +0.000 C 
BRANCH   7   8
ATOM      8  N   UNL     1      45.447   5.390   9.152  0.00  0.00    +0.000 NA
ATOM      9  H   UNL     1      46.459   5.380   9.035  0.00  0.00    +0.000 HD
BRANCH   8  10
ATOM     10  C   UNL     1      44.881   4.266   8.389  0.00  0.00    +0.000 C 
BRANCH  10  11
ATOM     11  C   UNL     1      45.858   3.245   7.853  0.00  0.00    +0.000 A 
ATOM     12  C   UNL     1      45.859   1.954   8.418  0.00  0.00    +0.000 A 
ATOM     13  C   UNL     1      46.602   0.919   7.850  0.00  0.00    +0.000 A 
ATOM     14  C   UNL     1      47.355   1.162   6.706  0.00  0.00    +0.000 A 
ATOM     15  C   UNL     1      47.382   2.441   6.148  0.00  0.00    +0.000 A 
ATOM     16  C   UNL     1      46.638   3.480   6.718  0.00  0.00    +0.000 A 
ENDBRANCH  10  11
ENDBRANCH   8  10
ENDBRANCH   7   8
BRANCH   7  17
ATOM     17  C   UNL     1      43.603   5.294  10.877  0.00  0.00    +0.000 C 
BRANCH  17  19
ATOM     18  C   UNL     1      43.528   2.870  11.483  0.00  0.00    +0.000 C 
ATOM     19  C   UNL     1      43.043   4.270  11.865  0.00  0.00    +0.000 C 
ENDBRANCH  17  19
ENDBRANCH   7  17
ENDBRANCH   1   7
BRANCH   4  20
ATOM     20  C   UNL     1      47.809   9.338  13.875  0.00  0.00    +0.000 C 
BRANCH  20  21
ATOM     21  N   UNL     1      47.565   9.133  15.278  0.00  0.00    +0.000 N 
ATOM     22  C   UNL     1      48.458   9.588  16.216  0.00  0.00    +0.000 C 
ATOM     23  O   UNL     1      49.462  10.223  15.904  0.00  0.00    +0.000 OA
ATOM     24  H   UNL     1      46.906   8.404  15.530  0.00  0.00    +0.000 HD
BRANCH  22  25
ATOM     25  C   UNL     1      48.113   9.335  17.619  0.00  0.00    +0.000 A 
ATOM     26  C   UNL     1      47.766  10.396  18.442  0.00  0.00    +0.000 A 
ATOM     27  S   UNL     1      47.314   9.916  20.016  0.00  0.00    +0.000 S 
ATOM     28  C   UNL     1      47.625   8.282  19.665  0.00  0.00    +0.000 A 
ATOM     29  N   UNL     1      47.446   7.316  20.608  0.00  0.00    +0.000 NA
ATOM     30  C   UNL     1      47.747   6.126  20.214  0.00  0.00    +0.000 A 
ATOM     31  N   UNL     1      48.210   5.806  18.964  0.00  0.00    +0.000 N 
ATOM     32  C   UNL     1      48.388   6.744  17.974  0.00  0.00    +0.000 A 
ATOM     33  O   UNL     1      48.783   6.424  16.858  0.00  0.00    +0.000 OA
ATOM     34  C   UNL     1      48.058   8.100  18.367  0.00  0.00    +0.000 A 
ATOM     35  H   UNL     1      48.427   4.852  18.720  0.00  0.00    +0.000 HD
ENDBRANCH  22  25
ENDBRANCH  20  21
ENDBRANCH   4  20
TORSDOF 9
ENDMDL
MODEL 4
REMARK VINA RESULT:    -7.691      2.012      2.487
REMARK INTER + INTRA:         -13.103
REMARK INTER:                 -11.488
REMARK INTRA:                  -1.615
REMARK UNBOUND:                -1.365
REMARK  Name = 
REMARK  10 active torsions:
REMARK  status: ('A' for Active; 'I' for Inactive)
REMARK    1  A    between atoms: C_1  and  C_2
REMARK    2  A    between atoms: C_2  and  C_3
REMARK    3  A    between atoms: C_3  and  C_4
REMARK    4  A    between atoms: C_4  and  N_5
REMARK    5  A    between atoms: C_4  and  C_13
REMARK    6  A    between atoms: N_5  and  C_6
REMARK    7  A    between atoms: C_6  and  C_7
REMARK    8  A    between atoms: C_16  and  C_17
REMARK    9  A    between atoms: C_17  and  N_18
REMARK   10  A    between atoms: C_19  and  C_21
REMARK                            x       y       z     vdW  Elec       q    Type
REMARK                         _______ _______ _______ _____ _____    ______ ____
ROOT
ATOM      1  C   UNL     1      46.104   5.792  11.789  0.00  0.00    +0.000 A 
ATOM      2  C   UNL     1      46.404   7.144  11.542  0.00  0.00    +0.000 A 
ATOM      3  C   UNL     1      47.193   7.885  12.428  0.00  0.00    +0.000 A 
ATOM      4  C   UNL     1      47.766   7.270  13.546  0.00  0.00    +0.000 A 
ATOM      5  C   UNL     1      47.463   5.931  13.807  0.00  0.00    +0.000 A 
ATOM      6  C   UNL     1      46.630   5.210  12.953  0.00  0.00    +0.000 A 
ENDROOT
BRANCH   1   7
ATOM      7  C   UNL     1      45.167   5.019  10.845  0.00  0.00    +0.000 C 
BRANCH   7   8
ATOM      8  N   UNL     1      45.532   5.219   9.420  0.00  0.00    +0.000 NA
ATOM      9  H   UNL     1      46.531   5.051   9.311  0.00  0.00    +0.000 HD
BRANCH   8  10
ATOM     10  C   UNL     1      44.807   4.274   8.555  0.00  0.00    +0.000 C 
BRANCH  10  11
ATOM     11  C   UNL     1      45.619   3.165   7.925  0.00  0.00    +0.000 A 
ATOM     12  C   UNL     1      46.451   3.479   6.833  0.00  0.00    +0.000 A 
ATOM     13  C   UNL     1      47.359   2.548   6.328  0.00  0.00    +0.000 A 
ATOM     14  C   UNL     1      47.447   1.288   6.911  0.00  0.00    +0.000 A 
ATOM     15  C   UNL     1      46.612   0.955   7.979  0.00  0.00    +0.000 A 
ATOM     16  C   UNL     1      45.701   1.888   8.486  0.00  0.00    +0.000 A 
ENDBRANCH  10  11
ENDBRANCH   8  10
ENDBRANCH   7   8
BRANCH   7  17
ATOM     17  C   UNL     1      43.689   5.405  11.138  0.00  0.00    +0.000 C 
BRANCH  17  19
ATOM     18  C   UNL     1      43.575   3.044  11.954  0.00  0.00    +0.000 C 
ATOM     19  C   UNL     1      42.816   4.369  11.848  0.00  0.00    +0.000 C 
ENDBRANCH  17  19
ENDBRANCH   7  17
ENDBRANCH   1   7
BRANCH   4  20
ATOM     20  C   UNL     1      48.670   8.025  14.481  0.00  0.00    +0.000 C 
BRANCH  20  21
ATOM     21  N   UNL     1      49.704   7.170  15.003  0.00  0.00    +0.000 N 
ATOM     22  C   UNL     1      50.675   7.675  15.831  0.00  0.00    +0.000 C 
ATOM     23  O   UNL     1      50.674   8.848  16.196  0.00  0.00    +0.000 OA
ATOM     24  H   UNL     1      49.869   6.296  14.516  0.00  0.00    +0.000 HD
BRANCH  22  25
ATOM     25  C   UNL     1      51.678   6.720  16.314  0.00  0.00    +0.000 A 
ATOM     26  C   UNL     1      53.025   6.972  16.098  0.00  0.00    +0.000 A 
ATOM     27  S   UNL     1      54.057   5.807  16.797  0.00  0.00    +0.000 S 
ATOM     28  C   UNL     1      52.735   4.898  17.360  0.00  0.00    +0.000 A 
ATOM     29  N   UNL     1      52.924   3.739  18.051  0.00  0.00    +0.000 NA
ATOM     30  C   UNL     1      51.836   3.139  18.392  0.00  0.00    +0.000 A 
ATOM     31  N   UNL     1      50.571   3.586  18.110  0.00  0.00    +0.000 N 
ATOM     32  C   UNL     1      50.330   4.758  17.432  0.00  0.00    +0.000 A 
ATOM     33  O   UNL     1      49.186   5.144  17.213  0.00  0.00    +0.000 OA
ATOM     34  C   UNL     1      51.525   5.474  17.030  0.00  0.00    +0.000 A 
ATOM     35  H   UNL     1      49.759   3.067  18.406  0.00  0.00    +0.000 HD
ENDBRANCH  22  25
ENDBRANCH  20  21
ENDBRANCH   4  20
TORSDOF 9
ENDMDL
MODEL 5
REMARK VINA RESULT:    -7.155      3.528      8.664
REMARK INTER + INTRA:         -12.285
REMARK INTER:                  -9.854
REMARK INTRA:                  -2.431
REMARK UNBOUND:                -1.365
REMARK  Name = 
REMARK  10 active torsions:
REMARK  status: ('A' for Active; 'I' for Inactive)
REMARK    1  A    between atoms: C_1  and  C_2
REMARK    2  A    between atoms: C_2  and  C_3
REMARK    3  A    between atoms: C_3  and  C_4
REMARK    4  A    between atoms: C_4  and  N_5
REMARK    5  A    between atoms: C_4  and  C_13
REMARK    6  A    between atoms: N_5  and  C_6
REMARK    7  A    between atoms: C_6  and  C_7
REMARK    8  A    between atoms: C_16  and  C_17
REMARK    9  A    between atoms: C_17  and  N_18
REMARK   10  A    between atoms: C_19  and  C_21
REMARK                            x       y       z     vdW  Elec       q    Type
REMARK                         _______ _______ _______ _____ _____    ______ ____
ROOT
ATOM      1  C   UNL     1      48.650   7.639  16.382  0.00  0.00    +0.000 A 
ATOM      2  C   UNL     1      48.383   8.894  15.805  0.00  0.00    +0.000 A 
ATOM      3  C   UNL     1      48.339   9.057  14.416  0.00  0.00    +0.000 A 
ATOM      4  C   UNL     1      48.483   7.952  13.571  0.00  0.00    +0.000 A 
ATOM      5  C   UNL     1      48.761   6.704  14.135  0.00  0.00    +0.000 A 
ATOM      6  C   UNL     1      48.861   6.555  15.517  0.00  0.00    +0.000 A 
ENDROOT
BRANCH   1   7
ATOM      7  C   UNL     1      48.775   7.497  17.910  0.00  0.00    +0.000 C 
BRANCH   7   8
ATOM      8  N   UNL     1      47.515   7.008  18.524  0.00  0.00    +0.000 NA
ATOM      9  H   UNL     1      46.848   6.803  17.782  0.00  0.00    +0.000 HD
BRANCH   8  10
ATOM     10  C   UNL     1      47.750   5.773  19.289  0.00  0.00    +0.000 C 
BRANCH  10  11
ATOM     11  C   UNL     1      48.170   4.552  18.501  0.00  0.00    +0.000 A 
ATOM     12  C   UNL     1      47.281   4.036  17.538  0.00  0.00    +0.000 A 
ATOM     13  C   UNL     1      47.678   3.032  16.655  0.00  0.00    +0.000 A 
ATOM     14  C   UNL     1      48.974   2.531  16.724  0.00  0.00    +0.000 A 
ATOM     15  C   UNL     1      49.859   3.016  17.688  0.00  0.00    +0.000 A 
ATOM     16  C   UNL     1      49.461   4.023  18.574  0.00  0.00    +0.000 A 
ENDBRANCH  10  11
ENDBRANCH   8  10
ENDBRANCH   7   8
BRANCH   7  17
ATOM     17  C   UNL     1      49.251   8.844  18.525  0.00  0.00    +0.000 C 
BRANCH  17  19
ATOM     18  C   UNL     1      51.215   7.458  19.212  0.00  0.00    +0.000 C 
ATOM     19  C   UNL     1      50.556   8.835  19.321  0.00  0.00    +0.000 C 
ENDBRANCH  17  19
ENDBRANCH   7  17
ENDBRANCH   1   7
BRANCH   4  20
ATOM     20  C   UNL     1      48.377   8.087  12.077  0.00  0.00    +0.000 C 
BRANCH  20  21
ATOM     21  N   UNL     1      47.665   6.975  11.506  0.00  0.00    +0.000 N 
ATOM     22  C   UNL     1      46.296   6.994  11.416  0.00  0.00    +0.000 C 
ATOM     23  O   UNL     1      45.634   7.967  11.766  0.00  0.00    +0.000 OA
ATOM     24  H   UNL     1      48.155   6.088  11.463  0.00  0.00    +0.000 HD
BRANCH  22  25
ATOM     25  C   UNL     1      45.666   5.814  10.812  0.00  0.00    +0.000 A 
ATOM     26  C   UNL     1      45.831   5.566   9.457  0.00  0.00    +0.000 A 
ATOM     27  S   UNL     1      45.105   4.112   8.938  0.00  0.00    +0.000 S 
ATOM     28  C   UNL     1      44.499   3.797  10.495  0.00  0.00    +0.000 A 
ATOM     29  N   UNL     1      43.757   2.683  10.746  0.00  0.00    +0.000 NA
ATOM     30  C   UNL     1      43.338   2.586  11.961  0.00  0.00    +0.000 A 
ATOM     31  N   UNL     1      43.590   3.496  12.955  0.00  0.00    +0.000 N 
ATOM     32  C   UNL     1      44.349   4.626  12.753  0.00  0.00    +0.000 A 
ATOM     33  O   UNL     1      44.576   5.411  13.667  0.00  0.00    +0.000 OA
ATOM     34  C   UNL     1      44.849   4.779  11.401  0.00  0.00    +0.000 A 
ATOM     35  H   UNL     1      43.232   3.360  13.887  0.00  0.00    +0.000 HD
ENDBRANCH  22  25
ENDBRANCH  20  21
ENDBRANCH   4  20
TORSDOF 9
ENDMDL
MODEL 6
REMARK VINA RESULT:    -7.120      3.262      8.964
REMARK INTER + INTRA:         -12.231
REMARK INTER:                  -9.987
REMARK INTRA:                  -2.244
REMARK UNBOUND:                -1.365
REMARK  Name = 
REMARK  10 active torsions:
REMARK  status: ('A' for Active; 'I' for Inactive)
REMARK    1  A    between atoms: C_1  and  C_2
REMARK    2  A    between atoms: C_2  and  C_3
REMARK    3  A    between atoms: C_3  and  C_4
REMARK    4  A    between atoms: C_4  and  N_5
REMARK    5  A    between atoms: C_4  and  C_13
REMARK    6  A    between atoms: N_5  and  C_6
REMARK    7  A    between atoms: C_6  and  C_7
REMARK    8  A    between atoms: C_16  and  C_17
REMARK    9  A    between atoms: C_17  and  N_18
REMARK   10  A    between atoms: C_19  and  C_21
REMARK                            x       y       z     vdW  Elec       q    Type
REMARK                         _______ _______ _______ _____ _____    ______ ____
ROOT
ATOM      1  C   UNL     1      48.862   8.160  16.095  0.00  0.00    +0.000 A 
ATOM      2  C   UNL     1      48.057   9.138  15.483  0.00  0.00    +0.000 A 
ATOM      3  C   UNL     1      47.703   9.044  14.132  0.00  0.00    +0.000 A 
ATOM      4  C   UNL     1      48.082   7.927  13.380  0.00  0.00    +0.000 A 
ATOM      5  C   UNL     1      48.892   6.957  13.976  0.00  0.00    +0.000 A 
ATOM      6  C   UNL     1      49.291   7.081  15.306  0.00  0.00    +0.000 A 
ENDROOT
BRANCH   1   7
ATOM      7  C   UNL     1      49.307   8.325  17.559  0.00  0.00    +0.000 C 
BRANCH   7   8
ATOM      8  N   UNL     1      50.182   7.209  17.998  0.00  0.00    +0.000 NA
ATOM      9  H   UNL     1      50.972   7.595  18.513  0.00  0.00    +0.000 HD
BRANCH   8  10
ATOM     10  C   UNL     1      49.453   6.291  18.888  0.00  0.00    +0.000 C 
BRANCH  10  11
ATOM     11  C   UNL     1      48.978   4.989  18.284  0.00  0.00    +0.000 A 
ATOM     12  C   UNL     1      47.669   4.926  17.767  0.00  0.00    +0.000 A 
ATOM     13  C   UNL     1      47.235   3.821  17.036  0.00  0.00    +0.000 A 
ATOM     14  C   UNL     1      48.107   2.761  16.810  0.00  0.00    +0.000 A 
ATOM     15  C   UNL     1      49.400   2.799  17.335  0.00  0.00    +0.000 A 
ATOM     16  C   UNL     1      49.836   3.907  18.069  0.00  0.00    +0.000 A 
ENDBRANCH  10  11
ENDBRANCH   8  10
ENDBRANCH   7   8
BRANCH   7  17
ATOM     17  C   UNL     1      48.060   8.496  18.471  0.00  0.00    +0.000 C 
BRANCH  17  19
ATOM     18  C   UNL     1      48.148  10.991  18.590  0.00  0.00    +0.000 C 
ATOM     19  C   UNL     1      48.031   9.704  19.408  0.00  0.00    +0.000 C 
ENDBRANCH  17  19
ENDBRANCH   7  17
ENDBRANCH   1   7
BRANCH   4  20
ATOM     20  C   UNL     1      47.662   7.768  11.945  0.00  0.00    +0.000 C 
BRANCH  20  21
ATOM     21  N   UNL     1      46.972   6.522  11.743  0.00  0.00    +0.000 N 
ATOM     22  C   UNL     1      45.602   6.465  11.795  0.00  0.00    +0.000 C 
ATOM     23  O   UNL     1      44.915   7.469  11.964  0.00  0.00    +0.000 OA
ATOM     24  H   UNL     1      47.511   5.671  11.867  0.00  0.00    +0.000 HD
BRANCH  22  25
ATOM     25  C   UNL     1      44.996   5.148  11.569  0.00  0.00    +0.000 A 
ATOM     26  C   UNL     1      44.328   4.513  12.606  0.00  0.00    +0.000 A 
ATOM     27  S   UNL     1      43.612   3.033  12.149  0.00  0.00    +0.000 S 
ATOM     28  C   UNL     1      44.222   3.166  10.568  0.00  0.00    +0.000 A 
ATOM     29  N   UNL     1      43.978   2.200   9.640  0.00  0.00    +0.000 NA
ATOM     30  C   UNL     1      44.524   2.414   8.492  0.00  0.00    +0.000 A 
ATOM     31  N   UNL     1      45.293   3.506   8.180  0.00  0.00    +0.000 N 
ATOM     32  C   UNL     1      45.550   4.516   9.077  0.00  0.00    +0.000 A 
ATOM     33  O   UNL     1      46.223   5.491   8.762  0.00  0.00    +0.000 OA
ATOM     34  C   UNL     1      44.953   4.322  10.384  0.00  0.00    +0.000 A 
ATOM     35  H   UNL     1      45.692   3.614   7.260  0.00  0.00    +0.000 HD
ENDBRANCH  22  25
ENDBRANCH  20  21
ENDBRANCH   4  20
TORSDOF 9
ENDMDL
MODEL 7
REMARK VINA RESULT:    -7.075      3.522      9.351
REMARK INTER + INTRA:         -12.163
REMARK INTER:                  -9.530
REMARK INTRA:                  -2.632
REMARK UNBOUND:                -1.365
REMARK  Name = 
REMARK  10 active torsions:
REMARK  status: ('A' for Active; 'I' for Inactive)
REMARK    1  A    between atoms: C_1  and  C_2
REMARK    2  A    between atoms: C_2  and  C_3
REMARK    3  A    between atoms: C_3  and  C_4
REMARK    4  A    between atoms: C_4  and  N_5
REMARK    5  A    between atoms: C_4  and  C_13
REMARK    6  A    between atoms: N_5  and  C_6
REMARK    7  A    between atoms: C_6  and  C_7
REMARK    8  A    between atoms: C_16  and  C_17
REMARK    9  A    between atoms: C_17  and  N_18
REMARK   10  A    between atoms: C_19  and  C_21
REMARK                            x       y       z     vdW  Elec       q    Type
REMARK                         _______ _______ _______ _____ _____    ______ ____
ROOT
ATOM      1  C   UNL     1      49.840   4.938  17.336  0.00  0.00    +0.000 A 
ATOM      2  C   UNL     1      50.646   5.976  16.834  0.00  0.00    +0.000 A 
ATOM      3  C   UNL     1      50.170   6.852  15.852  0.00  0.00    +0.000 A 
ATOM      4  C   UNL     1      48.848   6.760  15.405  0.00  0.00    +0.000 A 
ATOM      5  C   UNL     1      48.044   5.724  15.889  0.00  0.00    +0.000 A 
ATOM      6  C   UNL     1      48.538   4.817  16.825  0.00  0.00    +0.000 A 
ENDROOT
BRANCH   1   7
ATOM      7  C   UNL     1      50.409   3.935  18.355  0.00  0.00    +0.000 C 
BRANCH   7   8
ATOM      8  N   UNL     1      49.627   3.925  19.617  0.00  0.00    +0.000 NA
ATOM      9  H   UNL     1      49.844   3.072  20.130  0.00  0.00    +0.000 HD
BRANCH   8  10
ATOM     10  C   UNL     1      49.980   5.077  20.462  0.00  0.00    +0.000 C 
BRANCH  10  11
ATOM     11  C   UNL     1      49.308   6.392  20.139  0.00  0.00    +0.000 A 
ATOM     12  C   UNL     1      50.116   7.523  19.911  0.00  0.00    +0.000 A 
ATOM     13  C   UNL     1      49.572   8.713  19.431  0.00  0.00    +0.000 A 
ATOM     14  C   UNL     1      48.208   8.789  19.171  0.00  0.00    +0.000 A 
ATOM     15  C   UNL     1      47.390   7.684  19.414  0.00  0.00    +0.000 A 
ATOM     16  C   UNL     1      47.935   6.490  19.896  0.00  0.00    +0.000 A 
ENDBRANCH  10  11
ENDBRANCH   8  10
ENDBRANCH   7   8
BRANCH   7  17
ATOM     17  C   UNL     1      51.917   4.230  18.595  0.00  0.00    +0.000 C 
BRANCH  17  19
ATOM     18  C   UNL     1      52.168   1.904  17.714  0.00  0.00    +0.000 C 
ATOM     19  C   UNL     1      52.913   3.109  18.292  0.00  0.00    +0.000 C 
ENDBRANCH  17  19
ENDBRANCH   7  17
ENDBRANCH   1   7
BRANCH   4  20
ATOM     20  C   UNL     1      48.290   7.728  14.398  0.00  0.00    +0.000 C 
BRANCH  20  21
ATOM     21  N   UNL     1      47.033   7.262  13.875  0.00  0.00    +0.000 N 
ATOM     22  C   UNL     1      46.964   6.687  12.631  0.00  0.00    +0.000 C 
ATOM     23  O   UNL     1      47.964   6.503  11.942  0.00  0.00    +0.000 OA
ATOM     24  H   UNL     1      46.191   7.637  14.299  0.00  0.00    +0.000 HD
BRANCH  22  25
ATOM     25  C   UNL     1      45.637   6.240  12.194  0.00  0.00    +0.000 A 
ATOM     26  C   UNL     1      44.745   7.158  11.659  0.00  0.00    +0.000 A 
ATOM     27  S   UNL     1      43.285   6.457  11.125  0.00  0.00    +0.000 S 
ATOM     28  C   UNL     1      43.774   4.914  11.645  0.00  0.00    +0.000 A 
ATOM     29  N   UNL     1      42.961   3.832  11.491  0.00  0.00    +0.000 NA
ATOM     30  C   UNL     1      43.446   2.732  11.956  0.00  0.00    +0.000 A 
ATOM     31  N   UNL     1      44.670   2.606  12.560  0.00  0.00    +0.000 N 
ATOM     32  C   UNL     1      45.532   3.666  12.721  0.00  0.00    +0.000 A 
ATOM     33  O   UNL     1      46.631   3.518  13.247  0.00  0.00    +0.000 OA
ATOM     34  C   UNL     1      45.033   4.927  12.210  0.00  0.00    +0.000 A 
ATOM     35  H   UNL     1      44.991   1.714  12.903  0.00  0.00    +0.000 HD
ENDBRANCH  22  25
ENDBRANCH  20  21
ENDBRANCH   4  20
TORSDOF 9
ENDMDL
MODEL 8
REMARK VINA RESULT:    -6.884      3.773      9.467
REMARK INTER + INTRA:         -11.871
REMARK INTER:                  -9.418
REMARK INTRA:                  -2.452
REMARK UNBOUND:                -1.365
REMARK  Name = 
REMARK  10 active torsions:
REMARK  status: ('A' for Active; 'I' for Inactive)
REMARK    1  A    between atoms: C_1  and  C_2
REMARK    2  A    between atoms: C_2  and  C_3
REMARK    3  A    between atoms: C_3  and  C_4
REMARK    4  A    between atoms: C_4  and  N_5
REMARK    5  A    between atoms: C_4  and  C_13
REMARK    6  A    between atoms: N_5  and  C_6
REMARK    7  A    between atoms: C_6  and  C_7
REMARK    8  A    between atoms: C_16  and  C_17
REMARK    9  A    between atoms: C_17  and  N_18
REMARK   10  A    between atoms: C_19  and  C_21
REMARK                            x       y       z     vdW  Elec       q    Type
REMARK                         _______ _______ _______ _____ _____    ______ ____
ROOT
ATOM      1  C   UNL     1      49.687   5.394  19.627  0.00  0.00    +0.000 A 
ATOM      2  C   UNL     1      50.324   4.542  18.707  0.00  0.00    +0.000 A 
ATOM      3  C   UNL     1      49.596   3.866  17.721  0.00  0.00    +0.000 A 
ATOM      4  C   UNL     1      48.222   4.087  17.583  0.00  0.00    +0.000 A 
ATOM      5  C   UNL     1      47.578   4.922  18.500  0.00  0.00    +0.000 A 
ATOM      6  C   UNL     1      48.296   5.550  19.516  0.00  0.00    +0.000 A 
ENDROOT
BRANCH   1   7
ATOM      7  C   UNL     1      50.493   6.064  20.754  0.00  0.00    +0.000 C 
BRANCH   7   8
ATOM      8  N   UNL     1      51.471   7.048  20.223  0.00  0.00    +0.000 NA
ATOM      9  H   UNL     1      52.044   6.590  19.516  0.00  0.00    +0.000 HD
BRANCH   8  10
ATOM     10  C   UNL     1      50.780   8.185  19.594  0.00  0.00    +0.000 C 
BRANCH  10  11
ATOM     11  C   UNL     1      50.473   8.065  18.119  0.00  0.00    +0.000 A 
ATOM     12  C   UNL     1      51.456   7.520  17.270  0.00  0.00    +0.000 A 
ATOM     13  C   UNL     1      51.171   7.213  15.940  0.00  0.00    +0.000 A 
ATOM     14  C   UNL     1      49.894   7.447  15.440  0.00  0.00    +0.000 A 
ATOM     15  C   UNL     1      48.915   8.008  16.263  0.00  0.00    +0.000 A 
ATOM     16  C   UNL     1      49.202   8.317  17.597  0.00  0.00    +0.000 A 
ENDBRANCH  10  11
ENDBRANCH   8  10
ENDBRANCH   7   8
BRANCH   7  17
ATOM     17  C   UNL     1      51.167   4.975  21.636  0.00  0.00    +0.000 C 
BRANCH  17  19
ATOM     18  C   UNL     1      53.305   3.842  21.004  0.00  0.00    +0.000 C 
ATOM     19  C   UNL     1      52.690   5.017  21.769  0.00  0.00    +0.000 C 
ENDBRANCH  17  19
ENDBRANCH   7  17
ENDBRANCH   1   7
BRANCH   4  20
ATOM     20  C   UNL     1      47.426   3.423  16.493  0.00  0.00    +0.000 C 
BRANCH  20  21
ATOM     21  N   UNL     1      46.831   4.400  15.620  0.00  0.00    +0.000 N 
ATOM     22  C   UNL     1      46.736   4.165  14.271  0.00  0.00    +0.000 C 
ATOM     23  O   UNL     1      47.104   3.108  13.767  0.00  0.00    +0.000 OA
ATOM     24  H   UNL     1      46.772   5.352  15.965  0.00  0.00    +0.000 HD
BRANCH  22  25
ATOM     25  C   UNL     1      46.107   5.221  13.469  0.00  0.00    +0.000 A 
ATOM     26  C   UNL     1      46.774   6.420  13.270  0.00  0.00    +0.000 A 
ATOM     27  S   UNL     1      45.940   7.501  12.246  0.00  0.00    +0.000 S 
ATOM     28  C   UNL     1      44.634   6.424  12.086  0.00  0.00    +0.000 A 
ATOM     29  N   UNL     1      43.549   6.747  11.331  0.00  0.00    +0.000 NA
ATOM     30  C   UNL     1      42.622   5.851  11.320  0.00  0.00    +0.000 A 
ATOM     31  N   UNL     1      42.676   4.658  11.993  0.00  0.00    +0.000 N 
ATOM     32  C   UNL     1      43.758   4.281  12.753  0.00  0.00    +0.000 A 
ATOM     33  O   UNL     1      43.787   3.197  13.326  0.00  0.00    +0.000 OA
ATOM     34  C   UNL     1      44.831   5.255  12.793  0.00  0.00    +0.000 A 
ATOM     35  H   UNL     1      41.914   3.999  11.943  0.00  0.00    +0.000 HD
ENDBRANCH  22  25
ENDBRANCH  20  21
ENDBRANCH   4  20
TORSDOF 9
ENDMDL
MODEL 9
REMARK VINA RESULT:    -6.876      3.287      5.538
REMARK INTER + INTRA:         -11.858
REMARK INTER:                 -10.111
REMARK INTRA:                  -1.747
REMARK UNBOUND:                -1.365
REMARK  Name = 
REMARK  10 active torsions:
REMARK  status: ('A' for Active; 'I' for Inactive)
REMARK    1  A    between atoms: C_1  and  C_2
REMARK    2  A    between atoms: C_2  and  C_3
REMARK    3  A    between atoms: C_3  and  C_4
REMARK    4  A    between atoms: C_4  and  N_5
REMARK    5  A    between atoms: C_4  and  C_13
REMARK    6  A    between atoms: N_5  and  C_6
REMARK    7  A    between atoms: C_6  and  C_7
REMARK    8  A    between atoms: C_16  and  C_17
REMARK    9  A    between atoms: C_17  and  N_18
REMARK   10  A    between atoms: C_19  and  C_21
REMARK                            x       y       z     vdW  Elec       q    Type
REMARK                         _______ _______ _______ _____ _____    ______ ____
ROOT
ATOM      1  C   UNL     1      47.625   6.271  14.443  0.00  0.00    +0.000 A 
ATOM      2  C   UNL     1      47.032   5.021  14.188  0.00  0.00    +0.000 A 
ATOM      3  C   UNL     1      47.170   3.957  15.087  0.00  0.00    +0.000 A 
ATOM      4  C   UNL     1      47.841   4.141  16.300  0.00  0.00    +0.000 A 
ATOM      5  C   UNL     1      48.444   5.375  16.556  0.00  0.00    +0.000 A 
ATOM      6  C   UNL     1      48.353   6.416  15.633  0.00  0.00    +0.000 A 
ENDROOT
BRANCH   1   7
ATOM      7  C   UNL     1      47.530   7.402  13.404  0.00  0.00    +0.000 C 
BRANCH   7   8
ATOM      8  N   UNL     1      46.131   7.866  13.220  0.00  0.00    +0.000 NA
ATOM      9  H   UNL     1      46.108   8.880  13.317  0.00  0.00    +0.000 HD
BRANCH   8  10
ATOM     10  C   UNL     1      45.636   7.518  11.879  0.00  0.00    +0.000 C 
BRANCH  10  11
ATOM     11  C   UNL     1      44.890   6.209  11.746  0.00  0.00    +0.000 A 
ATOM     12  C   UNL     1      43.868   5.921  12.671  0.00  0.00    +0.000 A 
ATOM     13  C   UNL     1      43.025   4.825  12.495  0.00  0.00    +0.000 A 
ATOM     14  C   UNL     1      43.193   4.000  11.388  0.00  0.00    +0.000 A 
ATOM     15  C   UNL     1      44.216   4.259  10.475  0.00  0.00    +0.000 A 
ATOM     16  C   UNL     1      45.063   5.358  10.651  0.00  0.00    +0.000 A 
ENDBRANCH  10  11
ENDBRANCH   8  10
ENDBRANCH   7   8
BRANCH   7  17
ATOM     17  C   UNL     1      48.183   6.945  12.069  0.00  0.00    +0.000 C 
BRANCH  17  19
ATOM     18  C   UNL     1      49.783   8.789  12.611  0.00  0.00    +0.000 C 
ATOM     19  C   UNL     1      49.418   7.710  11.589  0.00  0.00    +0.000 C 
ENDBRANCH  17  19
ENDBRANCH   7  17
ENDBRANCH   1   7
BRANCH   4  20
ATOM     20  C   UNL     1      47.950   3.034  17.312  0.00  0.00    +0.000 C 
BRANCH  20  21
ATOM     21  N   UNL     1      49.310   2.870  17.754  0.00  0.00    +0.000 N 
ATOM     22  C   UNL     1      50.199   2.130  17.018  0.00  0.00    +0.000 C 
ATOM     23  O   UNL     1      49.892   1.624  15.942  0.00  0.00    +0.000 OA
ATOM     24  H   UNL     1      49.500   3.047  18.735  0.00  0.00    +0.000 HD
BRANCH  22  25
ATOM     25  C   UNL     1      51.562   2.030  17.551  0.00  0.00    +0.000 A 
ATOM     26  C   UNL     1      52.225   0.812  17.518  0.00  0.00    +0.000 A 
ATOM     27  S   UNL     1      53.827   0.892  18.099  0.00  0.00    +0.000 S 
ATOM     28  C   UNL     1      53.666   2.544  18.469  0.00  0.00    +0.000 A 
ATOM     29  N   UNL     1      54.697   3.242  19.021  0.00  0.00    +0.000 NA
ATOM     30  C   UNL     1      54.427   4.477  19.276  0.00  0.00    +0.000 A 
ATOM     31  N   UNL     1      53.223   5.084  19.030  0.00  0.00    +0.000 N 
ATOM     32  C   UNL     1      52.160   4.425  18.458  0.00  0.00    +0.000 A 
ATOM     33  O   UNL     1      51.101   5.001  18.231  0.00  0.00    +0.000 OA
ATOM     34  C   UNL     1      52.415   3.032  18.148  0.00  0.00    +0.000 A 
ATOM     35  H   UNL     1      53.077   6.057  19.254  0.00  0.00    +0.000 HD
ENDBRANCH  22  25
ENDBRANCH  20  21
ENDBRANCH   4  20
TORSDOF 9
ENDMDL
