MODEL 1
REMARK VINA RESULT:    -8.473      0.000      0.000
REMARK INTER + INTRA:         -13.087
REMARK INTER:                 -11.940
REMARK INTRA:                  -1.147
REMARK UNBOUND:                -1.147
REMARK  Name = 
REMARK  8 active torsions:
REMARK  status: ('A' for Active; 'I' for Inactive)
REMARK    1  A    between atoms: C_1  and  C_2
REMARK    2  A    between atoms: C_2  and  C_3
REMARK    3  A    between atoms: C_2  and  C_14
REMARK    4  A    between atoms: C_3  and  O_4
REMARK    5  A    between atoms: O_4  and  C_5
REMARK    6  A    between atoms: C_8  and  C_9
REMARK    7  A    between atoms: C_18  and  O_19
REMARK    8  A    between atoms: O_19  and  C_20
REMARK                            x       y       z     vdW  Elec       q    Type
REMARK                         _______ _______ _______ _____ _____    ______ ____
ROOT
ATOM      1  C   UNL     1      42.791   5.288  12.352  0.00  0.00    +0.000 C 
ATOM      2  C   UNL     1      43.844   4.265  12.782  0.00  0.00    +0.000 C 
ENDROOT
BRANCH   2   3
ATOM      3  C   UNL     1      45.219   4.913  12.898  0.00  0.00    +0.000 A 
ATOM      4  C   UNL     1      45.643   5.825  11.925  0.00  0.00    +0.000 A 
ATOM      5  C   UNL     1      46.911   6.398  12.002  0.00  0.00    +0.000 A 
ATOM      6  C   UNL     1      47.754   6.108  13.077  0.00  0.00    +0.000 A 
ATOM      7  C   UNL     1      47.316   5.274  14.106  0.00  0.00    +0.000 A 
ATOM      8  C   UNL     1      46.075   4.642  13.985  0.00  0.00    +0.000 A 
BRANCH   7   9
ATOM      9  O   UNL     1      47.990   5.038  15.281  0.00  0.00    +0.000 OA
BRANCH   9  10
ATOM     10  C   UNL     1      47.345   4.158  16.216  0.00  0.00    +0.000 C 
ATOM     11  C   UNL     1      47.287   4.812  17.583  0.00  0.00    +0.000 C 
ATOM     12  C   UNL     1      48.533   4.321  18.286  0.00  0.00    +0.000 C 
ATOM     13  O   UNL     1      48.874   3.055  17.722  0.00  0.00    +0.000 OA
ATOM     14  C   UNL     1      48.154   2.888  16.492  0.00  0.00    +0.000 C 
ENDBRANCH   9  10
ENDBRANCH   7   9
ENDBRANCH   2   3
BRANCH   2  15
ATOM     15  C   UNL     1      43.907   3.056  11.834  0.00  0.00    +0.000 C 
BRANCH  15  16
ATOM     16  O   UNL     1      43.460   3.384  10.512  0.00  0.00    +0.000 OA
BRANCH  16  17
ATOM     17  C   UNL     1      44.410   3.232   9.533  0.00  0.00    +0.000 A 
ATOM     18  C   UNL     1      45.022   4.268   8.829  0.00  0.00    +0.000 A 
ATOM     19  C   UNL     1      45.992   3.984   7.871  0.00  0.00    +0.000 A 
ATOM     20  C   UNL     1      46.324   2.658   7.646  0.00  0.00    +0.000 A 
ATOM     21  N   UNL     1      45.745   1.610   8.297  0.00  0.00    +0.000 NA
ATOM     22  C   UNL     1      44.801   1.931   9.221  0.00  0.00    +0.000 A 
BRANCH  20  23
ATOM     23  C   UNL     1      47.390   2.337   6.645  0.00  0.00    +0.000 C 
ATOM     24  N   UNL     1      47.283   2.971   5.442  0.00  0.00    +0.000 N 
ATOM     25  O   UNL     1      48.298   1.548   6.880  0.00  0.00    +0.000 OA
ATOM     26  H   UNL     1      46.508   3.604   5.277  0.00  0.00    +0.000 HD
ATOM     27  H   UNL     1      47.955   2.776   4.714  0.00  0.00    +0.000 HD
ENDBRANCH  20  23
ENDBRANCH  16  17
ENDBRANCH  15  16
ENDBRANCH   2  15
TORSDOF 7
ENDMDL
MODEL 2
REMARK VINA RESULT:    -7.369      3.312      5.189
REMARK INTER + INTRA:         -11.531
REMARK INTER:                 -10.513
REMARK INTRA:                  -1.018
REMARK UNBOUND:                -1.147
REMARK  Name = 
REMARK  8 active torsions:
REMARK  status: ('A' for Active; 'I' for Inactive)
REMARK    1  A    between atoms: C_1  and  C_2
REMARK    2  A    between atoms: C_2  and  C_3
REMARK    3  A    between atoms: C_2  and  C_14
REMARK    4  A    between atoms: C_3  and  O_4
REMARK    5  A    between atoms: O_4  and  C_5
REMARK    6  A    between atoms: C_8  and  C_9
REMARK    7  A    between atoms: C_18  and  O_19
REMARK    8  A    between atoms: O_19  and  C_20
REMARK                            x       y       z     vdW  Elec       q    Type
REMARK                         _______ _______ _______ _____ _____    ______ ____
ROOT
ATOM      1  C   UNL     1      43.353   4.656  13.352  0.00  0.00    +0.000 C 
ATOM      2  C   UNL     1      44.272   4.702  12.130  0.00  0.00    +0.000 C 
ENDROOT
BRANCH   2   3
ATOM      3  C   UNL     1      45.150   5.949  12.155  0.00  0.00    +0.000 A 
ATOM      4  C   UNL     1      46.542   5.821  12.088  0.00  0.00    +0.000 A 
ATOM      5  C   UNL     1      47.357   6.951  12.145  0.00  0.00    +0.000 A 
ATOM      6  C   UNL     1      46.792   8.226  12.217  0.00  0.00    +0.000 A 
ATOM      7  C   UNL     1      45.406   8.382  12.192  0.00  0.00    +0.000 A 
ATOM      8  C   UNL     1      44.595   7.243  12.214  0.00  0.00    +0.000 A 
BRANCH   7   9
ATOM      9  O   UNL     1      44.741   9.582  12.104  0.00  0.00    +0.000 OA
BRANCH   9  10
ATOM     10  C   UNL     1      44.228   9.931  10.808  0.00  0.00    +0.000 C 
ATOM     11  C   UNL     1      44.608  11.359  10.471  0.00  0.00    +0.000 C 
ATOM     12  C   UNL     1      43.426  12.180  10.939  0.00  0.00    +0.000 C 
ATOM     13  O   UNL     1      42.272  11.341  10.886  0.00  0.00    +0.000 OA
ATOM     14  C   UNL     1      42.699   9.976  10.766  0.00  0.00    +0.000 C 
ENDBRANCH   9  10
ENDBRANCH   7   9
ENDBRANCH   2   3
BRANCH   2  15
ATOM     15  C   UNL     1      43.492   4.632  10.807  0.00  0.00    +0.000 C 
BRANCH  15  16
ATOM     16  O   UNL     1      43.546   3.326  10.218  0.00  0.00    +0.000 OA
BRANCH  16  17
ATOM     17  C   UNL     1      44.532   3.165   9.276  0.00  0.00    +0.000 A 
ATOM     18  C   UNL     1      45.090   4.182   8.505  0.00  0.00    +0.000 A 
ATOM     19  C   UNL     1      46.104   3.894   7.595  0.00  0.00    +0.000 A 
ATOM     20  C   UNL     1      46.533   2.581   7.484  0.00  0.00    +0.000 A 
ATOM     21  N   UNL     1      46.009   1.549   8.204  0.00  0.00    +0.000 NA
ATOM     22  C   UNL     1      45.020   1.874   9.078  0.00  0.00    +0.000 A 
BRANCH  20  23
ATOM     23  C   UNL     1      47.647   2.258   6.537  0.00  0.00    +0.000 C 
ATOM     24  N   UNL     1      47.767   3.089   5.461  0.00  0.00    +0.000 N 
ATOM     25  O   UNL     1      48.399   1.306   6.705  0.00  0.00    +0.000 OA
ATOM     26  H   UNL     1      47.115   3.856   5.346  0.00  0.00    +0.000 HD
ATOM     27  H   UNL     1      48.481   2.908   4.770  0.00  0.00    +0.000 HD
ENDBRANCH  20  23
ENDBRANCH  16  17
ENDBRANCH  15  16
ENDBRANCH   2  15
TORSDOF 7
ENDMDL
MODEL 3
REMARK VINA RESULT:    -7.248      1.875      2.275
REMARK INTER + INTRA:         -11.360
REMARK INTER:                 -10.887
REMARK INTRA:                  -0.473
REMARK UNBOUND:                -1.147
REMARK  Name = 
REMARK  8 active torsions:
REMARK  status: ('A' for Active; 'I' for Inactive)
REMARK    1  A    between atoms: C_1  and  C_2
REMARK    2  A    between atoms: C_2  and  C_3
REMARK    3  A    between atoms: C_2  and  C_14
REMARK    4  A    between atoms: C_3  and  O_4
REMARK    5  A    between atoms: O_4  and  C_5
REMARK    6  A    between atoms: C_8  and  C_9
REMARK    7  A    between atoms: C_18  and  O_19
REMARK    8  A    between atoms: O_19  and  C_20
REMARK                            x       y       z     vdW  Elec       q    Type
REMARK                         _______ _______ _______ _____ _____    ______ ____
ROOT
ATOM      1  C   UNL     1      45.487   3.236  12.647  0.00  0.00    +0.000 C 
ATOM      2  C   UNL     1      45.344   4.433  11.706  0.00  0.00    +0.000 C 
ENDROOT
BRANCH   2   3
ATOM      3  C   UNL     1      45.974   5.682  12.313  0.00  0.00    +0.000 A 
ATOM      4  C   UNL     1      45.267   6.890  12.311  0.00  0.00    +0.000 A 
ATOM      5  C   UNL     1      45.846   8.046  12.832  0.00  0.00    +0.000 A 
ATOM      6  C   UNL     1      47.117   8.001  13.408  0.00  0.00    +0.000 A 
ATOM      7  C   UNL     1      47.802   6.791  13.504  0.00  0.00    +0.000 A 
ATOM      8  C   UNL     1      47.251   5.651  12.910  0.00  0.00    +0.000 A 
BRANCH   7   9
ATOM      9  O   UNL     1      48.983   6.594  14.180  0.00  0.00    +0.000 OA
BRANCH   9  10
ATOM     10  C   UNL     1      48.978   6.931  15.577  0.00  0.00    +0.000 C 
ATOM     11  C   UNL     1      50.344   7.445  15.987  0.00  0.00    +0.000 C 
ATOM     12  C   UNL     1      51.070   6.216  16.491  0.00  0.00    +0.000 C 
ATOM     13  O   UNL     1      50.084   5.302  16.970  0.00  0.00    +0.000 OA
ATOM     14  C   UNL     1      48.799   5.710  16.481  0.00  0.00    +0.000 C 
ENDBRANCH   9  10
ENDBRANCH   7   9
ENDBRANCH   2   3
BRANCH   2  15
ATOM     15  C   UNL     1      43.880   4.710  11.328  0.00  0.00    +0.000 C 
BRANCH  15  16
ATOM     16  O   UNL     1      43.671   4.661   9.910  0.00  0.00    +0.000 OA
BRANCH  16  17
ATOM     17  C   UNL     1      44.567   3.878   9.227  0.00  0.00    +0.000 A 
ATOM     18  C   UNL     1      44.646   2.487   9.296  0.00  0.00    +0.000 A 
ATOM     19  C   UNL     1      45.589   1.802   8.534  0.00  0.00    +0.000 A 
ATOM     20  C   UNL     1      46.433   2.537   7.718  0.00  0.00    +0.000 A 
ATOM     21  N   UNL     1      46.406   3.897   7.627  0.00  0.00    +0.000 NA
ATOM     22  C   UNL     1      45.473   4.526   8.390  0.00  0.00    +0.000 A 
BRANCH  20  23
ATOM     23  C   UNL     1      47.429   1.814   6.865  0.00  0.00    +0.000 C 
ATOM     24  N   UNL     1      48.497   2.554   6.448  0.00  0.00    +0.000 N 
ATOM     25  O   UNL     1      47.295   0.638   6.550  0.00  0.00    +0.000 OA
ATOM     26  H   UNL     1      48.565   3.530   6.714  0.00  0.00    +0.000 HD
ATOM     27  H   UNL     1      49.190   2.132   5.847  0.00  0.00    +0.000 HD
ENDBRANCH  20  23
ENDBRANCH  16  17
ENDBRANCH  15  16
ENDBRANCH   2  15
TORSDOF 7
ENDMDL
MODEL 4
REMARK VINA RESULT:    -7.167      2.483      4.161
REMARK INTER + INTRA:         -11.247
REMARK INTER:                 -10.218
REMARK INTRA:                  -1.029
REMARK UNBOUND:                -1.147
REMARK  Name = 
REMARK  8 active torsions:
REMARK  status: ('A' for Active; 'I' for Inactive)
REMARK    1  A    between atoms: C_1  and  C_2
REMARK    2  A    between atoms: C_2  and  C_3
REMARK    3  A    between atoms: C_2  and  C_14
REMARK    4  A    between atoms: C_3  and  O_4
REMARK    5  A    between atoms: O_4  and  C_5
REMARK    6  A    between atoms: C_8  and  C_9
REMARK    7  A    between atoms: C_18  and  O_19
REMARK    8  A    between atoms: O_19  and  C_20
REMARK                            x       y       z     vdW  Elec       q    Type
REMARK                         _______ _______ _______ _____ _____    ______ ____
ROOT
ATOM      1  C   UNL     1      43.543   4.220  13.251  0.00  0.00    +0.000 C 
ATOM      2  C   UNL     1      44.621   4.405  12.181  0.00  0.00    +0.000 C 
ENDROOT
BRANCH   2   3
ATOM      3  C   UNL     1      45.826   5.150  12.745  0.00  0.00    +0.000 A 
ATOM      4  C   UNL     1      46.449   4.687  13.909  0.00  0.00    +0.000 A 
ATOM      5  C   UNL     1      47.530   5.379  14.452  0.00  0.00    +0.000 A 
ATOM      6  C   UNL     1      48.036   6.513  13.814  0.00  0.00    +0.000 A 
ATOM      7  C   UNL     1      47.489   6.940  12.604  0.00  0.00    +0.000 A 
ATOM      8  C   UNL     1      46.357   6.289  12.105  0.00  0.00    +0.000 A 
BRANCH   7   9
ATOM      9  O   UNL     1      47.994   7.943  11.811  0.00  0.00    +0.000 OA
BRANCH   9  10
ATOM     10  C   UNL     1      48.779   8.945  12.477  0.00  0.00    +0.000 C 
ATOM     11  C   UNL     1      48.308  10.326  12.064  0.00  0.00    +0.000 C 
ATOM     12  C   UNL     1      49.199  10.691  10.897  0.00  0.00    +0.000 C 
ATOM     13  O   UNL     1      50.430   9.986  11.059  0.00  0.00    +0.000 OA
ATOM     14  C   UNL     1      50.243   8.948  12.032  0.00  0.00    +0.000 C 
ENDBRANCH   9  10
ENDBRANCH   7   9
ENDBRANCH   2   3
BRANCH   2  15
ATOM     15  C   UNL     1      44.089   5.128  10.932  0.00  0.00    +0.000 C 
BRANCH  15  16
ATOM     16  O   UNL     1      43.621   4.208   9.936  0.00  0.00    +0.000 OA
BRANCH  16  17
ATOM     17  C   UNL     1      44.612   3.630   9.184  0.00  0.00    +0.000 A 
ATOM     18  C   UNL     1      44.881   2.264   9.109  0.00  0.00    +0.000 A 
ATOM     19  C   UNL     1      45.904   1.796   8.288  0.00  0.00    +0.000 A 
ATOM     20  C   UNL     1      46.634   2.720   7.558  0.00  0.00    +0.000 A 
ATOM     21  N   UNL     1      46.419   4.065   7.608  0.00  0.00    +0.000 NA
ATOM     22  C   UNL     1      45.414   4.479   8.424  0.00  0.00    +0.000 A 
BRANCH  20  23
ATOM     23  C   UNL     1      47.714   2.233   6.643  0.00  0.00    +0.000 C 
ATOM     24  N   UNL     1      47.863   2.930   5.480  0.00  0.00    +0.000 N 
ATOM     25  O   UNL     1      48.415   1.264   6.910  0.00  0.00    +0.000 OA
ATOM     26  H   UNL     1      47.253   3.716   5.285  0.00  0.00    +0.000 HD
ATOM     27  H   UNL     1      48.556   2.634   4.808  0.00  0.00    +0.000 HD
ENDBRANCH  20  23
ENDBRANCH  16  17
ENDBRANCH  15  16
ENDBRANCH   2  15
TORSDOF 7
ENDMDL
MODEL 5
REMARK VINA RESULT:    -7.052      2.853      7.589
REMARK INTER + INTRA:         -11.084
REMARK INTER:                 -10.287
REMARK INTRA:                  -0.797
REMARK UNBOUND:                -1.147
REMARK  Name = 
REMARK  8 active torsions:
REMARK  status: ('A' for Active; 'I' for Inactive)
REMARK    1  A    between atoms: C_1  and  C_2
REMARK    2  A    between atoms: C_2  and  C_3
REMARK    3  A    between atoms: C_2  and  C_14
REMARK    4  A    between atoms: C_3  and  O_4
REMARK    5  A    between atoms: O_4  and  C_5
REMARK    6  A    between atoms: C_8  and  C_9
REMARK    7  A    between atoms: C_18  and  O_19
REMARK    8  A    between atoms: O_19  and  C_20
REMARK                            x       y       z     vdW  Elec       q    Type
REMARK                         _______ _______ _______ _____ _____    ______ ____
ROOT
ATOM      1  C   UNL     1      44.720   8.752  11.442  0.00  0.00    +0.000 C 
ATOM      2  C   UNL     1      45.580   7.510  11.680  0.00  0.00    +0.000 C 
ENDROOT
BRANCH   2   3
ATOM      3  C   UNL     1      44.756   6.237  11.521  0.00  0.00    +0.000 A 
ATOM      4  C   UNL     1      43.383   6.257  11.796  0.00  0.00    +0.000 A 
ATOM      5  C   UNL     1      42.626   5.092  11.687  0.00  0.00    +0.000 A 
ATOM      6  C   UNL     1      43.217   3.903  11.253  0.00  0.00    +0.000 A 
ATOM      7  C   UNL     1      44.562   3.882  10.885  0.00  0.00    +0.000 A 
ATOM      8  C   UNL     1      45.334   5.033  11.071  0.00  0.00    +0.000 A 
BRANCH   7   9
ATOM      9  O   UNL     1      45.212   2.819  10.304  0.00  0.00    +0.000 OA
BRANCH   9  10
ATOM     10  C   UNL     1      44.811   2.485   8.965  0.00  0.00    +0.000 C 
ATOM     11  C   UNL     1      45.903   1.683   8.285  0.00  0.00    +0.000 C 
ATOM     12  C   UNL     1      46.734   2.721   7.563  0.00  0.00    +0.000 C 
ATOM     13  O   UNL     1      45.881   3.826   7.269  0.00  0.00    +0.000 OA
ATOM     14  C   UNL     1      44.688   3.711   8.058  0.00  0.00    +0.000 C 
ENDBRANCH   9  10
ENDBRANCH   7   9
ENDBRANCH   2   3
BRANCH   2  15
ATOM     15  C   UNL     1      46.265   7.527  13.057  0.00  0.00    +0.000 C 
BRANCH  15  16
ATOM     16  O   UNL     1      47.495   6.789  13.056  0.00  0.00    +0.000 OA
BRANCH  16  17
ATOM     17  C   UNL     1      47.680   5.987  14.154  0.00  0.00    +0.000 A 
ATOM     18  C   UNL     1      48.319   6.363  15.334  0.00  0.00    +0.000 A 
ATOM     19  C   UNL     1      48.425   5.461  16.390  0.00  0.00    +0.000 A 
ATOM     20  C   UNL     1      47.880   4.197  16.231  0.00  0.00    +0.000 A 
ATOM     21  N   UNL     1      47.259   3.777  15.093  0.00  0.00    +0.000 NA
ATOM     22  C   UNL     1      47.181   4.687  14.086  0.00  0.00    +0.000 A 
BRANCH  20  23
ATOM     23  C   UNL     1      47.953   3.227  17.369  0.00  0.00    +0.000 C 
ATOM     24  N   UNL     1      46.762   2.694  17.769  0.00  0.00    +0.000 N 
ATOM     25  O   UNL     1      49.009   2.933  17.917  0.00  0.00    +0.000 OA
ATOM     26  H   UNL     1      45.907   2.975  17.303  0.00  0.00    +0.000 HD
ATOM     27  H   UNL     1      46.740   2.055  18.550  0.00  0.00    +0.000 HD
ENDBRANCH  20  23
ENDBRANCH  16  17
ENDBRANCH  15  16
ENDBRANCH   2  15
TORSDOF 7
ENDMDL
MODEL 6
REMARK VINA RESULT:    -6.871      2.725      4.159
REMARK INTER + INTRA:         -10.830
REMARK INTER:                 -10.022
REMARK INTRA:                  -0.808
REMARK UNBOUND:                -1.147
REMARK  Name = 
REMARK  8 active torsions:
REMARK  status: ('A' for Active; 'I' for Inactive)
REMARK    1  A    between atoms: C_1  and  C_2
REMARK    2  A    between atoms: C_2  and  C_3
REMARK    3  A    between atoms: C_2  and  C_14
REMARK    4  A    between atoms: C_3  and  O_4
REMARK    5  A    between atoms: O_4  and  C_5
REMARK    6  A    between atoms: C_8  and  C_9
REMARK    7  A    between atoms: C_18  and  O_19
REMARK    8  A    between atoms: O_19  and  C_20
REMARK                            x       y       z     vdW  Elec       q    Type
REMARK                         _______ _______ _______ _____ _____    ______ ____
ROOT
ATOM      1  C   UNL     1      45.674   4.156  13.038  0.00  0.00    +0.000 C 
ATOM      2  C   UNL     1      45.496   4.950  11.743  0.00  0.00    +0.000 C 
ENDROOT
BRANCH   2   3
ATOM      3  C   UNL     1      45.918   6.403  11.931  0.00  0.00    +0.000 A 
ATOM      4  C   UNL     1      44.946   7.407  12.001  0.00  0.00    +0.000 A 
ATOM      5  C   UNL     1      45.321   8.743  12.138  0.00  0.00    +0.000 A 
ATOM      6  C   UNL     1      46.668   9.089  12.258  0.00  0.00    +0.000 A 
ATOM      7  C   UNL     1      47.648   8.097  12.284  0.00  0.00    +0.000 A 
ATOM      8  C   UNL     1      47.273   6.768  12.068  0.00  0.00    +0.000 A 
BRANCH   7   9
ATOM      9  O   UNL     1      48.982   8.301  12.550  0.00  0.00    +0.000 OA
BRANCH   9  10
ATOM     10  C   UNL     1      49.772   8.821  11.467  0.00  0.00    +0.000 C 
ATOM     11  C   UNL     1      50.932   7.887  11.182  0.00  0.00    +0.000 C 
ATOM     12  C   UNL     1      52.069   8.438  12.013  0.00  0.00    +0.000 C 
ATOM     13  O   UNL     1      51.841   9.837  12.179  0.00  0.00    +0.000 OA
ATOM     14  C   UNL     1      50.482  10.129  11.825  0.00  0.00    +0.000 C 
ENDBRANCH   9  10
ENDBRANCH   7   9
ENDBRANCH   2   3
BRANCH   2  15
ATOM     15  C   UNL     1      44.056   4.883  11.208  0.00  0.00    +0.000 C 
BRANCH  15  16
ATOM     16  O   UNL     1      43.809   3.674  10.477  0.00  0.00    +0.000 OA
BRANCH  16  17
ATOM     17  C   UNL     1      44.699   3.428   9.462  0.00  0.00    +0.000 A 
ATOM     18  C   UNL     1      45.225   4.385   8.595  0.00  0.00    +0.000 A 
ATOM     19  C   UNL     1      46.141   4.012   7.615  0.00  0.00    +0.000 A 
ATOM     20  C   UNL     1      46.508   2.678   7.533  0.00  0.00    +0.000 A 
ATOM     21  N   UNL     1      46.012   1.704   8.347  0.00  0.00    +0.000 NA
ATOM     22  C   UNL     1      45.118   2.110   9.287  0.00  0.00    +0.000 A 
BRANCH  20  23
ATOM     23  C   UNL     1      47.519   2.265   6.509  0.00  0.00    +0.000 C 
ATOM     24  N   UNL     1      47.515   2.985   5.350  0.00  0.00    +0.000 N 
ATOM     25  O   UNL     1      48.296   1.334   6.689  0.00  0.00    +0.000 OA
ATOM     26  H   UNL     1      46.846   3.737   5.230  0.00  0.00    +0.000 HD
ATOM     27  H   UNL     1      48.154   2.739   4.608  0.00  0.00    +0.000 HD
ENDBRANCH  20  23
ENDBRANCH  16  17
ENDBRANCH  15  16
ENDBRANCH   2  15
TORSDOF 7
ENDMDL
MODEL 7
REMARK VINA RESULT:    -6.633      3.141      7.983
REMARK INTER + INTRA:         -10.494
REMARK INTER:                  -9.532
REMARK INTRA:                  -0.962
REMARK UNBOUND:                -1.147
REMARK  Name = 
REMARK  8 active torsions:
REMARK  status: ('A' for Active; 'I' for Inactive)
REMARK    1  A    between atoms: C_1  and  C_2
REMARK    2  A    between atoms: C_2  and  C_3
REMARK    3  A    between atoms: C_2  and  C_14
REMARK    4  A    between atoms: C_3  and  O_4
REMARK    5  A    between atoms: O_4  and  C_5
REMARK    6  A    between atoms: C_8  and  C_9
REMARK    7  A    between atoms: C_18  and  O_19
REMARK    8  A    between atoms: O_19  and  C_20
REMARK                            x       y       z     vdW  Elec       q    Type
REMARK                         _______ _______ _______ _____ _____    ______ ____
ROOT
ATOM      1  C   UNL     1      43.911   7.736  11.267  0.00  0.00    +0.000 C 
ATOM      2  C   UNL     1      45.134   6.823  11.169  0.00  0.00    +0.000 C 
ENDROOT
BRANCH   2   3
ATOM      3  C   UNL     1      44.716   5.373  10.951  0.00  0.00    +0.000 A 
ATOM      4  C   UNL     1      43.884   4.741  11.881  0.00  0.00    +0.000 A 
ATOM      5  C   UNL     1      43.523   3.405  11.711  0.00  0.00    +0.000 A 
ATOM      6  C   UNL     1      43.945   2.698  10.583  0.00  0.00    +0.000 A 
ATOM      7  C   UNL     1      44.698   3.334   9.597  0.00  0.00    +0.000 A 
ATOM      8  C   UNL     1      45.122   4.649   9.811  0.00  0.00    +0.000 A 
BRANCH   7   9
ATOM      9  O   UNL     1      45.040   2.792   8.381  0.00  0.00    +0.000 OA
BRANCH   9  10
ATOM     10  C   UNL     1      46.447   2.676   8.110  0.00  0.00    +0.000 C 
ATOM     11  C   UNL     1      46.811   3.524   6.907  0.00  0.00    +0.000 C 
ATOM     12  C   UNL     1      46.711   2.571   5.736  0.00  0.00    +0.000 C 
ATOM     13  O   UNL     1      46.959   1.256   6.229  0.00  0.00    +0.000 OA
ATOM     14  C   UNL     1      46.852   1.271   7.660  0.00  0.00    +0.000 C 
ENDBRANCH   9  10
ENDBRANCH   7   9
ENDBRANCH   2   3
BRANCH   2  15
ATOM     15  C   UNL     1      46.047   6.930  12.402  0.00  0.00    +0.000 C 
BRANCH  15  16
ATOM     16  O   UNL     1      46.974   5.840  12.483  0.00  0.00    +0.000 OA
BRANCH  16  17
ATOM     17  C   UNL     1      47.280   5.444  13.761  0.00  0.00    +0.000 A 
ATOM     18  C   UNL     1      46.803   4.294  14.389  0.00  0.00    +0.000 A 
ATOM     19  C   UNL     1      47.206   3.988  15.686  0.00  0.00    +0.000 A 
ATOM     20  C   UNL     1      48.084   4.852  16.322  0.00  0.00    +0.000 A 
ATOM     21  N   UNL     1      48.566   5.994  15.756  0.00  0.00    +0.000 NA
ATOM     22  C   UNL     1      48.145   6.256  14.491  0.00  0.00    +0.000 A 
BRANCH  20  23
ATOM     23  C   UNL     1      48.555   4.520  17.704  0.00  0.00    +0.000 C 
ATOM     24  N   UNL     1      47.833   3.569  18.363  0.00  0.00    +0.000 N 
ATOM     25  O   UNL     1      49.520   5.071  18.220  0.00  0.00    +0.000 OA
ATOM     26  H   UNL     1      47.029   3.148  17.910  0.00  0.00    +0.000 HD
ATOM     27  H   UNL     1      48.083   3.320  19.309  0.00  0.00    +0.000 HD
ENDBRANCH  20  23
ENDBRANCH  16  17
ENDBRANCH  15  16
ENDBRANCH   2  15
TORSDOF 7
ENDMDL
MODEL 8
REMARK VINA RESULT:    -6.395      2.788      4.661
REMARK INTER + INTRA:         -10.159
REMARK INTER:                  -8.987
REMARK INTRA:                  -1.172
REMARK UNBOUND:                -1.147
REMARK  Name = 
REMARK  8 active torsions:
REMARK  status: ('A' for Active; 'I' for Inactive)
REMARK    1  A    between atoms: C_1  and  C_2
REMARK    2  A    between atoms: C_2  and  C_3
REMARK    3  A    between atoms: C_2  and  C_14
REMARK    4  A    between atoms: C_3  and  O_4
REMARK    5  A    between atoms: O_4  and  C_5
REMARK    6  A    between atoms: C_8  and  C_9
REMARK    7  A    between atoms: C_18  and  O_19
REMARK    8  A    between atoms: O_19  and  C_20
REMARK                            x       y       z     vdW  Elec       q    Type
REMARK                         _______ _______ _______ _____ _____    ______ ____
ROOT
ATOM      1  C   UNL     1      49.000   7.408  11.759  0.00  0.00    +0.000 C 
ATOM      2  C   UNL     1      48.239   8.441  12.591  0.00  0.00    +0.000 C 
ENDROOT
BRANCH   2   3
ATOM      3  C   UNL     1      48.469   8.218  14.082  0.00  0.00    +0.000 A 
ATOM      4  C   UNL     1      48.144   9.227  14.995  0.00  0.00    +0.000 A 
ATOM      5  C   UNL     1      48.382   9.048  16.357  0.00  0.00    +0.000 A 
ATOM      6  C   UNL     1      48.898   7.840  16.831  0.00  0.00    +0.000 A 
ATOM      7  C   UNL     1      49.142   6.787  15.949  0.00  0.00    +0.000 A 
ATOM      8  C   UNL     1      48.976   7.000  14.577  0.00  0.00    +0.000 A 
BRANCH   7   9
ATOM      9  O   UNL     1      49.503   5.511  16.312  0.00  0.00    +0.000 OA
BRANCH   9  10
ATOM     10  C   UNL     1      48.642   4.852  17.256  0.00  0.00    +0.000 C 
ATOM     11  C   UNL     1      49.265   3.541  17.692  0.00  0.00    +0.000 C 
ATOM     12  C   UNL     1      48.679   2.516  16.746  0.00  0.00    +0.000 C 
ATOM     13  O   UNL     1      47.409   3.004  16.317  0.00  0.00    +0.000 OA
ATOM     14  C   UNL     1      47.318   4.400  16.637  0.00  0.00    +0.000 C 
ENDBRANCH   9  10
ENDBRANCH   7   9
ENDBRANCH   2   3
BRANCH   2  15
ATOM     15  C   UNL     1      46.732   8.446  12.283  0.00  0.00    +0.000 C 
BRANCH  15  16
ATOM     16  O   UNL     1      45.987   7.665  13.227  0.00  0.00    +0.000 OA
BRANCH  16  17
ATOM     17  C   UNL     1      45.572   6.445  12.757  0.00  0.00    +0.000 A 
ATOM     18  C   UNL     1      45.897   5.208  13.313  0.00  0.00    +0.000 A 
ATOM     19  C   UNL     1      45.393   4.036  12.754  0.00  0.00    +0.000 A 
ATOM     20  C   UNL     1      44.570   4.139  11.644  0.00  0.00    +0.000 A 
ATOM     21  N   UNL     1      44.236   5.322  11.055  0.00  0.00    +0.000 NA
ATOM     22  C   UNL     1      44.752   6.441  11.630  0.00  0.00    +0.000 A 
BRANCH  20  23
ATOM     23  C   UNL     1      43.991   2.892  11.052  0.00  0.00    +0.000 C 
ATOM     24  N   UNL     1      44.674   2.367   9.993  0.00  0.00    +0.000 N 
ATOM     25  O   UNL     1      42.964   2.376  11.478  0.00  0.00    +0.000 OA
ATOM     26  H   UNL     1      45.510   2.832   9.657  0.00  0.00    +0.000 HD
ATOM     27  H   UNL     1      44.320   1.542   9.532  0.00  0.00    +0.000 HD
ENDBRANCH  20  23
ENDBRANCH  16  17
ENDBRANCH  15  16
ENDBRANCH   2  15
TORSDOF 7
ENDMDL
MODEL 9
REMARK VINA RESULT:    -6.334      3.628      7.580
REMARK INTER + INTRA:         -10.072
REMARK INTER:                  -8.869
REMARK INTRA:                  -1.203
REMARK UNBOUND:                -1.147
REMARK  Name = 
REMARK  8 active torsions:
REMARK  status: ('A' for Active; 'I' for Inactive)
REMARK    1  A    between atoms: C_1  and  C_2
REMARK    2  A    between atoms: C_2  and  C_3
REMARK    3  A    between atoms: C_2  and  C_14
REMARK    4  A    between atoms: C_3  and  O_4
REMARK    5  A    between atoms: O_4  and  C_5
REMARK    6  A    between atoms: C_8  and  C_9
REMARK    7  A    between atoms: C_18  and  O_19
REMARK    8  A    between atoms: O_19  and  C_20
REMARK                            x       y       z     vdW  Elec       q    Type
REMARK                         _______ _______ _______ _____ _____    ______ ____
ROOT
ATOM      1  C   UNL     1      49.430   9.625  12.109  0.00  0.00    +0.000 C 
ATOM      2  C   UNL     1      49.001   8.165  11.952  0.00  0.00    +0.000 C 
ENDROOT
BRANCH   2   3
ATOM      3  C   UNL     1      47.482   8.045  11.907  0.00  0.00    +0.000 A 
ATOM      4  C   UNL     1      46.686   9.158  12.202  0.00  0.00    +0.000 A 
ATOM      5  C   UNL     1      45.296   9.051  12.197  0.00  0.00    +0.000 A 
ATOM      6  C   UNL     1      44.681   7.847  11.848  0.00  0.00    +0.000 A 
ATOM      7  C   UNL     1      45.452   6.752  11.461  0.00  0.00    +0.000 A 
ATOM      8  C   UNL     1      46.845   6.841  11.543  0.00  0.00    +0.000 A 
BRANCH   7   9
ATOM      9  O   UNL     1      44.962   5.572  10.954  0.00  0.00    +0.000 OA
BRANCH   9  10
ATOM     10  C   UNL     1      45.319   4.377  11.668  0.00  0.00    +0.000 C 
ATOM     11  C   UNL     1      44.647   3.176  11.030  0.00  0.00    +0.000 C 
ATOM     12  C   UNL     1      43.358   3.015  11.805  0.00  0.00    +0.000 C 
ATOM     13  O   UNL     1      43.571   3.551  13.110  0.00  0.00    +0.000 OA
ATOM     14  C   UNL     1      44.763   4.349  13.093  0.00  0.00    +0.000 C 
ENDBRANCH   9  10
ENDBRANCH   7   9
ENDBRANCH   2   3
BRANCH   2  15
ATOM     15  C   UNL     1      49.570   7.265  13.062  0.00  0.00    +0.000 C 
BRANCH  15  16
ATOM     16  O   UNL     1      49.172   7.703  14.368  0.00  0.00    +0.000 OA
BRANCH  16  17
ATOM     17  C   UNL     1      48.895   6.690  15.251  0.00  0.00    +0.000 A 
ATOM     18  C   UNL     1      49.507   6.504  16.490  0.00  0.00    +0.000 A 
ATOM     19  C   UNL     1      49.122   5.445  17.308  0.00  0.00    +0.000 A 
ATOM     20  C   UNL     1      48.124   4.596  16.857  0.00  0.00    +0.000 A 
ATOM     21  N   UNL     1      47.507   4.726  15.648  0.00  0.00    +0.000 NA
ATOM     22  C   UNL     1      47.916   5.771  14.880  0.00  0.00    +0.000 A 
BRANCH  20  23
ATOM     23  C   UNL     1      47.673   3.473  17.738  0.00  0.00    +0.000 C 
ATOM     24  N   UNL     1      48.403   3.284  18.876  0.00  0.00    +0.000 N 
ATOM     25  O   UNL     1      46.717   2.760  17.458  0.00  0.00    +0.000 OA
ATOM     26  H   UNL     1      49.198   3.883  19.065  0.00  0.00    +0.000 HD
ATOM     27  H   UNL     1      48.166   2.526  19.498  0.00  0.00    +0.000 HD
ENDBRANCH  20  23
ENDBRANCH  16  17
ENDBRANCH  15  16
ENDBRANCH   2  15
TORSDOF 7
ENDMDL
