MODEL 1
REMARK VINA RESULT:    -8.130      0.000      0.000
REMARK INTER + INTRA:         -11.215
REMARK INTER:                 -10.744
REMARK INTRA:                  -0.471
REMARK UNBOUND:                -0.471
REMARK  Name = 
REMARK  6 active torsions:
REMARK  status: ('A' for Active; 'I' for Inactive)
REMARK    1  A    between atoms: N_1  and  C_2
REMARK    2  A    between atoms: C_2  and  C_3
REMARK    3  A    between atoms: C_7  and  C_8
REMARK    4  A    between atoms: C_8  and  C_9
REMARK    5  A    between atoms: C_9  and  N_10
REMARK    6  A    between atoms: C_14  and  C_15
REMARK                            x       y       z     vdW  Elec       q    Type
REMARK                         _______ _______ _______ _____ _____    ______ ____
ROOT
ATOM      1  N   UNL     1      43.644   4.686   9.635  0.00  0.00    +0.000 N 
ATOM      2  C   UNL     1      44.595   3.854   9.053  0.00  0.00    +0.000 A 
ATOM      3  C   UNL     1      44.737   2.492   9.348  0.00  0.00    +0.000 A 
ATOM      4  N   UNL     1      45.630   1.657   8.753  0.00  0.00    +0.000 NA
ATOM      5  C   UNL     1      46.383   2.244   7.791  0.00  0.00    +0.000 A 
ATOM      6  C   UNL     1      46.255   3.588   7.468  0.00  0.00    +0.000 A 
ATOM      7  N   UNL     1      45.368   4.415   8.097  0.00  0.00    +0.000 NA
ATOM      8  H   UNL     1      43.877   5.647   9.399  0.00  0.00    +0.000 HD
ENDROOT
BRANCH   5   9
ATOM      9  C   UNL     1      47.357   1.388   7.062  0.00  0.00    +0.000 C 
ATOM     10  N   UNL     1      48.450   2.025   6.533  0.00  0.00    +0.000 N 
ATOM     11  O   UNL     1      47.201   0.182   6.943  0.00  0.00    +0.000 OA
ATOM     12  H   UNL     1      48.576   3.021   6.658  0.00  0.00    +0.000 HD
ATOM     13  H   UNL     1      49.149   1.478   6.051  0.00  0.00    +0.000 HD
ENDBRANCH   5   9
BRANCH   1  14
ATOM     14  C   UNL     1      43.232   4.419  11.010  0.00  0.00    +0.000 C 
BRANCH  14  15
ATOM     15  C   UNL     1      43.286   5.683  11.878  0.00  0.00    +0.000 C 
BRANCH  15  20
ATOM     16  C   UNL     1      46.665   5.459  13.674  0.00  0.00    +0.000 A 
ATOM     17  C   UNL     1      47.405   6.416  12.969  0.00  0.00    +0.000 A 
ATOM     18  C   UNL     1      46.807   7.161  11.952  0.00  0.00    +0.000 A 
ATOM     19  C   UNL     1      45.468   6.948  11.617  0.00  0.00    +0.000 A 
ATOM     20  C   UNL     1      44.709   5.988  12.297  0.00  0.00    +0.000 A 
ATOM     21  C   UNL     1      45.316   5.260  13.334  0.00  0.00    +0.000 A 
BRANCH  16  22
ATOM     22  C   UNL     1      47.305   4.662  14.782  0.00  0.00    +0.000 C 
BRANCH  22  23
ATOM     23  N   UNL     1      47.352   3.240  14.459  0.00  0.00    +0.000 NA
ATOM     24  H   UNL     1      46.527   2.996  13.915  0.00  0.00    +0.000 HD
ATOM     25  H   UNL     1      47.292   2.708  15.326  0.00  0.00    +0.000 HD
ENDBRANCH  22  23
ENDBRANCH  16  22
ENDBRANCH  15  20
ENDBRANCH  14  15
ENDBRANCH   1  14
TORSDOF 6
ENDMDL
MODEL 2
REMARK VINA RESULT:    -7.812      1.567      2.294
REMARK INTER + INTRA:         -10.795
REMARK INTER:                 -10.313
REMARK INTRA:                  -0.482
REMARK UNBOUND:                -0.471
REMARK  Name = 
REMARK  6 active torsions:
REMARK  status: ('A' for Active; 'I' for Inactive)
REMARK    1  A    between atoms: N_1  and  C_2
REMARK    2  A    between atoms: C_2  and  C_3
REMARK    3  A    between atoms: C_7  and  C_8
REMARK    4  A    between atoms: C_8  and  C_9
REMARK    5  A    between atoms: C_9  and  N_10
REMARK    6  A    between atoms: C_14  and  C_15
REMARK                            x       y       z     vdW  Elec       q    Type
REMARK                         _______ _______ _______ _____ _____    ______ ____
ROOT
ATOM      1  N   UNL     1      43.668   4.527  10.046  0.00  0.00    +0.000 N 
ATOM      2  C   UNL     1      44.625   3.830   9.316  0.00  0.00    +0.000 A 
ATOM      3  C   UNL     1      44.760   2.436   9.324  0.00  0.00    +0.000 A 
ATOM      4  N   UNL     1      45.661   1.738   8.581  0.00  0.00    +0.000 NA
ATOM      5  C   UNL     1      46.429   2.509   7.773  0.00  0.00    +0.000 A 
ATOM      6  C   UNL     1      46.308   3.891   7.735  0.00  0.00    +0.000 A 
ATOM      7  N   UNL     1      45.414   4.574   8.510  0.00  0.00    +0.000 NA
ATOM      8  H   UNL     1      43.906   5.515  10.018  0.00  0.00    +0.000 HD
ENDROOT
BRANCH   5   9
ATOM      9  C   UNL     1      47.412   1.818   6.896  0.00  0.00    +0.000 C 
ATOM     10  N   UNL     1      48.478   2.568   6.468  0.00  0.00    +0.000 N 
ATOM     11  O   UNL     1      47.286   0.646   6.575  0.00  0.00    +0.000 OA
ATOM     12  H   UNL     1      48.579   3.531   6.760  0.00  0.00    +0.000 HD
ATOM     13  H   UNL     1      49.182   2.132   5.890  0.00  0.00    +0.000 HD
ENDBRANCH   5   9
BRANCH   1  14
ATOM     14  C   UNL     1      43.235   3.982  11.329  0.00  0.00    +0.000 C 
BRANCH  14  15
ATOM     15  C   UNL     1      43.167   5.065  12.415  0.00  0.00    +0.000 C 
BRANCH  15  20
ATOM     16  C   UNL     1      45.931   7.697  12.772  0.00  0.00    +0.000 A 
ATOM     17  C   UNL     1      46.999   6.904  13.207  0.00  0.00    +0.000 A 
ATOM     18  C   UNL     1      46.844   5.523  13.340  0.00  0.00    +0.000 A 
ATOM     19  C   UNL     1      45.616   4.922  13.057  0.00  0.00    +0.000 A 
ATOM     20  C   UNL     1      44.527   5.694  12.633  0.00  0.00    +0.000 A 
ATOM     21  C   UNL     1      44.702   7.079  12.480  0.00  0.00    +0.000 A 
BRANCH  16  22
ATOM     22  C   UNL     1      46.099   9.187  12.614  0.00  0.00    +0.000 C 
BRANCH  22  23
ATOM     23  N   UNL     1      44.814   9.877  12.649  0.00  0.00    +0.000 NA
ATOM     24  H   UNL     1      44.919  10.749  13.164  0.00  0.00    +0.000 HD
ATOM     25  H   UNL     1      44.156   9.308  13.179  0.00  0.00    +0.000 HD
ENDBRANCH  22  23
ENDBRANCH  16  22
ENDBRANCH  15  20
ENDBRANCH  14  15
ENDBRANCH   1  14
TORSDOF 6
ENDMDL
MODEL 3
REMARK VINA RESULT:    -7.477      2.948      6.374
REMARK INTER + INTRA:         -10.352
REMARK INTER:                  -9.839
REMARK INTRA:                  -0.513
REMARK UNBOUND:                -0.471
REMARK  Name = 
REMARK  6 active torsions:
REMARK  status: ('A' for Active; 'I' for Inactive)
REMARK    1  A    between atoms: N_1  and  C_2
REMARK    2  A    between atoms: C_2  and  C_3
REMARK    3  A    between atoms: C_7  and  C_8
REMARK    4  A    between atoms: C_8  and  C_9
REMARK    5  A    between atoms: C_9  and  N_10
REMARK    6  A    between atoms: C_14  and  C_15
REMARK                            x       y       z     vdW  Elec       q    Type
REMARK                         _______ _______ _______ _____ _____    ______ ____
ROOT
ATOM      1  N   UNL     1      44.028   3.729  12.791  0.00  0.00    +0.000 N 
ATOM      2  C   UNL     1      45.165   4.494  13.031  0.00  0.00    +0.000 A 
ATOM      3  C   UNL     1      45.476   5.677  12.350  0.00  0.00    +0.000 A 
ATOM      4  N   UNL     1      46.558   6.459  12.606  0.00  0.00    +0.000 NA
ATOM      5  C   UNL     1      47.332   6.020  13.628  0.00  0.00    +0.000 A 
ATOM      6  C   UNL     1      47.041   4.857  14.329  0.00  0.00    +0.000 A 
ATOM      7  N   UNL     1      45.962   4.072  14.038  0.00  0.00    +0.000 NA
ATOM      8  H   UNL     1      44.138   2.839  13.271  0.00  0.00    +0.000 HD
ENDROOT
BRANCH   5   9
ATOM      9  C   UNL     1      48.515   6.841  13.998  0.00  0.00    +0.000 C 
ATOM     10  N   UNL     1      48.719   7.981  13.262  0.00  0.00    +0.000 N 
ATOM     11  O   UNL     1      49.264   6.529  14.911  0.00  0.00    +0.000 OA
ATOM     12  H   UNL     1      48.078   8.237  12.523  0.00  0.00    +0.000 HD
ATOM     13  H   UNL     1      49.497   8.581  13.496  0.00  0.00    +0.000 HD
ENDBRANCH   5   9
BRANCH   1  14
ATOM     14  C   UNL     1      43.483   3.694  11.438  0.00  0.00    +0.000 C 
BRANCH  14  15
ATOM     15  C   UNL     1      43.994   2.481  10.648  0.00  0.00    +0.000 C 
BRANCH  15  20
ATOM     16  C   UNL     1      46.431   2.335   7.693  0.00  0.00    +0.000 A 
ATOM     17  C   UNL     1      46.515   3.690   7.351  0.00  0.00    +0.000 A 
ATOM     18  C   UNL     1      45.829   4.650   8.096  0.00  0.00    +0.000 A 
ATOM     19  C   UNL     1      45.037   4.266   9.180  0.00  0.00    +0.000 A 
ATOM     20  C   UNL     1      44.924   2.916   9.535  0.00  0.00    +0.000 A 
ATOM     21  C   UNL     1      45.638   1.961   8.792  0.00  0.00    +0.000 A 
BRANCH  16  22
ATOM     22  C   UNL     1      47.183   1.297   6.898  0.00  0.00    +0.000 C 
BRANCH  22  23
ATOM     23  N   UNL     1      48.459   1.814   6.415  0.00  0.00    +0.000 NA
ATOM     24  H   UNL     1      48.626   1.460   5.475  0.00  0.00    +0.000 HD
ATOM     25  H   UNL     1      49.203   1.438   7.001  0.00  0.00    +0.000 HD
ENDBRANCH  22  23
ENDBRANCH  16  22
ENDBRANCH  15  20
ENDBRANCH  14  15
ENDBRANCH   1  14
TORSDOF 6
ENDMDL
MODEL 4
REMARK VINA RESULT:    -7.363      2.772      6.808
REMARK INTER + INTRA:         -10.201
REMARK INTER:                  -9.784
REMARK INTRA:                  -0.417
REMARK UNBOUND:                -0.471
REMARK  Name = 
REMARK  6 active torsions:
REMARK  status: ('A' for Active; 'I' for Inactive)
REMARK    1  A    between atoms: N_1  and  C_2
REMARK    2  A    between atoms: C_2  and  C_3
REMARK    3  A    between atoms: C_7  and  C_8
REMARK    4  A    between atoms: C_8  and  C_9
REMARK    5  A    between atoms: C_9  and  N_10
REMARK    6  A    between atoms: C_14  and  C_15
REMARK                            x       y       z     vdW  Elec       q    Type
REMARK                         _______ _______ _______ _____ _____    ______ ____
ROOT
ATOM      1  N   UNL     1      45.236   5.324  11.035  0.00  0.00    +0.000 N 
ATOM      2  C   UNL     1      45.785   5.004  12.272  0.00  0.00    +0.000 A 
ATOM      3  C   UNL     1      45.898   3.699  12.769  0.00  0.00    +0.000 A 
ATOM      4  N   UNL     1      46.474   3.367  13.956  0.00  0.00    +0.000 NA
ATOM      5  C   UNL     1      46.983   4.421  14.640  0.00  0.00    +0.000 A 
ATOM      6  C   UNL     1      46.897   5.723  14.165  0.00  0.00    +0.000 A 
ATOM      7  N   UNL     1      46.291   6.037  12.981  0.00  0.00    +0.000 NA
ATOM      8  H   UNL     1      45.097   6.331  11.001  0.00  0.00    +0.000 HD
ENDROOT
BRANCH   5   9
ATOM      9  C   UNL     1      47.667   4.138  15.929  0.00  0.00    +0.000 C 
ATOM     10  N   UNL     1      47.445   5.032  16.946  0.00  0.00    +0.000 N 
ATOM     11  O   UNL     1      48.384   3.161  16.085  0.00  0.00    +0.000 OA
ATOM     12  H   UNL     1      46.832   5.825  16.808  0.00  0.00    +0.000 HD
ATOM     13  H   UNL     1      47.871   4.866  17.846  0.00  0.00    +0.000 HD
ENDBRANCH   5   9
BRANCH   1  14
ATOM     14  C   UNL     1      44.164   4.485  10.508  0.00  0.00    +0.000 C 
BRANCH  14  15
ATOM     15  C   UNL     1      44.132   4.497   8.974  0.00  0.00    +0.000 C 
BRANCH  15  20
ATOM     16  C   UNL     1      46.651   2.569   6.822  0.00  0.00    +0.000 A 
ATOM     17  C   UNL     1      46.642   1.321   7.457  0.00  0.00    +0.000 A 
ATOM     18  C   UNL     1      45.796   1.087   8.542  0.00  0.00    +0.000 A 
ATOM     19  C   UNL     1      44.962   2.102   9.016  0.00  0.00    +0.000 A 
ATOM     20  C   UNL     1      44.962   3.364   8.408  0.00  0.00    +0.000 A 
ATOM     21  C   UNL     1      45.800   3.580   7.302  0.00  0.00    +0.000 A 
BRANCH  16  22
ATOM     22  C   UNL     1      47.554   2.820   5.641  0.00  0.00    +0.000 C 
BRANCH  22  23
ATOM     23  N   UNL     1      48.577   1.787   5.520  0.00  0.00    +0.000 NA
ATOM     24  H   UNL     1      48.130   0.873   5.554  0.00  0.00    +0.000 HD
ATOM     25  H   UNL     1      49.187   1.838   6.334  0.00  0.00    +0.000 HD
ENDBRANCH  22  23
ENDBRANCH  16  22
ENDBRANCH  15  20
ENDBRANCH  14  15
ENDBRANCH   1  14
TORSDOF 6
ENDMDL
MODEL 5
REMARK VINA RESULT:    -6.815      3.237      7.015
REMARK INTER + INTRA:          -9.477
REMARK INTER:                  -9.431
REMARK INTRA:                  -0.046
REMARK UNBOUND:                -0.471
REMARK  Name = 
REMARK  6 active torsions:
REMARK  status: ('A' for Active; 'I' for Inactive)
REMARK    1  A    between atoms: N_1  and  C_2
REMARK    2  A    between atoms: C_2  and  C_3
REMARK    3  A    between atoms: C_7  and  C_8
REMARK    4  A    between atoms: C_8  and  C_9
REMARK    5  A    between atoms: C_9  and  N_10
REMARK    6  A    between atoms: C_14  and  C_15
REMARK                            x       y       z     vdW  Elec       q    Type
REMARK                         _______ _______ _______ _____ _____    ______ ____
ROOT
ATOM      1  N   UNL     1      44.529   4.112  11.695  0.00  0.00    +0.000 N 
ATOM      2  C   UNL     1      45.123   5.321  12.039  0.00  0.00    +0.000 A 
ATOM      3  C   UNL     1      44.575   6.578  11.751  0.00  0.00    +0.000 A 
ATOM      4  N   UNL     1      45.121   7.767  12.121  0.00  0.00    +0.000 NA
ATOM      5  C   UNL     1      46.260   7.652  12.848  0.00  0.00    +0.000 A 
ATOM      6  C   UNL     1      46.819   6.420  13.158  0.00  0.00    +0.000 A 
ATOM      7  N   UNL     1      46.267   5.238  12.754  0.00  0.00    +0.000 NA
ATOM      8  H   UNL     1      45.210   3.371  11.841  0.00  0.00    +0.000 HD
ENDROOT
BRANCH   5   9
ATOM      9  C   UNL     1      46.899   8.906  13.328  0.00  0.00    +0.000 C 
ATOM     10  N   UNL     1      47.224   8.953  14.660  0.00  0.00    +0.000 N 
ATOM     11  O   UNL     1      47.130   9.845  12.581  0.00  0.00    +0.000 OA
ATOM     12  H   UNL     1      47.045   8.159  15.260  0.00  0.00    +0.000 HD
ATOM     13  H   UNL     1      47.681   9.777  15.023  0.00  0.00    +0.000 HD
ENDBRANCH   5   9
BRANCH   1  14
ATOM     14  C   UNL     1      43.727   4.049  10.476  0.00  0.00    +0.000 C 
BRANCH  14  15
ATOM     15  C   UNL     1      44.512   4.538   9.251  0.00  0.00    +0.000 C 
BRANCH  15  20
ATOM     16  C   UNL     1      46.660   2.556   6.771  0.00  0.00    +0.000 A 
ATOM     17  C   UNL     1      46.597   1.275   7.329  0.00  0.00    +0.000 A 
ATOM     18  C   UNL     1      45.830   1.040   8.471  0.00  0.00    +0.000 A 
ATOM     19  C   UNL     1      45.131   2.085   9.078  0.00  0.00    +0.000 A 
ATOM     20  C   UNL     1      45.189   3.380   8.547  0.00  0.00    +0.000 A 
ATOM     21  C   UNL     1      45.945   3.600   7.384  0.00  0.00    +0.000 A 
BRANCH  16  22
ATOM     22  C   UNL     1      47.477   2.811   5.529  0.00  0.00    +0.000 C 
BRANCH  22  23
ATOM     23  N   UNL     1      48.539   1.823   5.376  0.00  0.00    +0.000 NA
ATOM     24  H   UNL     1      48.237   0.943   5.790  0.00  0.00    +0.000 HD
ATOM     25  H   UNL     1      49.348   2.130   5.915  0.00  0.00    +0.000 HD
ENDBRANCH  22  23
ENDBRANCH  16  22
ENDBRANCH  15  20
ENDBRANCH  14  15
ENDBRANCH   1  14
TORSDOF 6
ENDMDL
MODEL 6
REMARK VINA RESULT:    -6.799      2.842      6.772
REMARK INTER + INTRA:          -9.457
REMARK INTER:                  -8.987
REMARK INTRA:                  -0.470
REMARK UNBOUND:                -0.471
REMARK  Name = 
REMARK  6 active torsions:
REMARK  status: ('A' for Active; 'I' for Inactive)
REMARK    1  A    between atoms: N_1  and  C_2
REMARK    2  A    between atoms: C_2  and  C_3
REMARK    3  A    between atoms: C_7  and  C_8
REMARK    4  A    between atoms: C_8  and  C_9
REMARK    5  A    between atoms: C_9  and  N_10
REMARK    6  A    between atoms: C_14  and  C_15
REMARK                            x       y       z     vdW  Elec       q    Type
REMARK                         _______ _______ _______ _____ _____    ______ ____
ROOT
ATOM      1  N   UNL     1      46.294   6.408  13.262  0.00  0.00    +0.000 N 
ATOM      2  C   UNL     1      46.830   5.429  14.092  0.00  0.00    +0.000 A 
ATOM      3  C   UNL     1      46.851   4.062  13.786  0.00  0.00    +0.000 A 
ATOM      4  N   UNL     1      47.413   3.100  14.566  0.00  0.00    +0.000 NA
ATOM      5  C   UNL     1      48.006   3.573  15.690  0.00  0.00    +0.000 A 
ATOM      6  C   UNL     1      48.011   4.923  16.011  0.00  0.00    +0.000 A 
ATOM      7  N   UNL     1      47.419   5.870  15.226  0.00  0.00    +0.000 NA
ATOM      8  H   UNL     1      46.229   7.273  13.792  0.00  0.00    +0.000 HD
ENDROOT
BRANCH   5   9
ATOM      9  C   UNL     1      48.680   2.589  16.577  0.00  0.00    +0.000 C 
ATOM     10  N   UNL     1      48.556   2.800  17.927  0.00  0.00    +0.000 N 
ATOM     11  O   UNL     1      49.307   1.637  16.136  0.00  0.00    +0.000 OA
ATOM     12  H   UNL     1      48.016   3.581  18.277  0.00  0.00    +0.000 HD
ATOM     13  H   UNL     1      48.978   2.143  18.566  0.00  0.00    +0.000 HD
ENDBRANCH   5   9
BRANCH   1  14
ATOM     14  C   UNL     1      45.157   6.059  12.415  0.00  0.00    +0.000 C 
BRANCH  14  15
ATOM     15  C   UNL     1      45.471   6.261  10.927  0.00  0.00    +0.000 C 
BRANCH  15  20
ATOM     16  C   UNL     1      45.638   3.608   8.164  0.00  0.00    +0.000 A 
ATOM     17  C   UNL     1      44.922   2.562   8.757  0.00  0.00    +0.000 A 
ATOM     18  C   UNL     1      44.349   2.725  10.019  0.00  0.00    +0.000 A 
ATOM     19  C   UNL     1      44.499   3.929  10.710  0.00  0.00    +0.000 A 
ATOM     20  C   UNL     1      45.223   4.987  10.146  0.00  0.00    +0.000 A 
ATOM     21  C   UNL     1      45.775   4.819   8.866  0.00  0.00    +0.000 A 
BRANCH  16  22
ATOM     22  C   UNL     1      46.248   3.439   6.795  0.00  0.00    +0.000 C 
BRANCH  22  23
ATOM     23  N   UNL     1      47.679   3.170   6.877  0.00  0.00    +0.000 NA
ATOM     24  H   UNL     1      48.005   2.831   5.974  0.00  0.00    +0.000 HD
ATOM     25  H   UNL     1      47.828   2.410   7.539  0.00  0.00    +0.000 HD
ENDBRANCH  22  23
ENDBRANCH  16  22
ENDBRANCH  15  20
ENDBRANCH  14  15
ENDBRANCH   1  14
TORSDOF 6
ENDMDL
MODEL 7
REMARK VINA RESULT:    -6.757      2.230      3.203
REMARK INTER + INTRA:          -9.400
REMARK INTER:                  -9.037
REMARK INTRA:                  -0.364
REMARK UNBOUND:                -0.471
REMARK  Name = 
REMARK  6 active torsions:
REMARK  status: ('A' for Active; 'I' for Inactive)
REMARK    1  A    between atoms: N_1  and  C_2
REMARK    2  A    between atoms: C_2  and  C_3
REMARK    3  A    between atoms: C_7  and  C_8
REMARK    4  A    between atoms: C_8  and  C_9
REMARK    5  A    between atoms: C_9  and  N_10
REMARK    6  A    between atoms: C_14  and  C_15
REMARK                            x       y       z     vdW  Elec       q    Type
REMARK                         _______ _______ _______ _____ _____    ______ ____
ROOT
ATOM      1  N   UNL     1      43.970   5.015   9.564  0.00  0.00    +0.000 N 
ATOM      2  C   UNL     1      44.787   4.005   9.065  0.00  0.00    +0.000 A 
ATOM      3  C   UNL     1      44.762   2.679   9.513  0.00  0.00    +0.000 A 
ATOM      4  N   UNL     1      45.521   1.672   9.003  0.00  0.00    +0.000 NA
ATOM      5  C   UNL     1      46.312   2.043   7.967  0.00  0.00    +0.000 A 
ATOM      6  C   UNL     1      46.348   3.348   7.494  0.00  0.00    +0.000 A 
ATOM      7  N   UNL     1      45.595   4.350   8.038  0.00  0.00    +0.000 NA
ATOM      8  H   UNL     1      44.317   5.904   9.215  0.00  0.00    +0.000 HD
ENDROOT
BRANCH   5   9
ATOM      9  C   UNL     1      47.145   0.991   7.326  0.00  0.00    +0.000 C 
ATOM     10  N   UNL     1      46.761  -0.307   7.546  0.00  0.00    +0.000 N 
ATOM     11  O   UNL     1      48.114   1.261   6.633  0.00  0.00    +0.000 OA
ATOM     12  H   UNL     1      45.944  -0.514   8.105  0.00  0.00    +0.000 HD
ATOM     13  H   UNL     1      47.284  -1.053   7.110  0.00  0.00    +0.000 HD
ENDBRANCH   5   9
BRANCH   1  14
ATOM     14  C   UNL     1      43.570   4.960  10.967  0.00  0.00    +0.000 C 
BRANCH  14  15
ATOM     15  C   UNL     1      43.060   6.318  11.468  0.00  0.00    +0.000 C 
BRANCH  15  20
ATOM     16  C   UNL     1      45.275   9.431  11.777  0.00  0.00    +0.000 A 
ATOM     17  C   UNL     1      46.256   8.972  12.663  0.00  0.00    +0.000 A 
ATOM     18  C   UNL     1      46.232   7.655  13.122  0.00  0.00    +0.000 A 
ATOM     19  C   UNL     1      45.218   6.786  12.715  0.00  0.00    +0.000 A 
ATOM     20  C   UNL     1      44.216   7.223  11.840  0.00  0.00    +0.000 A 
ATOM     21  C   UNL     1      44.264   8.544  11.366  0.00  0.00    +0.000 A 
BRANCH  16  22
ATOM     22  C   UNL     1      45.306  10.850  11.268  0.00  0.00    +0.000 C 
BRANCH  22  23
ATOM     23  N   UNL     1      44.287  11.672  11.913  0.00  0.00    +0.000 NA
ATOM     24  H   UNL     1      43.367  11.347  11.623  0.00  0.00    +0.000 HD
ATOM     25  H   UNL     1      44.376  12.627  11.570  0.00  0.00    +0.000 HD
ENDBRANCH  22  23
ENDBRANCH  16  22
ENDBRANCH  15  20
ENDBRANCH  14  15
ENDBRANCH   1  14
TORSDOF 6
ENDMDL
MODEL 8
REMARK VINA RESULT:    -6.656      3.880      6.520
REMARK INTER + INTRA:          -9.267
REMARK INTER:                  -8.945
REMARK INTRA:                  -0.321
REMARK UNBOUND:                -0.471
REMARK  Name = 
REMARK  6 active torsions:
REMARK  status: ('A' for Active; 'I' for Inactive)
REMARK    1  A    between atoms: N_1  and  C_2
REMARK    2  A    between atoms: C_2  and  C_3
REMARK    3  A    between atoms: C_7  and  C_8
REMARK    4  A    between atoms: C_8  and  C_9
REMARK    5  A    between atoms: C_9  and  N_10
REMARK    6  A    between atoms: C_14  and  C_15
REMARK                            x       y       z     vdW  Elec       q    Type
REMARK                         _______ _______ _______ _____ _____    ______ ____
ROOT
ATOM      1  N   UNL     1      47.201   3.557  14.691  0.00  0.00    +0.000 N 
ATOM      2  C   UNL     1      46.260   4.007  13.771  0.00  0.00    +0.000 A 
ATOM      3  C   UNL     1      45.844   5.340  13.658  0.00  0.00    +0.000 A 
ATOM      4  N   UNL     1      44.959   5.802  12.734  0.00  0.00    +0.000 NA
ATOM      5  C   UNL     1      44.512   4.856  11.872  0.00  0.00    +0.000 A 
ATOM      6  C   UNL     1      44.917   3.531  11.953  0.00  0.00    +0.000 A 
ATOM      7  N   UNL     1      45.787   3.083  12.905  0.00  0.00    +0.000 NA
ATOM      8  H   UNL     1      47.178   2.540  14.696  0.00  0.00    +0.000 HD
ENDROOT
BRANCH   5   9
ATOM      9  C   UNL     1      43.572   5.289  10.804  0.00  0.00    +0.000 C 
ATOM     10  N   UNL     1      42.814   6.400  11.073  0.00  0.00    +0.000 N 
ATOM     11  O   UNL     1      43.480   4.696   9.740  0.00  0.00    +0.000 OA
ATOM     12  H   UNL     1      42.917   6.892  11.950  0.00  0.00    +0.000 HD
ATOM     13  H   UNL     1      42.180   6.742  10.366  0.00  0.00    +0.000 HD
ENDBRANCH   5   9
BRANCH   1  14
ATOM     14  C   UNL     1      47.291   4.229  15.983  0.00  0.00    +0.000 C 
BRANCH  14  15
ATOM     15  C   UNL     1      47.782   3.281  17.086  0.00  0.00    +0.000 C 
BRANCH  15  20
ATOM     16  C   UNL     1      51.509   2.553  17.609  0.00  0.00    +0.000 A 
ATOM     17  C   UNL     1      52.027   3.852  17.674  0.00  0.00    +0.000 A 
ATOM     18  C   UNL     1      51.176   4.955  17.597  0.00  0.00    +0.000 A 
ATOM     19  C   UNL     1      49.801   4.774  17.437  0.00  0.00    +0.000 A 
ATOM     20  C   UNL     1      49.258   3.486  17.354  0.00  0.00    +0.000 A 
ATOM     21  C   UNL     1      50.122   2.383  17.457  0.00  0.00    +0.000 A 
BRANCH  16  22
ATOM     22  C   UNL     1      52.425   1.359  17.706  0.00  0.00    +0.000 C 
BRANCH  22  23
ATOM     23  N   UNL     1      51.696   0.157  18.097  0.00  0.00    +0.000 NA
ATOM     24  H   UNL     1      51.899  -0.052  19.072  0.00  0.00    +0.000 HD
ATOM     25  H   UNL     1      52.051  -0.629  17.554  0.00  0.00    +0.000 HD
ENDBRANCH  22  23
ENDBRANCH  16  22
ENDBRANCH  15  20
ENDBRANCH  14  15
ENDBRANCH   1  14
TORSDOF 6
ENDMDL
MODEL 9
REMARK VINA RESULT:    -6.302      3.602      5.784
REMARK INTER + INTRA:          -8.799
REMARK INTER:                  -8.278
REMARK INTRA:                  -0.521
REMARK UNBOUND:                -0.471
REMARK  Name = 
REMARK  6 active torsions:
REMARK  status: ('A' for Active; 'I' for Inactive)
REMARK    1  A    between atoms: N_1  and  C_2
REMARK    2  A    between atoms: C_2  and  C_3
REMARK    3  A    between atoms: C_7  and  C_8
REMARK    4  A    between atoms: C_8  and  C_9
REMARK    5  A    between atoms: C_9  and  N_10
REMARK    6  A    between atoms: C_14  and  C_15
REMARK                            x       y       z     vdW  Elec       q    Type
REMARK                         _______ _______ _______ _____ _____    ______ ____
ROOT
ATOM      1  N   UNL     1      47.234   7.257  13.831  0.00  0.00    +0.000 N 
ATOM      2  C   UNL     1      46.482   6.230  13.270  0.00  0.00    +0.000 A 
ATOM      3  C   UNL     1      46.631   4.876  13.594  0.00  0.00    +0.000 A 
ATOM      4  N   UNL     1      45.872   3.868  13.089  0.00  0.00    +0.000 NA
ATOM      5  C   UNL     1      44.898   4.278  12.240  0.00  0.00    +0.000 A 
ATOM      6  C   UNL     1      44.719   5.614  11.910  0.00  0.00    +0.000 A 
ATOM      7  N   UNL     1      45.510   6.609  12.411  0.00  0.00    +0.000 NA
ATOM      8  H   UNL     1      47.068   8.103  13.292  0.00  0.00    +0.000 HD
ENDROOT
BRANCH   5   9
ATOM      9  C   UNL     1      43.996   3.239  11.675  0.00  0.00    +0.000 C 
ATOM     10  N   UNL     1      43.674   2.195  12.504  0.00  0.00    +0.000 N 
ATOM     11  O   UNL     1      43.556   3.309  10.537  0.00  0.00    +0.000 OA
ATOM     12  H   UNL     1      44.029   2.162  13.451  0.00  0.00    +0.000 HD
ATOM     13  H   UNL     1      43.045   1.480  12.169  0.00  0.00    +0.000 HD
ENDBRANCH   5   9
BRANCH   1  14
ATOM     14  C   UNL     1      48.612   6.978  14.224  0.00  0.00    +0.000 C 
BRANCH  14  15
ATOM     15  C   UNL     1      48.871   7.339  15.693  0.00  0.00    +0.000 C 
BRANCH  15  20
ATOM     16  C   UNL     1      48.949   3.926  17.438  0.00  0.00    +0.000 A 
ATOM     17  C   UNL     1      50.312   3.812  17.736  0.00  0.00    +0.000 A 
ATOM     18  C   UNL     1      51.193   4.847  17.420  0.00  0.00    +0.000 A 
ATOM     19  C   UNL     1      50.726   6.000  16.786  0.00  0.00    +0.000 A 
ATOM     20  C   UNL     1      49.370   6.134  16.464  0.00  0.00    +0.000 A 
ATOM     21  C   UNL     1      48.488   5.096  16.809  0.00  0.00    +0.000 A 
BRANCH  16  22
ATOM     22  C   UNL     1      47.992   2.816  17.791  0.00  0.00    +0.000 C 
BRANCH  22  23
ATOM     23  N   UNL     1      46.614   3.179  17.481  0.00  0.00    +0.000 NA
ATOM     24  H   UNL     1      46.107   2.344  17.194  0.00  0.00    +0.000 HD
ATOM     25  H   UNL     1      46.616   3.805  16.677  0.00  0.00    +0.000 HD
ENDBRANCH  22  23
ENDBRANCH  16  22
ENDBRANCH  15  20
ENDBRANCH  14  15
ENDBRANCH   1  14
TORSDOF 6
ENDMDL
