MODEL 1
REMARK VINA RESULT:    -7.569      0.000      0.000
REMARK INTER + INTRA:         -13.566
REMARK INTER:                 -11.994
REMARK INTRA:                  -1.572
REMARK UNBOUND:                -1.572
REMARK  Name = 
REMARK  11 active torsions:
REMARK  status: ('A' for Active; 'I' for Inactive)
REMARK    1  A    between atoms: N_1  and  C_2
REMARK    2  A    between atoms: C_2  and  C_3
REMARK    3  A    between atoms: C_2  and  C_11
REMARK    4  A    between atoms: C_3  and  N_4
REMARK    5  A    between atoms: N_4  and  C_5
REMARK    6  A    between atoms: C_14  and  C_15
REMARK    7  A    between atoms: C_15  and  N_16
REMARK    8  A    between atoms: N_16  and  C_17
REMARK    9  A    between atoms: C_17  and  C_18
REMARK   10  A    between atoms: C_18  and  O_19
REMARK   11  A    between atoms: C_20  and  C_22
REMARK                            x       y       z     vdW  Elec       q    Type
REMARK                         _______ _______ _______ _____ _____    ______ ____
ROOT
ATOM      1  C   UNL     1      45.239   5.289  12.714  0.00  0.00    +0.000 A 
ATOM      2  C   UNL     1      46.079   4.849  13.757  0.00  0.00    +0.000 A 
ATOM      3  C   UNL     1      47.355   5.374  13.955  0.00  0.00    +0.000 A 
ATOM      4  C   UNL     1      47.794   6.482  13.243  0.00  0.00    +0.000 A 
ATOM      5  C   UNL     1      47.032   6.854  12.113  0.00  0.00    +0.000 A 
ATOM      6  C   UNL     1      45.794   6.224  11.825  0.00  0.00    +0.000 A 
ENDROOT
BRANCH   1   7
ATOM      7  C   UNL     1      43.822   4.706  12.583  0.00  0.00    +0.000 C 
BRANCH   7   8
ATOM      8  N   UNL     1      42.836   5.594  13.253  0.00  0.00    +0.000 NA
ATOM      9  H   UNL     1      43.241   6.509  13.451  0.00  0.00    +0.000 HD
ATOM     10  H   UNL     1      42.571   5.179  14.135  0.00  0.00    +0.000 HD
ENDBRANCH   7   8
BRANCH   7  11
ATOM     11  C   UNL     1      43.345   4.471  11.099  0.00  0.00    +0.000 C 
BRANCH  11  12
ATOM     12  N   UNL     1      43.658   3.141  10.566  0.00  0.00    +0.000 NA
ATOM     13  H   UNL     1      42.869   2.819  10.006  0.00  0.00    +0.000 HD
BRANCH  12  14
ATOM     14  C   UNL     1      44.892   3.022   9.775  0.00  0.00    +0.000 C 
ATOM     15  C   UNL     1      44.954   4.246   8.835  0.00  0.00    +0.000 C 
ATOM     16  C   UNL     1      46.184   4.223   7.929  0.00  0.00    +0.000 C 
ATOM     17  C   UNL     1      46.271   2.925   7.137  0.00  0.00    +0.000 C 
ATOM     18  C   UNL     1      46.266   1.720   8.070  0.00  0.00    +0.000 C 
ATOM     19  C   UNL     1      45.027   1.715   8.970  0.00  0.00    +0.000 C 
ENDBRANCH  12  14
ENDBRANCH  11  12
ENDBRANCH   7  11
ENDBRANCH   1   7
BRANCH   4  20
ATOM     20  C   UNL     1      48.902   7.340  13.873  0.00  0.00    +0.000 C 
BRANCH  20  21
ATOM     21  N   UNL     1      48.790   7.712  15.294  0.00  0.00    +0.000 N 
ATOM     22  C   UNL     1      49.644   6.993  16.150  0.00  0.00    +0.000 C 
ATOM     23  O   UNL     1      50.385   6.115  15.746  0.00  0.00    +0.000 OA
BRANCH  22  24
ATOM     24  C   UNL     1      49.604   7.304  17.593  0.00  0.00    +0.000 A 
ATOM     25  C   UNL     1      50.332   8.304  18.211  0.00  0.00    +0.000 A 
ATOM     26  S   UNL     1      50.021   8.474  19.871  0.00  0.00    +0.000 S 
ATOM     27  C   UNL     1      48.798   7.304  19.793  0.00  0.00    +0.000 A 
ATOM     28  N   UNL     1      48.014   7.057  20.874  0.00  0.00    +0.000 NA
ATOM     29  C   UNL     1      47.094   6.187  20.665  0.00  0.00    +0.000 A 
ATOM     30  N   UNL     1      46.918   5.492  19.496  0.00  0.00    +0.000 N 
ATOM     31  C   UNL     1      47.748   5.629  18.401  0.00  0.00    +0.000 A 
ATOM     32  O   UNL     1      47.672   4.860  17.460  0.00  0.00    +0.000 OA
ATOM     33  C   UNL     1      48.716   6.702  18.551  0.00  0.00    +0.000 A 
ATOM     34  H   UNL     1      46.213   4.772  19.417  0.00  0.00    +0.000 HD
ENDBRANCH  22  24
BRANCH  21  35
ATOM     35  C   UNL     1      48.105   8.993  15.649  0.00  0.00    +0.000 C 
BRANCH  35  36
ATOM     36  C   UNL     1      48.889  10.306  15.437  0.00  0.00    +0.000 C 
BRANCH  36  37
ATOM     37  O   UNL     1      48.467  10.917  14.227  0.00  0.00    +0.000 OA
ATOM     38  H   UNL     1      48.898  10.434  13.502  0.00  0.00    +0.000 HD
ENDBRANCH  36  37
ENDBRANCH  35  36
ENDBRANCH  21  35
ENDBRANCH  20  21
ENDBRANCH   4  20
TORSDOF 11
ENDMDL
MODEL 2
REMARK VINA RESULT:    -7.437      1.832      2.449
REMARK INTER + INTRA:         -13.356
REMARK INTER:                 -12.236
REMARK INTRA:                  -1.119
REMARK UNBOUND:                -1.572
REMARK  Name = 
REMARK  11 active torsions:
REMARK  status: ('A' for Active; 'I' for Inactive)
REMARK    1  A    between atoms: N_1  and  C_2
REMARK    2  A    between atoms: C_2  and  C_3
REMARK    3  A    between atoms: C_2  and  C_11
REMARK    4  A    between atoms: C_3  and  N_4
REMARK    5  A    between atoms: N_4  and  C_5
REMARK    6  A    between atoms: C_14  and  C_15
REMARK    7  A    between atoms: C_15  and  N_16
REMARK    8  A    between atoms: N_16  and  C_17
REMARK    9  A    between atoms: C_17  and  C_18
REMARK   10  A    between atoms: C_18  and  O_19
REMARK   11  A    between atoms: C_20  and  C_22
REMARK                            x       y       z     vdW  Elec       q    Type
REMARK                         _______ _______ _______ _____ _____    ______ ____
ROOT
ATOM      1  C   UNL     1      44.713   4.228  11.459  0.00  0.00    +0.000 A 
ATOM      2  C   UNL     1      45.485   4.932  10.512  0.00  0.00    +0.000 A 
ATOM      3  C   UNL     1      46.025   6.189  10.783  0.00  0.00    +0.000 A 
ATOM      4  C   UNL     1      45.979   6.731  12.061  0.00  0.00    +0.000 A 
ATOM      5  C   UNL     1      45.106   6.111  12.982  0.00  0.00    +0.000 A 
ATOM      6  C   UNL     1      44.440   4.900  12.661  0.00  0.00    +0.000 A 
ENDROOT
BRANCH   1   7
ATOM      7  C   UNL     1      44.190   2.822  11.116  0.00  0.00    +0.000 C 
BRANCH   7   8
ATOM      8  N   UNL     1      42.819   2.637  11.659  0.00  0.00    +0.000 NA
ATOM      9  H   UNL     1      42.127   3.117  11.082  0.00  0.00    +0.000 HD
ATOM     10  H   UNL     1      42.777   3.040  12.585  0.00  0.00    +0.000 HD
ENDBRANCH   7   8
BRANCH   7  11
ATOM     11  C   UNL     1      44.160   2.491   9.576  0.00  0.00    +0.000 C 
BRANCH  11  12
ATOM     12  N   UNL     1      45.181   1.533   9.142  0.00  0.00    +0.000 NA
ATOM     13  H   UNL     1      44.720   0.753   8.673  0.00  0.00    +0.000 HD
BRANCH  12  14
ATOM     14  C   UNL     1      46.248   2.053   8.276  0.00  0.00    +0.000 C 
ATOM     15  C   UNL     1      45.624   3.154   7.390  0.00  0.00    +0.000 C 
ATOM     16  C   UNL     1      46.632   3.757   6.412  0.00  0.00    +0.000 C 
ATOM     17  C   UNL     1      47.295   2.684   5.560  0.00  0.00    +0.000 C 
ATOM     18  C   UNL     1      47.959   1.629   6.436  0.00  0.00    +0.000 C 
ATOM     19  C   UNL     1      46.957   0.996   7.406  0.00  0.00    +0.000 C 
ENDBRANCH  12  14
ENDBRANCH  11  12
ENDBRANCH   7  11
ENDBRANCH   1   7
BRANCH   4  20
ATOM     20  C   UNL     1      47.041   7.778  12.428  0.00  0.00    +0.000 C 
BRANCH  20  21
ATOM     21  N   UNL     1      47.664   7.719  13.762  0.00  0.00    +0.000 N 
ATOM     22  C   UNL     1      48.456   6.577  13.981  0.00  0.00    +0.000 C 
ATOM     23  O   UNL     1      48.583   5.700  13.145  0.00  0.00    +0.000 OA
BRANCH  22  24
ATOM     24  C   UNL     1      49.126   6.436  15.289  0.00  0.00    +0.000 A 
ATOM     25  C   UNL     1      50.248   7.139  15.688  0.00  0.00    +0.000 A 
ATOM     26  S   UNL     1      50.746   6.819  17.280  0.00  0.00    +0.000 S 
ATOM     27  C   UNL     1      49.395   5.830  17.537  0.00  0.00    +0.000 A 
ATOM     28  N   UNL     1      49.136   5.329  18.772  0.00  0.00    +0.000 NA
ATOM     29  C   UNL     1      48.056   4.640  18.841  0.00  0.00    +0.000 A 
ATOM     30  N   UNL     1      47.237   4.350  17.780  0.00  0.00    +0.000 N 
ATOM     31  C   UNL     1      47.506   4.747  16.485  0.00  0.00    +0.000 A 
ATOM     32  O   UNL     1      46.859   4.310  15.551  0.00  0.00    +0.000 OA
ATOM     33  C   UNL     1      48.645   5.643  16.390  0.00  0.00    +0.000 A 
ATOM     34  H   UNL     1      46.433   3.747  17.889  0.00  0.00    +0.000 HD
ENDBRANCH  22  24
BRANCH  21  35
ATOM     35  C   UNL     1      47.714   8.965  14.587  0.00  0.00    +0.000 C 
BRANCH  35  36
ATOM     36  C   UNL     1      48.538  10.151  14.043  0.00  0.00    +0.000 C 
BRANCH  36  37
ATOM     37  O   UNL     1      49.701   9.659  13.394  0.00  0.00    +0.000 OA
ATOM     38  H   UNL     1      49.403   9.208  12.586  0.00  0.00    +0.000 HD
ENDBRANCH  36  37
ENDBRANCH  35  36
ENDBRANCH  21  35
ENDBRANCH  20  21
ENDBRANCH   4  20
TORSDOF 11
ENDMDL
MODEL 3
REMARK VINA RESULT:    -7.320      3.260      5.120
REMARK INTER + INTRA:         -13.171
REMARK INTER:                 -11.469
REMARK INTRA:                  -1.702
REMARK UNBOUND:                -1.572
REMARK  Name = 
REMARK  11 active torsions:
REMARK  status: ('A' for Active; 'I' for Inactive)
REMARK    1  A    between atoms: N_1  and  C_2
REMARK    2  A    between atoms: C_2  and  C_3
REMARK    3  A    between atoms: C_2  and  C_11
REMARK    4  A    between atoms: C_3  and  N_4
REMARK    5  A    between atoms: N_4  and  C_5
REMARK    6  A    between atoms: C_14  and  C_15
REMARK    7  A    between atoms: C_15  and  N_16
REMARK    8  A    between atoms: N_16  and  C_17
REMARK    9  A    between atoms: C_17  and  C_18
REMARK   10  A    between atoms: C_18  and  O_19
REMARK   11  A    between atoms: C_20  and  C_22
REMARK                            x       y       z     vdW  Elec       q    Type
REMARK                         _______ _______ _______ _____ _____    ______ ____
ROOT
ATOM      1  C   UNL     1      45.351   4.388  11.948  0.00  0.00    +0.000 A 
ATOM      2  C   UNL     1      46.055   4.609  13.148  0.00  0.00    +0.000 A 
ATOM      3  C   UNL     1      46.662   5.830  13.438  0.00  0.00    +0.000 A 
ATOM      4  C   UNL     1      46.451   6.946  12.639  0.00  0.00    +0.000 A 
ATOM      5  C   UNL     1      45.864   6.719  11.374  0.00  0.00    +0.000 A 
ATOM      6  C   UNL     1      45.369   5.438  11.015  0.00  0.00    +0.000 A 
ENDROOT
BRANCH   1   7
ATOM      7  C   UNL     1      44.659   3.035  11.712  0.00  0.00    +0.000 C 
BRANCH   7   8
ATOM      8  N   UNL     1      43.589   2.821  12.720  0.00  0.00    +0.000 NA
ATOM      9  H   UNL     1      43.166   3.705  13.001  0.00  0.00    +0.000 HD
ATOM     10  H   UNL     1      43.997   2.402  13.545  0.00  0.00    +0.000 HD
ENDBRANCH   7   8
BRANCH   7  11
ATOM     11  C   UNL     1      44.027   2.862  10.278  0.00  0.00    +0.000 C 
BRANCH  11  12
ATOM     12  N   UNL     1      44.641   1.806   9.468  0.00  0.00    +0.000 NA
ATOM     13  H   UNL     1      43.939   1.434   8.829  0.00  0.00    +0.000 HD
BRANCH  12  14
ATOM     14  C   UNL     1      45.843   2.174   8.706  0.00  0.00    +0.000 C 
ATOM     15  C   UNL     1      45.468   3.376   7.812  0.00  0.00    +0.000 C 
ATOM     16  C   UNL     1      46.633   3.837   6.936  0.00  0.00    +0.000 C 
ATOM     17  C   UNL     1      47.192   2.692   6.102  0.00  0.00    +0.000 C 
ATOM     18  C   UNL     1      47.614   1.529   6.991  0.00  0.00    +0.000 C 
ATOM     19  C   UNL     1      46.450   1.039   7.858  0.00  0.00    +0.000 C 
ENDBRANCH  12  14
ENDBRANCH  11  12
ENDBRANCH   7  11
ENDBRANCH   1   7
BRANCH   4  20
ATOM     20  C   UNL     1      46.639   8.328  13.281  0.00  0.00    +0.000 C 
BRANCH  20  21
ATOM     21  N   UNL     1      48.005   8.861  13.432  0.00  0.00    +0.000 N 
ATOM     22  C   UNL     1      48.427   9.682  12.370  0.00  0.00    +0.000 C 
ATOM     23  O   UNL     1      47.728   9.901  11.397  0.00  0.00    +0.000 OA
BRANCH  22  24
ATOM     24  C   UNL     1      49.781  10.266  12.439  0.00  0.00    +0.000 A 
ATOM     25  C   UNL     1      50.082  11.522  12.934  0.00  0.00    +0.000 A 
ATOM     26  S   UNL     1      51.739  11.888  12.956  0.00  0.00    +0.000 S 
ATOM     27  C   UNL     1      52.124  10.324  12.430  0.00  0.00    +0.000 A 
ATOM     28  N   UNL     1      53.418   9.920  12.366  0.00  0.00    +0.000 NA
ATOM     29  C   UNL     1      53.568   8.699  12.003  0.00  0.00    +0.000 A 
ATOM     30  N   UNL     1      52.550   7.856  11.637  0.00  0.00    +0.000 N 
ATOM     31  C   UNL     1      51.226   8.244  11.586  0.00  0.00    +0.000 A 
ATOM     32  O   UNL     1      50.384   7.527  11.077  0.00  0.00    +0.000 OA
ATOM     33  C   UNL     1      51.003   9.576  12.120  0.00  0.00    +0.000 A 
ATOM     34  H   UNL     1      52.740   6.922  11.299  0.00  0.00    +0.000 HD
ENDBRANCH  22  24
BRANCH  21  35
ATOM     35  C   UNL     1      48.654   8.804  14.778  0.00  0.00    +0.000 C 
BRANCH  35  36
ATOM     36  C   UNL     1      49.319   7.475  15.195  0.00  0.00    +0.000 C 
BRANCH  36  37
ATOM     37  O   UNL     1      49.833   6.823  14.044  0.00  0.00    +0.000 OA
ATOM     38  H   UNL     1      50.699   6.456  14.291  0.00  0.00    +0.000 HD
ENDBRANCH  36  37
ENDBRANCH  35  36
ENDBRANCH  21  35
ENDBRANCH  20  21
ENDBRANCH   4  20
TORSDOF 11
ENDMDL
MODEL 4
REMARK VINA RESULT:    -7.094      1.805      2.616
REMARK INTER + INTRA:         -12.812
REMARK INTER:                 -11.551
REMARK INTRA:                  -1.261
REMARK UNBOUND:                -1.572
REMARK  Name = 
REMARK  11 active torsions:
REMARK  status: ('A' for Active; 'I' for Inactive)
REMARK    1  A    between atoms: N_1  and  C_2
REMARK    2  A    between atoms: C_2  and  C_3
REMARK    3  A    between atoms: C_2  and  C_11
REMARK    4  A    between atoms: C_3  and  N_4
REMARK    5  A    between atoms: N_4  and  C_5
REMARK    6  A    between atoms: C_14  and  C_15
REMARK    7  A    between atoms: C_15  and  N_16
REMARK    8  A    between atoms: N_16  and  C_17
REMARK    9  A    between atoms: C_17  and  C_18
REMARK   10  A    between atoms: C_18  and  O_19
REMARK   11  A    between atoms: C_20  and  C_22
REMARK                            x       y       z     vdW  Elec       q    Type
REMARK                         _______ _______ _______ _____ _____    ______ ____
ROOT
ATOM      1  C   UNL     1      44.779   5.273  12.156  0.00  0.00    +0.000 A 
ATOM      2  C   UNL     1      45.263   6.597  12.161  0.00  0.00    +0.000 A 
ATOM      3  C   UNL     1      46.378   6.977  12.905  0.00  0.00    +0.000 A 
ATOM      4  C   UNL     1      47.175   6.032  13.539  0.00  0.00    +0.000 A 
ATOM      5  C   UNL     1      46.642   4.729  13.658  0.00  0.00    +0.000 A 
ATOM      6  C   UNL     1      45.429   4.372  13.015  0.00  0.00    +0.000 A 
ENDROOT
BRANCH   1   7
ATOM      7  C   UNL     1      43.575   4.908  11.272  0.00  0.00    +0.000 C 
BRANCH   7   8
ATOM      8  N   UNL     1      43.029   6.125  10.617  0.00  0.00    +0.000 NA
ATOM      9  H   UNL     1      42.309   6.561  11.193  0.00  0.00    +0.000 HD
ATOM     10  H   UNL     1      42.601   5.860   9.741  0.00  0.00    +0.000 HD
ENDBRANCH   7   8
BRANCH   7  11
ATOM     11  C   UNL     1      43.882   3.842  10.152  0.00  0.00    +0.000 C 
BRANCH  11  12
ATOM     12  N   UNL     1      44.542   4.387   8.962  0.00  0.00    +0.000 NA
ATOM     13  H   UNL     1      45.256   5.052   9.259  0.00  0.00    +0.000 HD
BRANCH  12  14
ATOM     14  C   UNL     1      45.141   3.415   8.036  0.00  0.00    +0.000 C 
ATOM     15  C   UNL     1      45.554   2.183   8.871  0.00  0.00    +0.000 C 
ATOM     16  C   UNL     1      46.226   1.103   8.024  0.00  0.00    +0.000 C 
ATOM     17  C   UNL     1      47.415   1.659   7.250  0.00  0.00    +0.000 C 
ATOM     18  C   UNL     1      46.993   2.840   6.384  0.00  0.00    +0.000 C 
ATOM     19  C   UNL     1      46.339   3.942   7.222  0.00  0.00    +0.000 C 
ENDBRANCH  12  14
ENDBRANCH  11  12
ENDBRANCH   7  11
ENDBRANCH   1   7
BRANCH   4  20
ATOM     20  C   UNL     1      48.635   6.411  13.829  0.00  0.00    +0.000 C 
BRANCH  20  21
ATOM     21  N   UNL     1      48.953   7.093  15.095  0.00  0.00    +0.000 N 
ATOM     22  C   UNL     1      48.993   6.243  16.217  0.00  0.00    +0.000 C 
ATOM     23  O   UNL     1      48.750   5.052  16.142  0.00  0.00    +0.000 OA
BRANCH  22  24
ATOM     24  C   UNL     1      49.311   6.839  17.529  0.00  0.00    +0.000 A 
ATOM     25  C   UNL     1      48.387   7.390  18.398  0.00  0.00    +0.000 A 
ATOM     26  S   UNL     1      49.041   7.930  19.868  0.00  0.00    +0.000 S 
ATOM     27  C   UNL     1      50.566   7.320  19.449  0.00  0.00    +0.000 A 
ATOM     28  N   UNL     1      51.581   7.333  20.350  0.00  0.00    +0.000 NA
ATOM     29  C   UNL     1      52.665   6.795  19.923  0.00  0.00    +0.000 A 
ATOM     30  N   UNL     1      52.853   6.298  18.659  0.00  0.00    +0.000 N 
ATOM     31  C   UNL     1      51.889   6.351  17.673  0.00  0.00    +0.000 A 
ATOM     32  O   UNL     1      52.160   6.074  16.519  0.00  0.00    +0.000 OA
ATOM     33  C   UNL     1      50.605   6.828  18.158  0.00  0.00    +0.000 A 
ATOM     34  H   UNL     1      53.753   5.944  18.365  0.00  0.00    +0.000 HD
ENDBRANCH  22  24
BRANCH  21  35
ATOM     35  C   UNL     1      49.540   8.467  15.044  0.00  0.00    +0.000 C 
BRANCH  35  36
ATOM     36  C   UNL     1      48.585   9.661  15.256  0.00  0.00    +0.000 C 
BRANCH  36  37
ATOM     37  O   UNL     1      47.273   9.178  15.501  0.00  0.00    +0.000 OA
ATOM     38  H   UNL     1      47.286   8.758  16.378  0.00  0.00    +0.000 HD
ENDBRANCH  36  37
ENDBRANCH  35  36
ENDBRANCH  21  35
ENDBRANCH  20  21
ENDBRANCH   4  20
TORSDOF 11
ENDMDL
MODEL 5
REMARK VINA RESULT:    -7.082      1.400      2.103
REMARK INTER + INTRA:         -12.794
REMARK INTER:                 -10.921
REMARK INTRA:                  -1.874
REMARK UNBOUND:                -1.572
REMARK  Name = 
REMARK  11 active torsions:
REMARK  status: ('A' for Active; 'I' for Inactive)
REMARK    1  A    between atoms: N_1  and  C_2
REMARK    2  A    between atoms: C_2  and  C_3
REMARK    3  A    between atoms: C_2  and  C_11
REMARK    4  A    between atoms: C_3  and  N_4
REMARK    5  A    between atoms: N_4  and  C_5
REMARK    6  A    between atoms: C_14  and  C_15
REMARK    7  A    between atoms: C_15  and  N_16
REMARK    8  A    between atoms: N_16  and  C_17
REMARK    9  A    between atoms: C_17  and  C_18
REMARK   10  A    between atoms: C_18  and  O_19
REMARK   11  A    between atoms: C_20  and  C_22
REMARK                            x       y       z     vdW  Elec       q    Type
REMARK                         _______ _______ _______ _____ _____    ______ ____
ROOT
ATOM      1  C   UNL     1      45.035   5.196  12.861  0.00  0.00    +0.000 A 
ATOM      2  C   UNL     1      46.085   4.484  13.476  0.00  0.00    +0.000 A 
ATOM      3  C   UNL     1      47.354   5.033  13.646  0.00  0.00    +0.000 A 
ATOM      4  C   UNL     1      47.599   6.374  13.379  0.00  0.00    +0.000 A 
ATOM      5  C   UNL     1      46.609   7.066  12.645  0.00  0.00    +0.000 A 
ATOM      6  C   UNL     1      45.362   6.460  12.345  0.00  0.00    +0.000 A 
ENDROOT
BRANCH   1   7
ATOM      7  C   UNL     1      43.643   4.551  12.751  0.00  0.00    +0.000 C 
BRANCH   7   8
ATOM      8  N   UNL     1      42.624   5.412  13.406  0.00  0.00    +0.000 NA
ATOM      9  H   UNL     1      42.646   6.360  13.028  0.00  0.00    +0.000 HD
ATOM     10  H   UNL     1      42.832   5.472  14.393  0.00  0.00    +0.000 HD
ENDBRANCH   7   8
BRANCH   7  11
ATOM     11  C   UNL     1      43.169   4.260  11.277  0.00  0.00    +0.000 C 
BRANCH  11  12
ATOM     12  N   UNL     1      43.617   2.972  10.740  0.00  0.00    +0.000 NA
ATOM     13  H   UNL     1      42.852   2.556  10.207  0.00  0.00    +0.000 HD
BRANCH  12  14
ATOM     14  C   UNL     1      44.830   2.989   9.911  0.00  0.00    +0.000 C 
ATOM     15  C   UNL     1      44.816   4.306   9.104  0.00  0.00    +0.000 C 
ATOM     16  C   UNL     1      46.018   4.430   8.170  0.00  0.00    +0.000 C 
ATOM     17  C   UNL     1      46.134   3.227   7.244  0.00  0.00    +0.000 C 
ATOM     18  C   UNL     1      46.206   1.932   8.044  0.00  0.00    +0.000 C 
ATOM     19  C   UNL     1      44.994   1.780   8.969  0.00  0.00    +0.000 C 
ENDBRANCH  12  14
ENDBRANCH  11  12
ENDBRANCH   7  11
ENDBRANCH   1   7
BRANCH   4  20
ATOM     20  C   UNL     1      48.780   7.040  14.100  0.00  0.00    +0.000 C 
BRANCH  20  21
ATOM     21  N   UNL     1      48.593   7.511  15.483  0.00  0.00    +0.000 N 
ATOM     22  C   UNL     1      49.144   6.665  16.463  0.00  0.00    +0.000 C 
ATOM     23  O   UNL     1      49.697   5.617  16.183  0.00  0.00    +0.000 OA
BRANCH  22  24
ATOM     24  C   UNL     1      49.009   7.061  17.879  0.00  0.00    +0.000 A 
ATOM     25  C   UNL     1      47.916   6.789  18.681  0.00  0.00    +0.000 A 
ATOM     26  S   UNL     1      48.082   7.304  20.290  0.00  0.00    +0.000 S 
ATOM     27  C   UNL     1      49.680   7.789  20.003  0.00  0.00    +0.000 A 
ATOM     28  N   UNL     1      50.463   8.210  21.029  0.00  0.00    +0.000 NA
ATOM     29  C   UNL     1      51.665   8.497  20.684  0.00  0.00    +0.000 A 
ATOM     30  N   UNL     1      52.146   8.463  19.400  0.00  0.00    +0.000 N 
ATOM     31  C   UNL     1      51.366   8.141  18.307  0.00  0.00    +0.000 A 
ATOM     32  O   UNL     1      51.779   8.307  17.174  0.00  0.00    +0.000 OA
ATOM     33  C   UNL     1      50.039   7.678  18.673  0.00  0.00    +0.000 A 
ATOM     34  H   UNL     1      53.087   8.764  19.186  0.00  0.00    +0.000 HD
ENDBRANCH  22  24
BRANCH  21  35
ATOM     35  C   UNL     1      48.194   8.934  15.710  0.00  0.00    +0.000 C 
BRANCH  35  36
ATOM     36  C   UNL     1      49.001  10.028  14.978  0.00  0.00    +0.000 C 
BRANCH  36  37
ATOM     37  O   UNL     1      50.321  10.069  15.498  0.00  0.00    +0.000 OA
ATOM     38  H   UNL     1      50.772   9.266  15.186  0.00  0.00    +0.000 HD
ENDBRANCH  36  37
ENDBRANCH  35  36
ENDBRANCH  21  35
ENDBRANCH  20  21
ENDBRANCH   4  20
TORSDOF 11
ENDMDL
MODEL 6
REMARK VINA RESULT:    -7.054      2.302      2.938
REMARK INTER + INTRA:         -12.749
REMARK INTER:                 -11.275
REMARK INTRA:                  -1.474
REMARK UNBOUND:                -1.572
REMARK  Name = 
REMARK  11 active torsions:
REMARK  status: ('A' for Active; 'I' for Inactive)
REMARK    1  A    between atoms: N_1  and  C_2
REMARK    2  A    between atoms: C_2  and  C_3
REMARK    3  A    between atoms: C_2  and  C_11
REMARK    4  A    between atoms: C_3  and  N_4
REMARK    5  A    between atoms: N_4  and  C_5
REMARK    6  A    between atoms: C_14  and  C_15
REMARK    7  A    between atoms: C_15  and  N_16
REMARK    8  A    between atoms: N_16  and  C_17
REMARK    9  A    between atoms: C_17  and  C_18
REMARK   10  A    between atoms: C_18  and  O_19
REMARK   11  A    between atoms: C_20  and  C_22
REMARK                            x       y       z     vdW  Elec       q    Type
REMARK                         _______ _______ _______ _____ _____    ______ ____
ROOT
ATOM      1  C   UNL     1      44.408   5.517  12.574  0.00  0.00    +0.000 A 
ATOM      2  C   UNL     1      45.608   5.227  13.254  0.00  0.00    +0.000 A 
ATOM      3  C   UNL     1      46.691   6.104  13.258  0.00  0.00    +0.000 A 
ATOM      4  C   UNL     1      46.578   7.388  12.740  0.00  0.00    +0.000 A 
ATOM      5  C   UNL     1      45.441   7.653  11.943  0.00  0.00    +0.000 A 
ATOM      6  C   UNL     1      44.394   6.703  11.821  0.00  0.00    +0.000 A 
ENDROOT
BRANCH   1   7
ATOM      7  C   UNL     1      43.232   4.530  12.654  0.00  0.00    +0.000 C 
BRANCH   7   8
ATOM      8  N   UNL     1      42.088   5.026  11.846  0.00  0.00    +0.000 NA
ATOM      9  H   UNL     1      41.453   4.266  11.601  0.00  0.00    +0.000 HD
ATOM     10  H   UNL     1      42.442   5.418  10.984  0.00  0.00    +0.000 HD
ENDBRANCH   7   8
BRANCH   7  11
ATOM     11  C   UNL     1      43.571   3.066  12.180  0.00  0.00    +0.000 C 
BRANCH  11  12
ATOM     12  N   UNL     1      43.453   2.854  10.734  0.00  0.00    +0.000 NA
ATOM     13  H   UNL     1      42.799   3.539  10.355  0.00  0.00    +0.000 HD
BRANCH  12  14
ATOM     14  C   UNL     1      44.701   2.897   9.957  0.00  0.00    +0.000 C 
ATOM     15  C   UNL     1      44.685   4.205   9.137  0.00  0.00    +0.000 C 
ATOM     16  C   UNL     1      45.923   4.354   8.253  0.00  0.00    +0.000 C 
ATOM     17  C   UNL     1      46.110   3.145   7.345  0.00  0.00    +0.000 C 
ATOM     18  C   UNL     1      46.182   1.861   8.161  0.00  0.00    +0.000 C 
ATOM     19  C   UNL     1      44.937   1.684   9.035  0.00  0.00    +0.000 C 
ENDBRANCH  12  14
ENDBRANCH  11  12
ENDBRANCH   7  11
ENDBRANCH   1   7
BRANCH   4  20
ATOM     20  C   UNL     1      47.545   8.457  13.268  0.00  0.00    +0.000 C 
BRANCH  20  21
ATOM     21  N   UNL     1      48.921   8.060  13.615  0.00  0.00    +0.000 N 
ATOM     22  C   UNL     1      49.235   8.194  14.981  0.00  0.00    +0.000 C 
ATOM     23  O   UNL     1      48.441   8.634  15.793  0.00  0.00    +0.000 OA
BRANCH  22  24
ATOM     24  C   UNL     1      50.591   7.814  15.422  0.00  0.00    +0.000 A 
ATOM     25  C   UNL     1      51.729   8.580  15.249  0.00  0.00    +0.000 A 
ATOM     26  S   UNL     1      53.134   7.914  15.931  0.00  0.00    +0.000 S 
ATOM     27  C   UNL     1      52.241   6.640  16.602  0.00  0.00    +0.000 A 
ATOM     28  N   UNL     1      52.834   5.755  17.444  0.00  0.00    +0.000 NA
ATOM     29  C   UNL     1      52.035   4.872  17.922  0.00  0.00    +0.000 A 
ATOM     30  N   UNL     1      50.710   4.748  17.592  0.00  0.00    +0.000 N 
ATOM     31  C   UNL     1      50.081   5.555  16.665  0.00  0.00    +0.000 A 
ATOM     32  O   UNL     1      48.963   5.291  16.264  0.00  0.00    +0.000 OA
ATOM     33  C   UNL     1      50.917   6.651  16.206  0.00  0.00    +0.000 A 
ATOM     34  H   UNL     1      50.150   3.989  17.955  0.00  0.00    +0.000 HD
ENDBRANCH  22  24
BRANCH  21  35
ATOM     35  C   UNL     1      49.704   7.247  12.634  0.00  0.00    +0.000 C 
BRANCH  35  36
ATOM     36  C   UNL     1      50.370   7.993  11.459  0.00  0.00    +0.000 C 
BRANCH  36  37
ATOM     37  O   UNL     1      51.419   7.198  10.929  0.00  0.00    +0.000 OA
ATOM     38  H   UNL     1      52.254   7.626  11.185  0.00  0.00    +0.000 HD
ENDBRANCH  36  37
ENDBRANCH  35  36
ENDBRANCH  21  35
ENDBRANCH  20  21
ENDBRANCH   4  20
TORSDOF 11
ENDMDL
MODEL 7
REMARK VINA RESULT:    -6.765      1.652      2.729
REMARK INTER + INTRA:         -12.292
REMARK INTER:                 -10.946
REMARK INTRA:                  -1.346
REMARK UNBOUND:                -1.572
REMARK  Name = 
REMARK  11 active torsions:
REMARK  status: ('A' for Active; 'I' for Inactive)
REMARK    1  A    between atoms: N_1  and  C_2
REMARK    2  A    between atoms: C_2  and  C_3
REMARK    3  A    between atoms: C_2  and  C_11
REMARK    4  A    between atoms: C_3  and  N_4
REMARK    5  A    between atoms: N_4  and  C_5
REMARK    6  A    between atoms: C_14  and  C_15
REMARK    7  A    between atoms: C_15  and  N_16
REMARK    8  A    between atoms: N_16  and  C_17
REMARK    9  A    between atoms: C_17  and  C_18
REMARK   10  A    between atoms: C_18  and  O_19
REMARK   11  A    between atoms: C_20  and  C_22
REMARK                            x       y       z     vdW  Elec       q    Type
REMARK                         _______ _______ _______ _____ _____    ______ ____
ROOT
ATOM      1  C   UNL     1      45.054   6.005  12.306  0.00  0.00    +0.000 A 
ATOM      2  C   UNL     1      45.956   4.943  12.520  0.00  0.00    +0.000 A 
ATOM      3  C   UNL     1      47.238   5.150  13.026  0.00  0.00    +0.000 A 
ATOM      4  C   UNL     1      47.628   6.390  13.512  0.00  0.00    +0.000 A 
ATOM      5  C   UNL     1      46.798   7.488  13.190  0.00  0.00    +0.000 A 
ATOM      6  C   UNL     1      45.549   7.297  12.545  0.00  0.00    +0.000 A 
ENDROOT
BRANCH   1   7
ATOM      7  C   UNL     1      43.635   5.704  11.795  0.00  0.00    +0.000 C 
BRANCH   7   8
ATOM      8  N   UNL     1      43.011   6.939  11.252  0.00  0.00    +0.000 NA
ATOM      9  H   UNL     1      42.023   6.992  11.501  0.00  0.00    +0.000 HD
ATOM     10  H   UNL     1      43.071   6.918  10.243  0.00  0.00    +0.000 HD
ENDBRANCH   7   8
BRANCH   7  11
ATOM     11  C   UNL     1      43.560   4.586  10.687  0.00  0.00    +0.000 C 
BRANCH  11  12
ATOM     12  N   UNL     1      44.199   4.947   9.417  0.00  0.00    +0.000 NA
ATOM     13  H   UNL     1      44.999   5.549   9.614  0.00  0.00    +0.000 HD
BRANCH  12  14
ATOM     14  C   UNL     1      44.632   3.836   8.557  0.00  0.00    +0.000 C 
ATOM     15  C   UNL     1      44.683   2.568   9.438  0.00  0.00    +0.000 C 
ATOM     16  C   UNL     1      45.156   1.339   8.662  0.00  0.00    +0.000 C 
ATOM     17  C   UNL     1      46.497   1.586   7.985  0.00  0.00    +0.000 C 
ATOM     18  C   UNL     1      46.427   2.804   7.073  0.00  0.00    +0.000 C 
ATOM     19  C   UNL     1      45.979   4.052   7.841  0.00  0.00    +0.000 C 
ENDBRANCH  12  14
ENDBRANCH  11  12
ENDBRANCH   7  11
ENDBRANCH   1   7
BRANCH   4  20
ATOM     20  C   UNL     1      48.766   6.426  14.542  0.00  0.00    +0.000 C 
BRANCH  20  21
ATOM     21  N   UNL     1      48.432   6.321  15.973  0.00  0.00    +0.000 N 
ATOM     22  C   UNL     1      48.947   7.363  16.767  0.00  0.00    +0.000 C 
ATOM     23  O   UNL     1      49.637   8.254  16.306  0.00  0.00    +0.000 OA
BRANCH  22  24
ATOM     24  C   UNL     1      48.656   7.342  18.214  0.00  0.00    +0.000 A 
ATOM     25  C   UNL     1      47.708   8.126  18.847  0.00  0.00    +0.000 A 
ATOM     26  S   UNL     1      47.547   7.826  20.510  0.00  0.00    +0.000 S 
ATOM     27  C   UNL     1      48.645   6.539  20.416  0.00  0.00    +0.000 A 
ATOM     28  N   UNL     1      48.864   5.744  21.494  0.00  0.00    +0.000 NA
ATOM     29  C   UNL     1      49.678   4.777  21.273  0.00  0.00    +0.000 A 
ATOM     30  N   UNL     1      50.344   4.561  20.095  0.00  0.00    +0.000 N 
ATOM     31  C   UNL     1      50.237   5.396  19.000  0.00  0.00    +0.000 A 
ATOM     32  O   UNL     1      50.985   5.276  18.048  0.00  0.00    +0.000 OA
ATOM     33  C   UNL     1      49.222   6.422  19.165  0.00  0.00    +0.000 A 
ATOM     34  H   UNL     1      51.022   3.816  20.005  0.00  0.00    +0.000 HD
ENDBRANCH  22  24
BRANCH  21  35
ATOM     35  C   UNL     1      47.336   5.392  16.389  0.00  0.00    +0.000 C 
BRANCH  35  36
ATOM     36  C   UNL     1      47.723   3.937  16.731  0.00  0.00    +0.000 C 
BRANCH  36  37
ATOM     37  O   UNL     1      46.948   3.490  17.832  0.00  0.00    +0.000 OA
ATOM     38  H   UNL     1      47.530   3.507  18.612  0.00  0.00    +0.000 HD
ENDBRANCH  36  37
ENDBRANCH  35  36
ENDBRANCH  21  35
ENDBRANCH  20  21
ENDBRANCH   4  20
TORSDOF 11
ENDMDL
MODEL 8
REMARK VINA RESULT:    -6.716      2.017      3.618
REMARK INTER + INTRA:         -12.214
REMARK INTER:                 -11.039
REMARK INTRA:                  -1.175
REMARK UNBOUND:                -1.572
REMARK  Name = 
REMARK  11 active torsions:
REMARK  status: ('A' for Active; 'I' for Inactive)
REMARK    1  A    between atoms: N_1  and  C_2
REMARK    2  A    between atoms: C_2  and  C_3
REMARK    3  A    between atoms: C_2  and  C_11
REMARK    4  A    between atoms: C_3  and  N_4
REMARK    5  A    between atoms: N_4  and  C_5
REMARK    6  A    between atoms: C_14  and  C_15
REMARK    7  A    between atoms: C_15  and  N_16
REMARK    8  A    between atoms: N_16  and  C_17
REMARK    9  A    between atoms: C_17  and  C_18
REMARK   10  A    between atoms: C_18  and  O_19
REMARK   11  A    between atoms: C_20  and  C_22
REMARK                            x       y       z     vdW  Elec       q    Type
REMARK                         _______ _______ _______ _____ _____    ______ ____
ROOT
ATOM      1  C   UNL     1      45.923   5.279  12.320  0.00  0.00    +0.000 A 
ATOM      2  C   UNL     1      45.994   3.929  12.719  0.00  0.00    +0.000 A 
ATOM      3  C   UNL     1      46.688   3.528  13.860  0.00  0.00    +0.000 A 
ATOM      4  C   UNL     1      47.194   4.458  14.757  0.00  0.00    +0.000 A 
ATOM      5  C   UNL     1      47.252   5.800  14.317  0.00  0.00    +0.000 A 
ATOM      6  C   UNL     1      46.668   6.192  13.084  0.00  0.00    +0.000 A 
ENDROOT
BRANCH   1   7
ATOM      7  C   UNL     1      45.098   5.662  11.080  0.00  0.00    +0.000 C 
BRANCH   7   8
ATOM      8  N   UNL     1      44.882   7.132  11.039  0.00  0.00    +0.000 NA
ATOM      9  H   UNL     1      44.278   7.437  11.801  0.00  0.00    +0.000 HD
ATOM     10  H   UNL     1      44.423   7.370  10.170  0.00  0.00    +0.000 HD
ENDBRANCH   7   8
BRANCH   7  11
ATOM     11  C   UNL     1      45.731   5.218   9.707  0.00  0.00    +0.000 C 
BRANCH  11  12
ATOM     12  N   UNL     1      44.778   4.623   8.765  0.00  0.00    +0.000 NA
ATOM     13  H   UNL     1      44.398   5.362   8.173  0.00  0.00    +0.000 HD
BRANCH  12  14
ATOM     14  C   UNL     1      45.283   3.535   7.914  0.00  0.00    +0.000 C 
ATOM     15  C   UNL     1      45.573   2.330   8.836  0.00  0.00    +0.000 C 
ATOM     16  C   UNL     1      46.140   1.135   8.071  0.00  0.00    +0.000 C 
ATOM     17  C   UNL     1      47.378   1.518   7.272  0.00  0.00    +0.000 C 
ATOM     18  C   UNL     1      47.075   2.671   6.322  0.00  0.00    +0.000 C 
ATOM     19  C   UNL     1      46.528   3.887   7.076  0.00  0.00    +0.000 C 
ENDBRANCH  12  14
ENDBRANCH  11  12
ENDBRANCH   7  11
ENDBRANCH   1   7
BRANCH   4  20
ATOM     20  C   UNL     1      47.413   4.003  16.208  0.00  0.00    +0.000 C 
BRANCH  20  21
ATOM     21  N   UNL     1      48.320   4.783  17.067  0.00  0.00    +0.000 N 
ATOM     22  C   UNL     1      47.699   5.366  18.187  0.00  0.00    +0.000 C 
ATOM     23  O   UNL     1      46.505   5.258  18.401  0.00  0.00    +0.000 OA
BRANCH  22  24
ATOM     24  C   UNL     1      48.534   6.162  19.109  0.00  0.00    +0.000 A 
ATOM     25  C   UNL     1      48.959   5.746  20.357  0.00  0.00    +0.000 A 
ATOM     26  S   UNL     1      49.972   6.848  21.156  0.00  0.00    +0.000 S 
ATOM     27  C   UNL     1      49.989   7.864  19.801  0.00  0.00    +0.000 A 
ATOM     28  N   UNL     1      50.798   8.954  19.769  0.00  0.00    +0.000 NA
ATOM     29  C   UNL     1      50.752   9.606  18.665  0.00  0.00    +0.000 A 
ATOM     30  N   UNL     1      49.930   9.311  17.609  0.00  0.00    +0.000 N 
ATOM     31  C   UNL     1      49.015   8.277  17.626  0.00  0.00    +0.000 A 
ATOM     32  O   UNL     1      48.178   8.169  16.749  0.00  0.00    +0.000 OA
ATOM     33  C   UNL     1      49.133   7.434  18.803  0.00  0.00    +0.000 A 
ATOM     34  H   UNL     1      49.896   9.904  16.791  0.00  0.00    +0.000 HD
ENDBRANCH  22  24
BRANCH  21  35
ATOM     35  C   UNL     1      49.796   4.599  16.908  0.00  0.00    +0.000 C 
BRANCH  35  36
ATOM     36  C   UNL     1      50.428   3.332  17.523  0.00  0.00    +0.000 C 
BRANCH  36  37
ATOM     37  O   UNL     1      49.501   2.723  18.408  0.00  0.00    +0.000 OA
ATOM     38  H   UNL     1      48.942   3.434  18.765  0.00  0.00    +0.000 HD
ENDBRANCH  36  37
ENDBRANCH  35  36
ENDBRANCH  21  35
ENDBRANCH  20  21
ENDBRANCH   4  20
TORSDOF 11
ENDMDL
MODEL 9
REMARK VINA RESULT:    -6.632      1.761      2.103
REMARK INTER + INTRA:         -12.081
REMARK INTER:                 -10.780
REMARK INTRA:                  -1.301
REMARK UNBOUND:                -1.572
REMARK  Name = 
REMARK  11 active torsions:
REMARK  status: ('A' for Active; 'I' for Inactive)
REMARK    1  A    between atoms: N_1  and  C_2
REMARK    2  A    between atoms: C_2  and  C_3
REMARK    3  A    between atoms: C_2  and  C_11
REMARK    4  A    between atoms: C_3  and  N_4
REMARK    5  A    between atoms: N_4  and  C_5
REMARK    6  A    between atoms: C_14  and  C_15
REMARK    7  A    between atoms: C_15  and  N_16
REMARK    8  A    between atoms: N_16  and  C_17
REMARK    9  A    between atoms: C_17  and  C_18
REMARK   10  A    between atoms: C_18  and  O_19
REMARK   11  A    between atoms: C_20  and  C_22
REMARK                            x       y       z     vdW  Elec       q    Type
REMARK                         _______ _______ _______ _____ _____    ______ ____
ROOT
ATOM      1  C   UNL     1      45.516   7.167  12.230  0.00  0.00    +0.000 A 
ATOM      2  C   UNL     1      46.836   6.719  12.020  0.00  0.00    +0.000 A 
ATOM      3  C   UNL     1      47.944   7.467  12.414  0.00  0.00    +0.000 A 
ATOM      4  C   UNL     1      47.802   8.608  13.193  0.00  0.00    +0.000 A 
ATOM      5  C   UNL     1      46.499   9.143  13.303  0.00  0.00    +0.000 A 
ATOM      6  C   UNL     1      45.376   8.453  12.778  0.00  0.00    +0.000 A 
ENDROOT
BRANCH   1   7
ATOM      7  C   UNL     1      44.336   6.269  11.820  0.00  0.00    +0.000 C 
BRANCH   7   8
ATOM      8  N   UNL     1      43.335   7.055  11.052  0.00  0.00    +0.000 NA
ATOM      9  H   UNL     1      43.446   8.055  11.218  0.00  0.00    +0.000 HD
ATOM     10  H   UNL     1      42.409   6.795  11.362  0.00  0.00    +0.000 HD
ENDBRANCH   7   8
BRANCH   7  11
ATOM     11  C   UNL     1      44.737   5.010  10.962  0.00  0.00    +0.000 C 
BRANCH  11  12
ATOM     12  N   UNL     1      43.977   4.857   9.717  0.00  0.00    +0.000 NA
ATOM     13  H   UNL     1      43.918   5.766   9.257  0.00  0.00    +0.000 HD
BRANCH  12  14
ATOM     14  C   UNL     1      44.476   3.862   8.758  0.00  0.00    +0.000 C 
ATOM     15  C   UNL     1      44.652   2.533   9.526  0.00  0.00    +0.000 C 
ATOM     16  C   UNL     1      45.203   1.417   8.640  0.00  0.00    +0.000 C 
ATOM     17  C   UNL     1      46.503   1.829   7.962  0.00  0.00    +0.000 C 
ATOM     18  C   UNL     1      46.312   3.110   7.159  0.00  0.00    +0.000 C 
ATOM     19  C   UNL     1      45.784   4.248   8.038  0.00  0.00    +0.000 C 
ENDBRANCH  12  14
ENDBRANCH  11  12
ENDBRANCH   7  11
ENDBRANCH   1   7
BRANCH   4  20
ATOM     20  C   UNL     1      49.000   9.039  14.051  0.00  0.00    +0.000 C 
BRANCH  20  21
ATOM     21  N   UNL     1      49.140   8.479  15.407  0.00  0.00    +0.000 N 
ATOM     22  C   UNL     1      50.293   7.695  15.595  0.00  0.00    +0.000 C 
ATOM     23  O   UNL     1      51.086   7.476  14.697  0.00  0.00    +0.000 OA
BRANCH  22  24
ATOM     24  C   UNL     1      50.519   7.098  16.926  0.00  0.00    +0.000 A 
ATOM     25  C   UNL     1      51.368   7.605  17.892  0.00  0.00    +0.000 A 
ATOM     26  S   UNL     1      51.361   6.743  19.354  0.00  0.00    +0.000 S 
ATOM     27  C   UNL     1      50.117   5.739  18.793  0.00  0.00    +0.000 A 
ATOM     28  N   UNL     1      49.533   4.839  19.625  0.00  0.00    +0.000 NA
ATOM     29  C   UNL     1      48.571   4.181  19.089  0.00  0.00    +0.000 A 
ATOM     30  N   UNL     1      48.174   4.289  17.782  0.00  0.00    +0.000 N 
ATOM     31  C   UNL     1      48.798   5.113  16.866  0.00  0.00    +0.000 A 
ATOM     32  O   UNL     1      48.538   5.038  15.679  0.00  0.00    +0.000 OA
ATOM     33  C   UNL     1      49.801   5.974  17.467  0.00  0.00    +0.000 A 
ATOM     34  H   UNL     1      47.449   3.694  17.404  0.00  0.00    +0.000 HD
ENDBRANCH  22  24
BRANCH  21  35
ATOM     35  C   UNL     1      48.306   9.051  16.510  0.00  0.00    +0.000 C 
BRANCH  35  36
ATOM     36  C   UNL     1      48.781  10.371  17.154  0.00  0.00    +0.000 C 
BRANCH  36  37
ATOM     37  O   UNL     1      47.876  11.411  16.820  0.00  0.00    +0.000 OA
ATOM     38  H   UNL     1      47.185  11.016  16.260  0.00  0.00    +0.000 HD
ENDBRANCH  36  37
ENDBRANCH  35  36
ENDBRANCH  21  35
ENDBRANCH  20  21
ENDBRANCH   4  20
TORSDOF 11
ENDMDL
