MODEL 1
REMARK VINA RESULT:    -8.147      0.000      0.000
REMARK INTER + INTRA:         -11.449
REMARK INTER:                 -11.005
REMARK INTRA:                  -0.444
REMARK UNBOUND:                -0.444
REMARK  Name = 
REMARK  6 active torsions:
REMARK  status: ('A' for Active; 'I' for Inactive)
REMARK    1  A    between atoms: C_2  and  C_4
REMARK    2  A    between atoms: C_7  and  C_8
REMARK    3  A    between atoms: C_8  and  C_9
REMARK    4  A    between atoms: C_9  and  N_10
REMARK    5  A    between atoms: N_10  and  C_11
REMARK    6  A    between atoms: C_16  and  C_17
REMARK                            x       y       z     vdW  Elec       q    Type
REMARK                         _______ _______ _______ _____ _____    ______ ____
ROOT
ATOM      1  N   UNL     1      45.507   3.981  12.517  0.00  0.00    +0.000 N 
ATOM      2  H   UNL     1      45.062   3.260  13.082  0.00  0.00    +0.000 HD
ENDROOT
BRANCH   1   3
ATOM      3  C   UNL     1      46.412   4.744  13.274  0.00  0.00    +0.000 A 
ATOM      4  C   UNL     1      47.142   5.805  12.730  0.00  0.00    +0.000 A 
ATOM      5  C   UNL     1      47.999   6.554  13.526  0.00  0.00    +0.000 A 
ATOM      6  C   UNL     1      48.170   6.219  14.859  0.00  0.00    +0.000 A 
ATOM      7  F   UNL     1      48.964   7.028  15.572  0.00  0.00    +0.000 F 
ATOM      8  C   UNL     1      47.541   5.104  15.432  0.00  0.00    +0.000 A 
ATOM      9  C   UNL     1      46.657   4.381  14.606  0.00  0.00    +0.000 A 
BRANCH   8  10
ATOM     10  C   UNL     1      47.692   4.675  16.888  0.00  0.00    +0.000 C 
ATOM     11  C   UNL     1      48.960   5.155  17.608  0.00  0.00    +0.000 C 
ATOM     12  C   UNL     1      50.207   4.393  17.148  0.00  0.00    +0.000 C 
ATOM     13  N   UNL     1      50.075   2.941  17.281  0.00  0.00    +0.000 NA
ATOM     14  C   UNL     1      48.857   2.410  16.673  0.00  0.00    +0.000 C 
ATOM     15  C   UNL     1      47.590   3.149  17.098  0.00  0.00    +0.000 C 
ATOM     16  H   UNL     1      50.097   2.698  18.268  0.00  0.00    +0.000 HD
ENDBRANCH   8  10
ENDBRANCH   1   3
BRANCH   1  17
ATOM     17  C   UNL     1      44.569   4.758  11.700  0.00  0.00    +0.000 C 
BRANCH  17  18
ATOM     18  C   UNL     1      43.842   3.873  10.690  0.00  0.00    +0.000 C 
BRANCH  18  22
ATOM     19  C   UNL     1      46.497   2.698   7.495  0.00  0.00    +0.000 A 
ATOM     20  C   UNL     1      45.930   1.724   8.326  0.00  0.00    +0.000 A 
ATOM     21  C   UNL     1      45.072   2.103   9.363  0.00  0.00    +0.000 A 
ATOM     22  C   UNL     1      44.766   3.452   9.571  0.00  0.00    +0.000 A 
ATOM     23  C   UNL     1      45.356   4.426   8.753  0.00  0.00    +0.000 A 
ATOM     24  C   UNL     1      46.220   4.048   7.717  0.00  0.00    +0.000 A 
BRANCH  19  26
ATOM     25  N   UNL     1      47.380   3.108   5.265  0.00  0.00    +0.000 N 
ATOM     26  C   UNL     1      47.414   2.324   6.382  0.00  0.00    +0.000 C 
ATOM     27  O   UNL     1      48.189   1.380   6.473  0.00  0.00    +0.000 OA
ATOM     28  H   UNL     1      48.062   2.896   4.546  0.00  0.00    +0.000 HD
ATOM     29  H   UNL     1      46.958   4.027   5.253  0.00  0.00    +0.000 HD
ENDBRANCH  19  26
ENDBRANCH  18  22
ENDBRANCH  17  18
ENDBRANCH   1  17
TORSDOF 6
ENDMDL
MODEL 2
REMARK VINA RESULT:    -8.057      2.558      3.845
REMARK INTER + INTRA:         -11.327
REMARK INTER:                 -10.824
REMARK INTRA:                  -0.503
REMARK UNBOUND:                -0.444
REMARK  Name = 
REMARK  6 active torsions:
REMARK  status: ('A' for Active; 'I' for Inactive)
REMARK    1  A    between atoms: C_2  and  C_4
REMARK    2  A    between atoms: C_7  and  C_8
REMARK    3  A    between atoms: C_8  and  C_9
REMARK    4  A    between atoms: C_9  and  N_10
REMARK    5  A    between atoms: N_10  and  C_11
REMARK    6  A    between atoms: C_16  and  C_17
REMARK                            x       y       z     vdW  Elec       q    Type
REMARK                         _______ _______ _______ _____ _____    ______ ____
ROOT
ATOM      1  N   UNL     1      43.794   6.846  11.203  0.00  0.00    +0.000 N 
ATOM      2  H   UNL     1      43.280   7.052  10.350  0.00  0.00    +0.000 HD
ENDROOT
BRANCH   1   3
ATOM      3  C   UNL     1      44.713   7.865  11.509  0.00  0.00    +0.000 A 
ATOM      4  C   UNL     1      44.391   9.223  11.421  0.00  0.00    +0.000 A 
ATOM      5  C   UNL     1      45.321  10.193  11.767  0.00  0.00    +0.000 A 
ATOM      6  C   UNL     1      46.595   9.818  12.159  0.00  0.00    +0.000 A 
ATOM      7  F   UNL     1      47.412  10.809  12.537  0.00  0.00    +0.000 F 
ATOM      8  C   UNL     1      47.005   8.476  12.169  0.00  0.00    +0.000 A 
ATOM      9  C   UNL     1      46.030   7.513  11.838  0.00  0.00    +0.000 A 
BRANCH   8  10
ATOM     10  C   UNL     1      48.393   7.995  12.580  0.00  0.00    +0.000 C 
ATOM     11  C   UNL     1      48.518   6.505  12.928  0.00  0.00    +0.000 C 
ATOM     12  C   UNL     1      47.892   6.177  14.287  0.00  0.00    +0.000 C 
ATOM     13  N   UNL     1      48.426   6.993  15.378  0.00  0.00    +0.000 NA
ATOM     14  C   UNL     1      48.400   8.427  15.099  0.00  0.00    +0.000 C 
ATOM     15  C   UNL     1      49.007   8.796  13.747  0.00  0.00    +0.000 C 
ATOM     16  H   UNL     1      49.381   6.701  15.570  0.00  0.00    +0.000 HD
ENDBRANCH   8  10
ENDBRANCH   1   3
BRANCH   1  17
ATOM     17  C   UNL     1      44.335   5.484  11.257  0.00  0.00    +0.000 C 
BRANCH  17  18
ATOM     18  C   UNL     1      43.630   4.564  10.263  0.00  0.00    +0.000 C 
BRANCH  18  22
ATOM     19  C   UNL     1      46.464   2.469   7.771  0.00  0.00    +0.000 A 
ATOM     20  C   UNL     1      46.370   3.864   7.701  0.00  0.00    +0.000 A 
ATOM     21  C   UNL     1      45.451   4.544   8.506  0.00  0.00    +0.000 A 
ATOM     22  C   UNL     1      44.628   3.839   9.391  0.00  0.00    +0.000 A 
ATOM     23  C   UNL     1      44.706   2.440   9.438  0.00  0.00    +0.000 A 
ATOM     24  C   UNL     1      45.624   1.757   8.629  0.00  0.00    +0.000 A 
BRANCH  19  26
ATOM     25  N   UNL     1      48.480   2.425   6.409  0.00  0.00    +0.000 N 
ATOM     26  C   UNL     1      47.434   1.717   6.927  0.00  0.00    +0.000 C 
ATOM     27  O   UNL     1      47.323   0.512   6.731  0.00  0.00    +0.000 OA
ATOM     28  H   UNL     1      49.177   1.891   5.903  0.00  0.00    +0.000 HD
ATOM     29  H   UNL     1      48.748   3.337   6.753  0.00  0.00    +0.000 HD
ENDBRANCH  19  26
ENDBRANCH  18  22
ENDBRANCH  17  18
ENDBRANCH   1  17
TORSDOF 6
ENDMDL
MODEL 3
REMARK VINA RESULT:    -7.825      1.986      3.716
REMARK INTER + INTRA:         -11.013
REMARK INTER:                 -10.376
REMARK INTRA:                  -0.637
REMARK UNBOUND:                -0.444
REMARK  Name = 
REMARK  6 active torsions:
REMARK  status: ('A' for Active; 'I' for Inactive)
REMARK    1  A    between atoms: C_2  and  C_4
REMARK    2  A    between atoms: C_7  and  C_8
REMARK    3  A    between atoms: C_8  and  C_9
REMARK    4  A    between atoms: C_9  and  N_10
REMARK    5  A    between atoms: N_10  and  C_11
REMARK    6  A    between atoms: C_16  and  C_17
REMARK                            x       y       z     vdW  Elec       q    Type
REMARK                         _______ _______ _______ _____ _____    ______ ____
ROOT
ATOM      1  N   UNL     1      45.063   4.427  12.431  0.00  0.00    +0.000 N 
ATOM      2  H   UNL     1      44.323   4.006  12.988  0.00  0.00    +0.000 HD
ENDROOT
BRANCH   1   3
ATOM      3  C   UNL     1      46.113   4.896  13.239  0.00  0.00    +0.000 A 
ATOM      4  C   UNL     1      46.334   4.423  14.537  0.00  0.00    +0.000 A 
ATOM      5  C   UNL     1      47.406   4.891  15.285  0.00  0.00    +0.000 A 
ATOM      6  C   UNL     1      48.237   5.869  14.763  0.00  0.00    +0.000 A 
ATOM      7  F   UNL     1      49.283   6.220  15.522  0.00  0.00    +0.000 F 
ATOM      8  C   UNL     1      48.002   6.451  13.509  0.00  0.00    +0.000 A 
ATOM      9  C   UNL     1      46.923   5.936  12.762  0.00  0.00    +0.000 A 
BRANCH   8  10
ATOM     10  C   UNL     1      48.870   7.537  12.879  0.00  0.00    +0.000 C 
ATOM     11  C   UNL     1      49.472   8.568  13.845  0.00  0.00    +0.000 C 
ATOM     12  C   UNL     1      48.423   9.561  14.355  0.00  0.00    +0.000 C 
ATOM     13  N   UNL     1      47.705  10.243  13.276  0.00  0.00    +0.000 NA
ATOM     14  C   UNL     1      47.152   9.331  12.278  0.00  0.00    +0.000 C 
ATOM     15  C   UNL     1      48.165   8.317  11.750  0.00  0.00    +0.000 C 
ATOM     16  H   UNL     1      48.337  10.899  12.825  0.00  0.00    +0.000 HD
ENDBRANCH   8  10
ENDBRANCH   1   3
BRANCH   1  17
ATOM     17  C   UNL     1      44.582   5.377  11.423  0.00  0.00    +0.000 C 
BRANCH  17  18
ATOM     18  C   UNL     1      43.818   4.668  10.307  0.00  0.00    +0.000 C 
BRANCH  18  22
ATOM     19  C   UNL     1      46.488   2.480   7.716  0.00  0.00    +0.000 A 
ATOM     20  C   UNL     1      46.447   3.878   7.656  0.00  0.00    +0.000 A 
ATOM     21  C   UNL     1      45.581   4.588   8.493  0.00  0.00    +0.000 A 
ATOM     22  C   UNL     1      44.759   3.910   9.400  0.00  0.00    +0.000 A 
ATOM     23  C   UNL     1      44.784   2.509   9.437  0.00  0.00    +0.000 A 
ATOM     24  C   UNL     1      45.648   1.795   8.596  0.00  0.00    +0.000 A 
BRANCH  19  26
ATOM     25  N   UNL     1      48.477   2.357   6.319  0.00  0.00    +0.000 N 
ATOM     26  C   UNL     1      47.401   1.696   6.837  0.00  0.00    +0.000 C 
ATOM     27  O   UNL     1      47.219   0.505   6.614  0.00  0.00    +0.000 OA
ATOM     28  H   UNL     1      49.135   1.798   5.788  0.00  0.00    +0.000 HD
ATOM     29  H   UNL     1      48.801   3.244   6.681  0.00  0.00    +0.000 HD
ENDBRANCH  19  26
ENDBRANCH  18  22
ENDBRANCH  17  18
ENDBRANCH   1  17
TORSDOF 6
ENDMDL
MODEL 4
REMARK VINA RESULT:    -7.809      3.120      4.048
REMARK INTER + INTRA:         -10.993
REMARK INTER:                 -10.385
REMARK INTRA:                  -0.608
REMARK UNBOUND:                -0.444
REMARK  Name = 
REMARK  6 active torsions:
REMARK  status: ('A' for Active; 'I' for Inactive)
REMARK    1  A    between atoms: C_2  and  C_4
REMARK    2  A    between atoms: C_7  and  C_8
REMARK    3  A    between atoms: C_8  and  C_9
REMARK    4  A    between atoms: C_9  and  N_10
REMARK    5  A    between atoms: N_10  and  C_11
REMARK    6  A    between atoms: C_16  and  C_17
REMARK                            x       y       z     vdW  Elec       q    Type
REMARK                         _______ _______ _______ _____ _____    ______ ____
ROOT
ATOM      1  N   UNL     1      43.654   6.704  11.202  0.00  0.00    +0.000 N 
ATOM      2  H   UNL     1      43.137   6.756  10.327  0.00  0.00    +0.000 HD
ENDROOT
BRANCH   1   3
ATOM      3  C   UNL     1      44.381   7.882  11.442  0.00  0.00    +0.000 A 
ATOM      4  C   UNL     1      44.041   9.109  10.864  0.00  0.00    +0.000 A 
ATOM      5  C   UNL     1      44.769  10.254  11.160  0.00  0.00    +0.000 A 
ATOM      6  C   UNL     1      45.869  10.175  11.996  0.00  0.00    +0.000 A 
ATOM      7  F   UNL     1      46.478  11.333  12.281  0.00  0.00    +0.000 F 
ATOM      8  C   UNL     1      46.316   8.954  12.523  0.00  0.00    +0.000 A 
ATOM      9  C   UNL     1      45.541   7.814  12.227  0.00  0.00    +0.000 A 
BRANCH   8  10
ATOM     10  C   UNL     1      47.524   8.795  13.441  0.00  0.00    +0.000 C 
ATOM     11  C   UNL     1      48.856   9.344  12.910  0.00  0.00    +0.000 C 
ATOM     12  C   UNL     1      49.448   8.456  11.811  0.00  0.00    +0.000 C 
ATOM     13  N   UNL     1      49.609   7.061  12.223  0.00  0.00    +0.000 NA
ATOM     14  C   UNL     1      48.399   6.480  12.799  0.00  0.00    +0.000 C 
ATOM     15  C   UNL     1      47.771   7.340  13.894  0.00  0.00    +0.000 C 
ATOM     16  H   UNL     1      50.368   7.003  12.897  0.00  0.00    +0.000 HD
ENDBRANCH   8  10
ENDBRANCH   1   3
BRANCH   1  17
ATOM     17  C   UNL     1      44.412   5.460  11.370  0.00  0.00    +0.000 C 
BRANCH  17  18
ATOM     18  C   UNL     1      43.762   4.303  10.614  0.00  0.00    +0.000 C 
BRANCH  18  22
ATOM     19  C   UNL     1      46.450   2.732   7.624  0.00  0.00    +0.000 A 
ATOM     20  C   UNL     1      45.758   1.857   8.469  0.00  0.00    +0.000 A 
ATOM     21  C   UNL     1      44.889   2.364   9.440  0.00  0.00    +0.000 A 
ATOM     22  C   UNL     1      44.698   3.744   9.567  0.00  0.00    +0.000 A 
ATOM     23  C   UNL     1      45.413   4.618   8.736  0.00  0.00    +0.000 A 
ATOM     24  C   UNL     1      46.287   4.112   7.765  0.00  0.00    +0.000 A 
BRANCH  19  26
ATOM     25  N   UNL     1      47.476   2.947   5.427  0.00  0.00    +0.000 N 
ATOM     26  C   UNL     1      47.382   2.221   6.580  0.00  0.00    +0.000 C 
ATOM     27  O   UNL     1      48.061   1.216   6.755  0.00  0.00    +0.000 OA
ATOM     28  H   UNL     1      48.170   2.638   4.756  0.00  0.00    +0.000 HD
ATOM     29  H   UNL     1      47.142   3.899   5.351  0.00  0.00    +0.000 HD
ENDBRANCH  19  26
ENDBRANCH  18  22
ENDBRANCH  17  18
ENDBRANCH   1  17
TORSDOF 6
ENDMDL
MODEL 5
REMARK VINA RESULT:    -7.188      3.593      8.483
REMARK INTER + INTRA:         -10.154
REMARK INTER:                  -9.860
REMARK INTRA:                  -0.294
REMARK UNBOUND:                -0.444
REMARK  Name = 
REMARK  6 active torsions:
REMARK  status: ('A' for Active; 'I' for Inactive)
REMARK    1  A    between atoms: C_2  and  C_4
REMARK    2  A    between atoms: C_7  and  C_8
REMARK    3  A    between atoms: C_8  and  C_9
REMARK    4  A    between atoms: C_9  and  N_10
REMARK    5  A    between atoms: N_10  and  C_11
REMARK    6  A    between atoms: C_16  and  C_17
REMARK                            x       y       z     vdW  Elec       q    Type
REMARK                         _______ _______ _______ _____ _____    ______ ____
ROOT
ATOM      1  N   UNL     1      46.580   4.333  15.256  0.00  0.00    +0.000 N 
ATOM      2  H   UNL     1      46.448   3.327  15.169  0.00  0.00    +0.000 HD
ENDROOT
BRANCH   1   3
ATOM      3  C   UNL     1      46.534   4.969  14.004  0.00  0.00    +0.000 A 
ATOM      4  C   UNL     1      47.525   5.857  13.572  0.00  0.00    +0.000 A 
ATOM      5  C   UNL     1      47.453   6.435  12.312  0.00  0.00    +0.000 A 
ATOM      6  C   UNL     1      46.370   6.169  11.491  0.00  0.00    +0.000 A 
ATOM      7  F   UNL     1      46.408   6.714  10.269  0.00  0.00    +0.000 F 
ATOM      8  C   UNL     1      45.299   5.367  11.912  0.00  0.00    +0.000 A 
ATOM      9  C   UNL     1      45.412   4.773  13.185  0.00  0.00    +0.000 A 
BRANCH   8  10
ATOM     10  C   UNL     1      44.072   5.042  11.064  0.00  0.00    +0.000 C 
ATOM     11  C   UNL     1      42.975   4.215  11.749  0.00  0.00    +0.000 C 
ATOM     12  C   UNL     1      43.378   2.746  11.912  0.00  0.00    +0.000 C 
ATOM     13  N   UNL     1      43.768   2.114  10.650  0.00  0.00    +0.000 NA
ATOM     14  C   UNL     1      44.768   2.873   9.903  0.00  0.00    +0.000 C 
ATOM     15  C   UNL     1      44.408   4.347   9.727  0.00  0.00    +0.000 C 
ATOM     16  H   UNL     1      42.938   1.987  10.076  0.00  0.00    +0.000 HD
ENDBRANCH   8  10
ENDBRANCH   1   3
BRANCH   1  17
ATOM     17  C   UNL     1      47.715   4.712  16.104  0.00  0.00    +0.000 C 
BRANCH  17  18
ATOM     18  C   UNL     1      47.859   3.769  17.298  0.00  0.00    +0.000 C 
BRANCH  18  22
ATOM     19  C   UNL     1      51.956   2.498  17.778  0.00  0.00    +0.000 A 
ATOM     20  C   UNL     1      51.566   3.774  18.203  0.00  0.00    +0.000 A 
ATOM     21  C   UNL     1      50.240   4.189  18.046  0.00  0.00    +0.000 A 
ATOM     22  C   UNL     1      49.294   3.330  17.474  0.00  0.00    +0.000 A 
ATOM     23  C   UNL     1      49.694   2.064  17.027  0.00  0.00    +0.000 A 
ATOM     24  C   UNL     1      51.023   1.649  17.179  0.00  0.00    +0.000 A 
BRANCH  19  26
ATOM     25  N   UNL     1      53.547   0.837  18.572  0.00  0.00    +0.000 N 
ATOM     26  C   UNL     1      53.361   2.029  17.933  0.00  0.00    +0.000 C 
ATOM     27  O   UNL     1      54.307   2.662  17.480  0.00  0.00    +0.000 OA
ATOM     28  H   UNL     1      54.498   0.487  18.603  0.00  0.00    +0.000 HD
ATOM     29  H   UNL     1      52.798   0.173  18.722  0.00  0.00    +0.000 HD
ENDBRANCH  19  26
ENDBRANCH  18  22
ENDBRANCH  17  18
ENDBRANCH   1  17
TORSDOF 6
ENDMDL
MODEL 6
REMARK VINA RESULT:    -6.883      3.541      4.543
REMARK INTER + INTRA:          -9.741
REMARK INTER:                  -8.807
REMARK INTRA:                  -0.934
REMARK UNBOUND:                -0.444
REMARK  Name = 
REMARK  6 active torsions:
REMARK  status: ('A' for Active; 'I' for Inactive)
REMARK    1  A    between atoms: C_2  and  C_4
REMARK    2  A    between atoms: C_7  and  C_8
REMARK    3  A    between atoms: C_8  and  C_9
REMARK    4  A    between atoms: C_9  and  N_10
REMARK    5  A    between atoms: N_10  and  C_11
REMARK    6  A    between atoms: C_16  and  C_17
REMARK                            x       y       z     vdW  Elec       q    Type
REMARK                         _______ _______ _______ _____ _____    ______ ____
ROOT
ATOM      1  N   UNL     1      47.983   7.970  14.776  0.00  0.00    +0.000 N 
ATOM      2  H   UNL     1      47.731   8.853  15.215  0.00  0.00    +0.000 HD
ENDROOT
BRANCH   1   3
ATOM      3  C   UNL     1      48.947   7.276  15.527  0.00  0.00    +0.000 A 
ATOM      4  C   UNL     1      50.295   7.649  15.551  0.00  0.00    +0.000 A 
ATOM      5  C   UNL     1      51.205   6.954  16.336  0.00  0.00    +0.000 A 
ATOM      6  C   UNL     1      50.787   5.854  17.066  0.00  0.00    +0.000 A 
ATOM      7  F   UNL     1      51.711   5.278  17.846  0.00  0.00    +0.000 F 
ATOM      8  C   UNL     1      49.471   5.375  17.000  0.00  0.00    +0.000 A 
ATOM      9  C   UNL     1      48.564   6.117  16.216  0.00  0.00    +0.000 A 
BRANCH   8  10
ATOM     10  C   UNL     1      48.947   4.166  17.769  0.00  0.00    +0.000 C 
ATOM     11  C   UNL     1      49.971   3.065  18.079  0.00  0.00    +0.000 C 
ATOM     12  C   UNL     1      50.330   2.245  16.835  0.00  0.00    +0.000 C 
ATOM     13  N   UNL     1      49.161   1.669  16.169  0.00  0.00    +0.000 NA
ATOM     14  C   UNL     1      48.109   2.645  15.893  0.00  0.00    +0.000 C 
ATOM     15  C   UNL     1      47.727   3.490  17.107  0.00  0.00    +0.000 C 
ATOM     16  H   UNL     1      48.788   0.922  16.748  0.00  0.00    +0.000 HD
ENDBRANCH   8  10
ENDBRANCH   1   3
BRANCH   1  17
ATOM     17  C   UNL     1      48.273   8.081  13.342  0.00  0.00    +0.000 C 
BRANCH  17  18
ATOM     18  C   UNL     1      48.415   6.706  12.693  0.00  0.00    +0.000 C 
BRANCH  18  22
ATOM     19  C   UNL     1      44.552   4.930  11.945  0.00  0.00    +0.000 A 
ATOM     20  C   UNL     1      45.349   4.453  12.993  0.00  0.00    +0.000 A 
ATOM     21  C   UNL     1      46.601   5.025  13.235  0.00  0.00    +0.000 A 
ATOM     22  C   UNL     1      47.062   6.081  12.441  0.00  0.00    +0.000 A 
ATOM     23  C   UNL     1      46.272   6.538  11.377  0.00  0.00    +0.000 A 
ATOM     24  C   UNL     1      45.019   5.962  11.130  0.00  0.00    +0.000 A 
BRANCH  19  26
ATOM     25  N   UNL     1      42.139   5.178  11.750  0.00  0.00    +0.000 N 
ATOM     26  C   UNL     1      43.213   4.340  11.664  0.00  0.00    +0.000 C 
ATOM     27  O   UNL     1      43.080   3.167  11.336  0.00  0.00    +0.000 OA
ATOM     28  H   UNL     1      41.243   4.789  11.479  0.00  0.00    +0.000 HD
ATOM     29  H   UNL     1      42.230   6.185  11.758  0.00  0.00    +0.000 HD
ENDBRANCH  19  26
ENDBRANCH  18  22
ENDBRANCH  17  18
ENDBRANCH   1  17
TORSDOF 6
ENDMDL
MODEL 7
REMARK VINA RESULT:    -6.855      4.854      7.061
REMARK INTER + INTRA:          -9.704
REMARK INTER:                  -9.300
REMARK INTRA:                  -0.404
REMARK UNBOUND:                -0.444
REMARK  Name = 
REMARK  6 active torsions:
REMARK  status: ('A' for Active; 'I' for Inactive)
REMARK    1  A    between atoms: C_2  and  C_4
REMARK    2  A    between atoms: C_7  and  C_8
REMARK    3  A    between atoms: C_8  and  C_9
REMARK    4  A    between atoms: C_9  and  N_10
REMARK    5  A    between atoms: N_10  and  C_11
REMARK    6  A    between atoms: C_16  and  C_17
REMARK                            x       y       z     vdW  Elec       q    Type
REMARK                         _______ _______ _______ _____ _____    ______ ____
ROOT
ATOM      1  N   UNL     1      44.562   7.140  11.962  0.00  0.00    +0.000 N 
ATOM      2  H   UNL     1      43.554   7.002  11.931  0.00  0.00    +0.000 HD
ENDROOT
BRANCH   1   3
ATOM      3  C   UNL     1      44.901   8.497  11.831  0.00  0.00    +0.000 A 
ATOM      4  C   UNL     1      45.976   9.075  12.516  0.00  0.00    +0.000 A 
ATOM      5  C   UNL     1      46.295  10.413  12.327  0.00  0.00    +0.000 A 
ATOM      6  C   UNL     1      45.516  11.196  11.492  0.00  0.00    +0.000 A 
ATOM      7  F   UNL     1      45.928  12.458  11.315  0.00  0.00    +0.000 F 
ATOM      8  C   UNL     1      44.368  10.696  10.860  0.00  0.00    +0.000 A 
ATOM      9  C   UNL     1      44.086   9.328  11.049  0.00  0.00    +0.000 A 
BRANCH   8  10
ATOM     10  C   UNL     1      43.462  11.505   9.936  0.00  0.00    +0.000 C 
ATOM     11  C   UNL     1      43.069  12.904  10.429  0.00  0.00    +0.000 C 
ATOM     12  C   UNL     1      42.036  12.847  11.559  0.00  0.00    +0.000 C 
ATOM     13  N   UNL     1      40.837  12.085  11.205  0.00  0.00    +0.000 NA
ATOM     14  C   UNL     1      41.129  10.758  10.667  0.00  0.00    +0.000 C 
ATOM     15  C   UNL     1      42.163  10.770   9.543  0.00  0.00    +0.000 C 
ATOM     16  H   UNL     1      40.299  12.617  10.526  0.00  0.00    +0.000 HD
ENDBRANCH   8  10
ENDBRANCH   1   3
BRANCH   1  17
ATOM     17  C   UNL     1      45.314   6.225  11.098  0.00  0.00    +0.000 C 
BRANCH  17  18
ATOM     18  C   UNL     1      44.399   5.178  10.463  0.00  0.00    +0.000 C 
BRANCH  18  22
ATOM     19  C   UNL     1      46.561   2.659   7.704  0.00  0.00    +0.000 A 
ATOM     20  C   UNL     1      46.618   4.051   7.569  0.00  0.00    +0.000 A 
ATOM     21  C   UNL     1      45.916   4.869   8.460  0.00  0.00    +0.000 A 
ATOM     22  C   UNL     1      45.163   4.304   9.495  0.00  0.00    +0.000 A 
ATOM     23  C   UNL     1      45.087   2.909   9.610  0.00  0.00    +0.000 A 
ATOM     24  C   UNL     1      45.786   2.088   8.715  0.00  0.00    +0.000 A 
BRANCH  19  26
ATOM     25  N   UNL     1      48.391   2.288   6.144  0.00  0.00    +0.000 N 
ATOM     26  C   UNL     1      47.298   1.762   6.770  0.00  0.00    +0.000 C 
ATOM     27  O   UNL     1      46.964   0.596   6.594  0.00  0.00    +0.000 OA
ATOM     28  H   UNL     1      48.933   1.648   5.573  0.00  0.00    +0.000 HD
ATOM     29  H   UNL     1      48.844   3.137   6.453  0.00  0.00    +0.000 HD
ENDBRANCH  19  26
ENDBRANCH  18  22
ENDBRANCH  17  18
ENDBRANCH   1  17
TORSDOF 6
ENDMDL
MODEL 8
REMARK VINA RESULT:    -6.663      2.890      3.885
REMARK INTER + INTRA:          -9.445
REMARK INTER:                  -8.643
REMARK INTRA:                  -0.801
REMARK UNBOUND:                -0.444
REMARK  Name = 
REMARK  6 active torsions:
REMARK  status: ('A' for Active; 'I' for Inactive)
REMARK    1  A    between atoms: C_2  and  C_4
REMARK    2  A    between atoms: C_7  and  C_8
REMARK    3  A    between atoms: C_8  and  C_9
REMARK    4  A    between atoms: C_9  and  N_10
REMARK    5  A    between atoms: N_10  and  C_11
REMARK    6  A    between atoms: C_16  and  C_17
REMARK                            x       y       z     vdW  Elec       q    Type
REMARK                         _______ _______ _______ _____ _____    ______ ____
ROOT
ATOM      1  N   UNL     1      48.618   6.741  13.328  0.00  0.00    +0.000 N 
ATOM      2  H   UNL     1      48.312   5.802  13.083  0.00  0.00    +0.000 HD
ENDROOT
BRANCH   1   3
ATOM      3  C   UNL     1      48.703   6.909  14.721  0.00  0.00    +0.000 A 
ATOM      4  C   UNL     1      49.126   8.103  15.312  0.00  0.00    +0.000 A 
ATOM      5  C   UNL     1      49.159   8.233  16.694  0.00  0.00    +0.000 A 
ATOM      6  C   UNL     1      48.816   7.158  17.496  0.00  0.00    +0.000 A 
ATOM      7  F   UNL     1      48.813   7.385  18.816  0.00  0.00    +0.000 F 
ATOM      8  C   UNL     1      48.481   5.907  16.959  0.00  0.00    +0.000 A 
ATOM      9  C   UNL     1      48.430   5.814  15.553  0.00  0.00    +0.000 A 
BRANCH   8  10
ATOM     10  C   UNL     1      48.102   4.680  17.783  0.00  0.00    +0.000 C 
ATOM     11  C   UNL     1      49.264   3.920  18.439  0.00  0.00    +0.000 C 
ATOM     12  C   UNL     1      50.071   3.110  17.419  0.00  0.00    +0.000 C 
ATOM     13  N   UNL     1      49.247   2.188  16.635  0.00  0.00    +0.000 NA
ATOM     14  C   UNL     1      48.081   2.824  16.026  0.00  0.00    +0.000 C 
ATOM     15  C   UNL     1      47.253   3.650  17.009  0.00  0.00    +0.000 C 
ATOM     16  H   UNL     1      48.944   1.426  17.237  0.00  0.00    +0.000 HD
ENDBRANCH   8  10
ENDBRANCH   1   3
BRANCH   1  17
ATOM     17  C   UNL     1      47.904   7.805  12.616  0.00  0.00    +0.000 C 
BRANCH  17  18
ATOM     18  C   UNL     1      46.408   7.777  12.925  0.00  0.00    +0.000 C 
BRANCH  18  22
ATOM     19  C   UNL     1      44.618   4.115  11.503  0.00  0.00    +0.000 A 
ATOM     20  C   UNL     1      44.855   4.291  12.871  0.00  0.00    +0.000 A 
ATOM     21  C   UNL     1      45.438   5.475  13.334  0.00  0.00    +0.000 A 
ATOM     22  C   UNL     1      45.776   6.494  12.436  0.00  0.00    +0.000 A 
ATOM     23  C   UNL     1      45.562   6.303  11.064  0.00  0.00    +0.000 A 
ATOM     24  C   UNL     1      44.983   5.115  10.599  0.00  0.00    +0.000 A 
BRANCH  19  26
ATOM     25  N   UNL     1      44.639   2.243   9.948  0.00  0.00    +0.000 N 
ATOM     26  C   UNL     1      43.999   2.864  10.981  0.00  0.00    +0.000 C 
ATOM     27  O   UNL     1      42.982   2.392  11.476  0.00  0.00    +0.000 OA
ATOM     28  H   UNL     1      44.255   1.352   9.652  0.00  0.00    +0.000 HD
ATOM     29  H   UNL     1      45.595   2.449   9.693  0.00  0.00    +0.000 HD
ENDBRANCH  19  26
ENDBRANCH  18  22
ENDBRANCH  17  18
ENDBRANCH   1  17
TORSDOF 6
ENDMDL
MODEL 9
REMARK VINA RESULT:    -6.451      2.528      4.102
REMARK INTER + INTRA:          -9.158
REMARK INTER:                  -8.774
REMARK INTRA:                  -0.384
REMARK UNBOUND:                -0.444
REMARK  Name = 
REMARK  6 active torsions:
REMARK  status: ('A' for Active; 'I' for Inactive)
REMARK    1  A    between atoms: C_2  and  C_4
REMARK    2  A    between atoms: C_7  and  C_8
REMARK    3  A    between atoms: C_8  and  C_9
REMARK    4  A    between atoms: C_9  and  N_10
REMARK    5  A    between atoms: N_10  and  C_11
REMARK    6  A    between atoms: C_16  and  C_17
REMARK                            x       y       z     vdW  Elec       q    Type
REMARK                         _______ _______ _______ _____ _____    ______ ____
ROOT
ATOM      1  N   UNL     1      46.965   3.722  15.121  0.00  0.00    +0.000 N 
ATOM      2  H   UNL     1      46.071   3.255  15.258  0.00  0.00    +0.000 HD
ENDROOT
BRANCH   1   3
ATOM      3  C   UNL     1      47.631   3.926  16.341  0.00  0.00    +0.000 A 
ATOM      4  C   UNL     1      47.619   2.983  17.374  0.00  0.00    +0.000 A 
ATOM      5  C   UNL     1      48.322   3.215  18.549  0.00  0.00    +0.000 A 
ATOM      6  C   UNL     1      49.002   4.408  18.722  0.00  0.00    +0.000 A 
ATOM      7  F   UNL     1      49.706   4.527  19.855  0.00  0.00    +0.000 F 
ATOM      8  C   UNL     1      48.965   5.431  17.762  0.00  0.00    +0.000 A 
ATOM      9  C   UNL     1      48.266   5.155  16.570  0.00  0.00    +0.000 A 
BRANCH   8  10
ATOM     10  C   UNL     1      49.682   6.771  17.893  0.00  0.00    +0.000 C 
ATOM     11  C   UNL     1      49.118   7.742  18.940  0.00  0.00    +0.000 C 
ATOM     12  C   UNL     1      47.800   8.377  18.485  0.00  0.00    +0.000 C 
ATOM     13  N   UNL     1      47.902   9.044  17.186  0.00  0.00    +0.000 NA
ATOM     14  C   UNL     1      48.488   8.204  16.145  0.00  0.00    +0.000 C 
ATOM     15  C   UNL     1      49.801   7.543  16.562  0.00  0.00    +0.000 C 
ATOM     16  H   UNL     1      48.455   9.890  17.293  0.00  0.00    +0.000 HD
ENDBRANCH   8  10
ENDBRANCH   1   3
BRANCH   1  17
ATOM     17  C   UNL     1      46.895   4.897  14.246  0.00  0.00    +0.000 C 
BRANCH  17  18
ATOM     18  C   UNL     1      45.487   5.092  13.686  0.00  0.00    +0.000 C 
BRANCH  18  22
ATOM     19  C   UNL     1      45.347   4.223   9.460  0.00  0.00    +0.000 A 
ATOM     20  C   UNL     1      45.751   5.489   9.899  0.00  0.00    +0.000 A 
ATOM     21  C   UNL     1      45.794   5.774  11.268  0.00  0.00    +0.000 A 
ATOM     22  C   UNL     1      45.446   4.795  12.205  0.00  0.00    +0.000 A 
ATOM     23  C   UNL     1      45.016   3.537  11.760  0.00  0.00    +0.000 A 
ATOM     24  C   UNL     1      44.967   3.252  10.389  0.00  0.00    +0.000 A 
BRANCH  19  26
ATOM     25  N   UNL     1      44.210   3.175   7.581  0.00  0.00    +0.000 N 
ATOM     26  C   UNL     1      45.291   3.891   8.009  0.00  0.00    +0.000 C 
ATOM     27  O   UNL     1      46.154   4.270   7.225  0.00  0.00    +0.000 OA
ATOM     28  H   UNL     1      44.140   3.022   6.581  0.00  0.00    +0.000 HD
ATOM     29  H   UNL     1      43.368   3.074   8.130  0.00  0.00    +0.000 HD
ENDBRANCH  19  26
ENDBRANCH  18  22
ENDBRANCH  17  18
ENDBRANCH   1  17
TORSDOF 6
ENDMDL
