MODEL 1
REMARK VINA RESULT:    -8.663      0.000      0.000
REMARK INTER + INTRA:         -14.181
REMARK INTER:                 -12.715
REMARK INTRA:                  -1.467
REMARK UNBOUND:                -1.467
REMARK  Name = 
REMARK  8 active torsions:
REMARK  status: ('A' for Active; 'I' for Inactive)
REMARK    1  A    between atoms: C_2  and  C_4
REMARK    2  A    between atoms: C_8  and  C_9
REMARK    3  A    between atoms: C_9  and  N_10
REMARK    4  A    between atoms: N_10  and  C_11
REMARK    5  A    between atoms: C_11  and  C_12
REMARK    6  A    between atoms: C_15  and  C_16
REMARK    7  A    between atoms: C_16  and  N_17
REMARK    8  A    between atoms: C_18  and  C_20
REMARK                            x       y       z     vdW  Elec       q    Type
REMARK                         _______ _______ _______ _____ _____    ______ ____
ROOT
ATOM      1  C   UNL     1      44.459   4.722  12.686  0.00  0.00    +0.000 A 
ATOM      2  C   UNL     1      45.673   4.226  13.189  0.00  0.00    +0.000 A 
ATOM      3  C   UNL     1      46.743   5.084  13.457  0.00  0.00    +0.000 A 
ATOM      4  C   UNL     1      46.628   6.459  13.219  0.00  0.00    +0.000 A 
ATOM      5  C   UNL     1      45.431   6.952  12.682  0.00  0.00    +0.000 A 
ATOM      6  C   UNL     1      44.356   6.095  12.427  0.00  0.00    +0.000 A 
ENDROOT
BRANCH   1   7
ATOM      7  C   UNL     1      43.292   3.795  12.418  0.00  0.00    +0.000 C 
BRANCH   7   8
ATOM      8  N   UNL     1      43.149   3.536  10.990  0.00  0.00    +0.000 NA
ATOM      9  H   UNL     1      42.178   3.309  10.783  0.00  0.00    +0.000 HD
BRANCH   8  10
ATOM     10  C   UNL     1      43.986   2.431  10.534  0.00  0.00    +0.000 C 
BRANCH  10  15
ATOM     11  C   UNL     1      46.558   2.505   7.703  0.00  0.00    +0.000 A 
ATOM     12  C   UNL     1      46.632   3.877   7.436  0.00  0.00    +0.000 A 
ATOM     13  C   UNL     1      45.893   4.777   8.206  0.00  0.00    +0.000 A 
ATOM     14  C   UNL     1      45.070   4.307   9.229  0.00  0.00    +0.000 A 
ATOM     15  C   UNL     1      44.960   2.933   9.490  0.00  0.00    +0.000 A 
ATOM     16  C   UNL     1      45.719   2.037   8.724  0.00  0.00    +0.000 A 
BRANCH  11  18
ATOM     17  N   UNL     1      48.404   1.953   6.206  0.00  0.00    +0.000 N 
ATOM     18  C   UNL     1      47.312   1.508   6.899  0.00  0.00    +0.000 C 
ATOM     19  O   UNL     1      46.996   0.325   6.879  0.00  0.00    +0.000 OA
ATOM     20  H   UNL     1      48.962   1.245   5.747  0.00  0.00    +0.000 HD
ATOM     21  H   UNL     1      48.834   2.848   6.385  0.00  0.00    +0.000 HD
ENDBRANCH  11  18
ENDBRANCH  10  15
ENDBRANCH   8  10
ENDBRANCH   7   8
ENDBRANCH   1   7
BRANCH   4  22
ATOM     22  C   UNL     1      47.783   7.388  13.483  0.00  0.00    +0.000 C 
BRANCH  22  23
ATOM     23  N   UNL     1      47.869   7.710  14.884  0.00  0.00    +0.000 N 
ATOM     24  C   UNL     1      48.829   7.156  15.689  0.00  0.00    +0.000 C 
ATOM     25  O   UNL     1      49.692   6.401  15.249  0.00  0.00    +0.000 OA
ATOM     26  H   UNL     1      47.054   8.145  15.304  0.00  0.00    +0.000 HD
BRANCH  24  27
ATOM     27  C   UNL     1      48.811   7.560  17.101  0.00  0.00    +0.000 A 
ATOM     28  C   UNL     1      49.405   8.758  17.480  0.00  0.00    +0.000 A 
ATOM     29  S   UNL     1      49.254   9.099  19.143  0.00  0.00    +0.000 S 
ATOM     30  C   UNL     1      48.434   7.636  19.426  0.00  0.00    +0.000 A 
ATOM     31  N   UNL     1      48.034   7.290  20.680  0.00  0.00    +0.000 NA
ATOM     32  C   UNL     1      47.450   6.141  20.756  0.00  0.00    +0.000 A 
ATOM     33  N   UNL     1      47.226   5.307  19.691  0.00  0.00    +0.000 N 
ATOM     34  C   UNL     1      47.589   5.626  18.404  0.00  0.00    +0.000 A 
ATOM     35  O   UNL     1      47.337   4.874  17.470  0.00  0.00    +0.000 OA
ATOM     36  C   UNL     1      48.260   6.904  18.265  0.00  0.00    +0.000 A 
ATOM     37  H   UNL     1      46.751   4.424  19.816  0.00  0.00    +0.000 HD
ENDBRANCH  24  27
ENDBRANCH  22  23
ENDBRANCH   4  22
TORSDOF 8
ENDMDL
MODEL 2
REMARK VINA RESULT:    -8.243      2.048      2.415
REMARK INTER + INTRA:         -13.565
REMARK INTER:                 -12.075
REMARK INTRA:                  -1.490
REMARK UNBOUND:                -1.467
REMARK  Name = 
REMARK  8 active torsions:
REMARK  status: ('A' for Active; 'I' for Inactive)
REMARK    1  A    between atoms: C_2  and  C_4
REMARK    2  A    between atoms: C_8  and  C_9
REMARK    3  A    between atoms: C_9  and  N_10
REMARK    4  A    between atoms: N_10  and  C_11
REMARK    5  A    between atoms: C_11  and  C_12
REMARK    6  A    between atoms: C_15  and  C_16
REMARK    7  A    between atoms: C_16  and  N_17
REMARK    8  A    between atoms: C_18  and  C_20
REMARK                            x       y       z     vdW  Elec       q    Type
REMARK                         _______ _______ _______ _____ _____    ______ ____
ROOT
ATOM      1  C   UNL     1      44.709   4.657  12.727  0.00  0.00    +0.000 A 
ATOM      2  C   UNL     1      44.457   5.983  12.343  0.00  0.00    +0.000 A 
ATOM      3  C   UNL     1      45.435   6.971  12.489  0.00  0.00    +0.000 A 
ATOM      4  C   UNL     1      46.687   6.657  13.032  0.00  0.00    +0.000 A 
ATOM      5  C   UNL     1      46.928   5.342  13.452  0.00  0.00    +0.000 A 
ATOM      6  C   UNL     1      45.954   4.351  13.293  0.00  0.00    +0.000 A 
ENDROOT
BRANCH   1   7
ATOM      7  C   UNL     1      43.658   3.582  12.547  0.00  0.00    +0.000 C 
BRANCH   7   8
ATOM      8  N   UNL     1      43.255   3.475  11.149  0.00  0.00    +0.000 NA
ATOM      9  H   UNL     1      42.244   3.361  11.097  0.00  0.00    +0.000 HD
BRANCH   8  10
ATOM     10  C   UNL     1      43.881   2.344  10.470  0.00  0.00    +0.000 C 
BRANCH  10  15
ATOM     11  C   UNL     1      46.530   2.442   7.713  0.00  0.00    +0.000 A 
ATOM     12  C   UNL     1      46.601   3.815   7.450  0.00  0.00    +0.000 A 
ATOM     13  C   UNL     1      45.834   4.708   8.200  0.00  0.00    +0.000 A 
ATOM     14  C   UNL     1      44.986   4.231   9.199  0.00  0.00    +0.000 A 
ATOM     15  C   UNL     1      44.879   2.855   9.455  0.00  0.00    +0.000 A 
ATOM     16  C   UNL     1      45.666   1.966   8.710  0.00  0.00    +0.000 A 
BRANCH  11  18
ATOM     17  N   UNL     1      48.421   1.906   6.268  0.00  0.00    +0.000 N 
ATOM     18  C   UNL     1      47.314   1.451   6.929  0.00  0.00    +0.000 C 
ATOM     19  O   UNL     1      47.007   0.266   6.900  0.00  0.00    +0.000 OA
ATOM     20  H   UNL     1      48.998   1.203   5.824  0.00  0.00    +0.000 HD
ATOM     21  H   UNL     1      48.839   2.804   6.460  0.00  0.00    +0.000 HD
ENDBRANCH  11  18
ENDBRANCH  10  15
ENDBRANCH   8  10
ENDBRANCH   7   8
ENDBRANCH   1   7
BRANCH   4  22
ATOM     22  C   UNL     1      47.738   7.719  13.215  0.00  0.00    +0.000 C 
BRANCH  22  23
ATOM     23  N   UNL     1      48.883   7.191  13.909  0.00  0.00    +0.000 N 
ATOM     24  C   UNL     1      49.253   7.659  15.143  0.00  0.00    +0.000 C 
ATOM     25  O   UNL     1      48.600   8.511  15.738  0.00  0.00    +0.000 OA
ATOM     26  H   UNL     1      49.549   6.660  13.356  0.00  0.00    +0.000 HD
BRANCH  24  27
ATOM     27  C   UNL     1      50.442   7.043  15.746  0.00  0.00    +0.000 A 
ATOM     28  C   UNL     1      51.700   7.561  15.468  0.00  0.00    +0.000 A 
ATOM     29  S   UNL     1      52.965   6.761  16.283  0.00  0.00    +0.000 S 
ATOM     30  C   UNL     1      51.882   5.661  17.000  0.00  0.00    +0.000 A 
ATOM     31  N   UNL     1      52.330   4.671  17.818  0.00  0.00    +0.000 NA
ATOM     32  C   UNL     1      51.406   3.892  18.269  0.00  0.00    +0.000 A 
ATOM     33  N   UNL     1      50.072   4.014  17.979  0.00  0.00    +0.000 N 
ATOM     34  C   UNL     1      49.570   5.013  17.180  0.00  0.00    +0.000 A 
ATOM     35  O   UNL     1      48.367   5.117  16.974  0.00  0.00    +0.000 OA
ATOM     36  C   UNL     1      50.571   5.912  16.637  0.00  0.00    +0.000 A 
ATOM     37  H   UNL     1      49.395   3.376  18.375  0.00  0.00    +0.000 HD
ENDBRANCH  24  27
ENDBRANCH  22  23
ENDBRANCH   4  22
TORSDOF 8
ENDMDL
MODEL 3
REMARK VINA RESULT:    -7.833      3.254      8.831
REMARK INTER + INTRA:         -12.963
REMARK INTER:                 -11.012
REMARK INTRA:                  -1.951
REMARK UNBOUND:                -1.467
REMARK  Name = 
REMARK  8 active torsions:
REMARK  status: ('A' for Active; 'I' for Inactive)
REMARK    1  A    between atoms: C_2  and  C_4
REMARK    2  A    between atoms: C_8  and  C_9
REMARK    3  A    between atoms: C_9  and  N_10
REMARK    4  A    between atoms: N_10  and  C_11
REMARK    5  A    between atoms: C_11  and  C_12
REMARK    6  A    between atoms: C_15  and  C_16
REMARK    7  A    between atoms: C_16  and  N_17
REMARK    8  A    between atoms: C_18  and  C_20
REMARK                            x       y       z     vdW  Elec       q    Type
REMARK                         _______ _______ _______ _____ _____    ______ ____
ROOT
ATOM      1  C   UNL     1      49.229   8.066  16.021  0.00  0.00    +0.000 A 
ATOM      2  C   UNL     1      49.503   6.966  15.192  0.00  0.00    +0.000 A 
ATOM      3  C   UNL     1      49.012   6.913  13.884  0.00  0.00    +0.000 A 
ATOM      4  C   UNL     1      48.227   7.956  13.377  0.00  0.00    +0.000 A 
ATOM      5  C   UNL     1      47.921   9.037  14.214  0.00  0.00    +0.000 A 
ATOM      6  C   UNL     1      48.423   9.095  15.518  0.00  0.00    +0.000 A 
ENDROOT
BRANCH   1   7
ATOM      7  C   UNL     1      49.780   8.134  17.430  0.00  0.00    +0.000 C 
BRANCH   7   8
ATOM      8  N   UNL     1      48.741   7.842  18.411  0.00  0.00    +0.000 NA
ATOM      9  H   UNL     1      48.656   8.625  19.056  0.00  0.00    +0.000 HD
BRANCH   8  10
ATOM     10  C   UNL     1      49.023   6.637  19.185  0.00  0.00    +0.000 C 
BRANCH  10  15
ATOM     11  C   UNL     1      49.229   3.292  17.339  0.00  0.00    +0.000 A 
ATOM     12  C   UNL     1      47.883   3.071  17.024  0.00  0.00    +0.000 A 
ATOM     13  C   UNL     1      46.922   4.026  17.360  0.00  0.00    +0.000 A 
ATOM     14  C   UNL     1      47.301   5.192  18.024  0.00  0.00    +0.000 A 
ATOM     15  C   UNL     1      48.641   5.417  18.375  0.00  0.00    +0.000 A 
ATOM     16  C   UNL     1      49.603   4.461  18.018  0.00  0.00    +0.000 A 
BRANCH  11  18
ATOM     17  N   UNL     1      51.371   2.241  17.847  0.00  0.00    +0.000 N 
ATOM     18  C   UNL     1      50.285   2.297  17.018  0.00  0.00    +0.000 C 
ATOM     19  O   UNL     1      50.179   1.529  16.070  0.00  0.00    +0.000 OA
ATOM     20  H   UNL     1      52.029   1.493  17.674  0.00  0.00    +0.000 HD
ATOM     21  H   UNL     1      51.382   2.676  18.758  0.00  0.00    +0.000 HD
ENDBRANCH  11  18
ENDBRANCH  10  15
ENDBRANCH   8  10
ENDBRANCH   7   8
ENDBRANCH   1   7
BRANCH   4  22
ATOM     22  C   UNL     1      47.676   7.896  11.977  0.00  0.00    +0.000 C 
BRANCH  22  23
ATOM     23  N   UNL     1      46.967   6.661  11.761  0.00  0.00    +0.000 N 
ATOM     24  C   UNL     1      45.603   6.588  11.872  0.00  0.00    +0.000 C 
ATOM     25  O   UNL     1      44.916   7.578  12.109  0.00  0.00    +0.000 OA
ATOM     26  H   UNL     1      47.517   5.808  11.784  0.00  0.00    +0.000 HD
BRANCH  24  27
ATOM     27  C   UNL     1      44.997   5.272  11.632  0.00  0.00    +0.000 A 
ATOM     28  C   UNL     1      44.320   4.629  12.661  0.00  0.00    +0.000 A 
ATOM     29  S   UNL     1      43.638   3.136  12.203  0.00  0.00    +0.000 S 
ATOM     30  C   UNL     1      44.265   3.270  10.626  0.00  0.00    +0.000 A 
ATOM     31  N   UNL     1      44.062   2.288   9.707  0.00  0.00    +0.000 NA
ATOM     32  C   UNL     1      44.617   2.505   8.563  0.00  0.00    +0.000 A 
ATOM     33  N   UNL     1      45.354   3.618   8.251  0.00  0.00    +0.000 N 
ATOM     34  C   UNL     1      45.564   4.647   9.137  0.00  0.00    +0.000 A 
ATOM     35  O   UNL     1      46.195   5.646   8.813  0.00  0.00    +0.000 OA
ATOM     36  C   UNL     1      44.970   4.447  10.446  0.00  0.00    +0.000 A 
ATOM     37  H   UNL     1      45.753   3.734   7.330  0.00  0.00    +0.000 HD
ENDBRANCH  24  27
ENDBRANCH  22  23
ENDBRANCH   4  22
TORSDOF 8
ENDMDL
MODEL 4
REMARK VINA RESULT:    -7.818      3.516      8.978
REMARK INTER + INTRA:         -12.941
REMARK INTER:                 -11.267
REMARK INTRA:                  -1.674
REMARK UNBOUND:                -1.467
REMARK  Name = 
REMARK  8 active torsions:
REMARK  status: ('A' for Active; 'I' for Inactive)
REMARK    1  A    between atoms: C_2  and  C_4
REMARK    2  A    between atoms: C_8  and  C_9
REMARK    3  A    between atoms: C_9  and  N_10
REMARK    4  A    between atoms: N_10  and  C_11
REMARK    5  A    between atoms: C_11  and  C_12
REMARK    6  A    between atoms: C_15  and  C_16
REMARK    7  A    between atoms: C_16  and  N_17
REMARK    8  A    between atoms: C_18  and  C_20
REMARK                            x       y       z     vdW  Elec       q    Type
REMARK                         _______ _______ _______ _____ _____    ______ ____
ROOT
ATOM      1  C   UNL     1      50.509   7.513  14.966  0.00  0.00    +0.000 A 
ATOM      2  C   UNL     1      49.203   7.015  15.104  0.00  0.00    +0.000 A 
ATOM      3  C   UNL     1      48.288   7.100  14.050  0.00  0.00    +0.000 A 
ATOM      4  C   UNL     1      48.656   7.694  12.836  0.00  0.00    +0.000 A 
ATOM      5  C   UNL     1      49.946   8.225  12.709  0.00  0.00    +0.000 A 
ATOM      6  C   UNL     1      50.865   8.128  13.759  0.00  0.00    +0.000 A 
ENDROOT
BRANCH   1   7
ATOM      7  C   UNL     1      51.508   7.400  16.100  0.00  0.00    +0.000 C 
BRANCH   7   8
ATOM      8  N   UNL     1      50.847   7.004  17.339  0.00  0.00    +0.000 NA
ATOM      9  H   UNL     1      50.804   7.804  17.968  0.00  0.00    +0.000 HD
BRANCH   8  10
ATOM     10  C   UNL     1      51.542   5.917  18.022  0.00  0.00    +0.000 C 
BRANCH  10  15
ATOM     11  C   UNL     1      48.874   3.355  17.048  0.00  0.00    +0.000 A 
ATOM     12  C   UNL     1      49.637   2.185  16.960  0.00  0.00    +0.000 A 
ATOM     13  C   UNL     1      50.998   2.217  17.268  0.00  0.00    +0.000 A 
ATOM     14  C   UNL     1      51.600   3.417  17.647  0.00  0.00    +0.000 A 
ATOM     15  C   UNL     1      50.856   4.606  17.710  0.00  0.00    +0.000 A 
ATOM     16  C   UNL     1      49.486   4.562  17.417  0.00  0.00    +0.000 A 
BRANCH  11  18
ATOM     17  N   UNL     1      47.075   3.802  15.461  0.00  0.00    +0.000 N 
ATOM     18  C   UNL     1      47.426   3.375  16.712  0.00  0.00    +0.000 C 
ATOM     19  O   UNL     1      46.576   2.993  17.506  0.00  0.00    +0.000 OA
ATOM     20  H   UNL     1      46.098   3.714  15.215  0.00  0.00    +0.000 HD
ATOM     21  H   UNL     1      47.743   3.891  14.710  0.00  0.00    +0.000 HD
ENDBRANCH  11  18
ENDBRANCH  10  15
ENDBRANCH   8  10
ENDBRANCH   7   8
ENDBRANCH   1   7
BRANCH   4  22
ATOM     22  C   UNL     1      47.669   7.811  11.705  0.00  0.00    +0.000 C 
BRANCH  22  23
ATOM     23  N   UNL     1      46.952   6.575  11.524  0.00  0.00    +0.000 N 
ATOM     24  C   UNL     1      45.604   6.489  11.755  0.00  0.00    +0.000 C 
ATOM     25  O   UNL     1      44.934   7.467  12.075  0.00  0.00    +0.000 OA
ATOM     26  H   UNL     1      47.507   5.727  11.478  0.00  0.00    +0.000 HD
BRANCH  24  27
ATOM     27  C   UNL     1      44.987   5.174  11.539  0.00  0.00    +0.000 A 
ATOM     28  C   UNL     1      44.298   4.560  12.577  0.00  0.00    +0.000 A 
ATOM     29  S   UNL     1      43.604   3.063  12.146  0.00  0.00    +0.000 S 
ATOM     30  C   UNL     1      44.243   3.157  10.572  0.00  0.00    +0.000 A 
ATOM     31  N   UNL     1      44.037   2.157   9.673  0.00  0.00    +0.000 NA
ATOM     32  C   UNL     1      44.601   2.344   8.528  0.00  0.00    +0.000 A 
ATOM     33  N   UNL     1      45.352   3.443   8.197  0.00  0.00    +0.000 N 
ATOM     34  C   UNL     1      45.565   4.489   9.062  0.00  0.00    +0.000 A 
ATOM     35  O   UNL     1      46.207   5.474   8.720  0.00  0.00    +0.000 OA
ATOM     36  C   UNL     1      44.960   4.323  10.371  0.00  0.00    +0.000 A 
ATOM     37  H   UNL     1      45.758   3.534   7.276  0.00  0.00    +0.000 HD
ENDBRANCH  24  27
ENDBRANCH  22  23
ENDBRANCH   4  22
TORSDOF 8
ENDMDL
MODEL 5
REMARK VINA RESULT:    -7.642      3.820      8.505
REMARK INTER + INTRA:         -12.683
REMARK INTER:                 -10.385
REMARK INTRA:                  -2.298
REMARK UNBOUND:                -1.467
REMARK  Name = 
REMARK  8 active torsions:
REMARK  status: ('A' for Active; 'I' for Inactive)
REMARK    1  A    between atoms: C_2  and  C_4
REMARK    2  A    between atoms: C_8  and  C_9
REMARK    3  A    between atoms: C_9  and  N_10
REMARK    4  A    between atoms: N_10  and  C_11
REMARK    5  A    between atoms: C_11  and  C_12
REMARK    6  A    between atoms: C_15  and  C_16
REMARK    7  A    between atoms: C_16  and  N_17
REMARK    8  A    between atoms: C_18  and  C_20
REMARK                            x       y       z     vdW  Elec       q    Type
REMARK                         _______ _______ _______ _____ _____    ______ ____
ROOT
ATOM      1  C   UNL     1      49.652   8.112  18.514  0.00  0.00    +0.000 A 
ATOM      2  C   UNL     1      48.550   8.941  18.250  0.00  0.00    +0.000 A 
ATOM      3  C   UNL     1      48.107   9.151  16.941  0.00  0.00    +0.000 A 
ATOM      4  C   UNL     1      48.762   8.544  15.863  0.00  0.00    +0.000 A 
ATOM      5  C   UNL     1      49.885   7.746  16.120  0.00  0.00    +0.000 A 
ATOM      6  C   UNL     1      50.320   7.526  17.431  0.00  0.00    +0.000 A 
ENDROOT
BRANCH   1   7
ATOM      7  C   UNL     1      50.117   7.866  19.934  0.00  0.00    +0.000 C 
BRANCH   7   8
ATOM      8  N   UNL     1      50.285   6.439  20.187  0.00  0.00    +0.000 NA
ATOM      9  H   UNL     1      50.773   6.012  19.402  0.00  0.00    +0.000 HD
BRANCH   8  10
ATOM     10  C   UNL     1      49.012   5.748  20.368  0.00  0.00    +0.000 C 
BRANCH  10  15
ATOM     11  C   UNL     1      49.164   3.232  17.490  0.00  0.00    +0.000 A 
ATOM     12  C   UNL     1      47.933   3.458  16.863  0.00  0.00    +0.000 A 
ATOM     13  C   UNL     1      47.083   4.458  17.339  0.00  0.00    +0.000 A 
ATOM     14  C   UNL     1      47.453   5.220  18.447  0.00  0.00    +0.000 A 
ATOM     15  C   UNL     1      48.669   4.986  19.107  0.00  0.00    +0.000 A 
ATOM     16  C   UNL     1      49.526   3.992  18.612  0.00  0.00    +0.000 A 
BRANCH  11  18
ATOM     17  N   UNL     1      51.150   1.861  17.845  0.00  0.00    +0.000 N 
ATOM     18  C   UNL     1      50.095   2.168  17.032  0.00  0.00    +0.000 C 
ATOM     19  O   UNL     1      49.911   1.559  15.985  0.00  0.00    +0.000 OA
ATOM     20  H   UNL     1      51.714   1.068  17.568  0.00  0.00    +0.000 HD
ATOM     21  H   UNL     1      51.199   2.159  18.808  0.00  0.00    +0.000 HD
ENDBRANCH  11  18
ENDBRANCH  10  15
ENDBRANCH   8  10
ENDBRANCH   7   8
ENDBRANCH   1   7
BRANCH   4  22
ATOM     22  C   UNL     1      48.306   8.783  14.448  0.00  0.00    +0.000 C 
BRANCH  22  23
ATOM     23  N   UNL     1      47.342   7.791  14.047  0.00  0.00    +0.000 N 
ATOM     24  C   UNL     1      47.700   6.715  13.278  0.00  0.00    +0.000 C 
ATOM     25  O   UNL     1      48.862   6.515  12.937  0.00  0.00    +0.000 OA
ATOM     26  H   UNL     1      46.363   8.046  14.126  0.00  0.00    +0.000 HD
BRANCH  24  27
ATOM     27  C   UNL     1      46.626   5.774  12.931  0.00  0.00    +0.000 A 
ATOM     28  C   UNL     1      46.793   4.419  13.183  0.00  0.00    +0.000 A 
ATOM     29  S   UNL     1      45.437   3.474  12.765  0.00  0.00    +0.000 S 
ATOM     30  C   UNL     1      44.597   4.835  12.185  0.00  0.00    +0.000 A 
ATOM     31  N   UNL     1      43.352   4.713  11.651  0.00  0.00    +0.000 NA
ATOM     32  C   UNL     1      42.844   5.820  11.223  0.00  0.00    +0.000 A 
ATOM     33  N   UNL     1      43.466   7.040  11.284  0.00  0.00    +0.000 N 
ATOM     34  C   UNL     1      44.711   7.216  11.839  0.00  0.00    +0.000 A 
ATOM     35  O   UNL     1      45.222   8.327  11.913  0.00  0.00    +0.000 OA
ATOM     36  C   UNL     1      45.333   5.998  12.325  0.00  0.00    +0.000 A 
ATOM     37  H   UNL     1      43.008   7.872  10.942  0.00  0.00    +0.000 HD
ENDBRANCH  24  27
ENDBRANCH  22  23
ENDBRANCH   4  22
TORSDOF 8
ENDMDL
MODEL 6
REMARK VINA RESULT:    -7.181      3.864      4.730
REMARK INTER + INTRA:         -12.007
REMARK INTER:                 -10.519
REMARK INTRA:                  -1.488
REMARK UNBOUND:                -1.467
REMARK  Name = 
REMARK  8 active torsions:
REMARK  status: ('A' for Active; 'I' for Inactive)
REMARK    1  A    between atoms: C_2  and  C_4
REMARK    2  A    between atoms: C_8  and  C_9
REMARK    3  A    between atoms: C_9  and  N_10
REMARK    4  A    between atoms: N_10  and  C_11
REMARK    5  A    between atoms: C_11  and  C_12
REMARK    6  A    between atoms: C_15  and  C_16
REMARK    7  A    between atoms: C_16  and  N_17
REMARK    8  A    between atoms: C_18  and  C_20
REMARK                            x       y       z     vdW  Elec       q    Type
REMARK                         _______ _______ _______ _____ _____    ______ ____
ROOT
ATOM      1  C   UNL     1      45.120   5.159  12.898  0.00  0.00    +0.000 A 
ATOM      2  C   UNL     1      44.453   6.299  12.423  0.00  0.00    +0.000 A 
ATOM      3  C   UNL     1      45.150   7.485  12.169  0.00  0.00    +0.000 A 
ATOM      4  C   UNL     1      46.530   7.560  12.394  0.00  0.00    +0.000 A 
ATOM      5  C   UNL     1      47.191   6.435  12.903  0.00  0.00    +0.000 A 
ATOM      6  C   UNL     1      46.496   5.245  13.144  0.00  0.00    +0.000 A 
ENDROOT
BRANCH   1   7
ATOM      7  C   UNL     1      44.370   3.868  13.150  0.00  0.00    +0.000 C 
BRANCH   7   8
ATOM      8  N   UNL     1      44.738   2.850  12.172  0.00  0.00    +0.000 NA
ATOM      9  H   UNL     1      45.723   2.953  11.933  0.00  0.00    +0.000 HD
BRANCH   8  10
ATOM     10  C   UNL     1      43.955   2.943  10.944  0.00  0.00    +0.000 C 
BRANCH  10  15
ATOM     11  C   UNL     1      46.324   2.308   8.008  0.00  0.00    +0.000 A 
ATOM     12  C   UNL     1      46.464   3.598   7.485  0.00  0.00    +0.000 A 
ATOM     13  C   UNL     1      45.837   4.676   8.112  0.00  0.00    +0.000 A 
ATOM     14  C   UNL     1      45.059   4.464   9.250  0.00  0.00    +0.000 A 
ATOM     15  C   UNL     1      44.883   3.172   9.771  0.00  0.00    +0.000 A 
ATOM     16  C   UNL     1      45.531   2.098   9.145  0.00  0.00    +0.000 A 
BRANCH  11  18
ATOM     17  N   UNL     1      47.789   1.358   6.304  0.00  0.00    +0.000 N 
ATOM     18  C   UNL     1      46.957   1.127   7.364  0.00  0.00    +0.000 C 
ATOM     19  O   UNL     1      46.775  -0.009   7.782  0.00  0.00    +0.000 OA
ATOM     20  H   UNL     1      48.289   0.556   5.944  0.00  0.00    +0.000 HD
ATOM     21  H   UNL     1      48.152   2.275   6.087  0.00  0.00    +0.000 HD
ENDBRANCH  11  18
ENDBRANCH  10  15
ENDBRANCH   8  10
ENDBRANCH   7   8
ENDBRANCH   1   7
BRANCH   4  22
ATOM     22  C   UNL     1      47.283   8.839  12.145  0.00  0.00    +0.000 C 
BRANCH  22  23
ATOM     23  N   UNL     1      48.682   8.574  11.932  0.00  0.00    +0.000 N 
ATOM     24  C   UNL     1      49.649   9.456  12.341  0.00  0.00    +0.000 C 
ATOM     25  O   UNL     1      49.375  10.484  12.953  0.00  0.00    +0.000 OA
ATOM     26  H   UNL     1      48.914   7.860  11.249  0.00  0.00    +0.000 HD
BRANCH  24  27
ATOM     27  C   UNL     1      51.040   9.075  12.062  0.00  0.00    +0.000 A 
ATOM     28  C   UNL     1      51.556   9.245  10.784  0.00  0.00    +0.000 A 
ATOM     29  S   UNL     1      53.195   8.799  10.642  0.00  0.00    +0.000 S 
ATOM     30  C   UNL     1      53.261   8.316  12.273  0.00  0.00    +0.000 A 
ATOM     31  N   UNL     1      54.403   7.800  12.803  0.00  0.00    +0.000 NA
ATOM     32  C   UNL     1      54.305   7.449  14.041  0.00  0.00    +0.000 A 
ATOM     33  N   UNL     1      53.170   7.569  14.800  0.00  0.00    +0.000 N 
ATOM     34  C   UNL     1      52.002   8.108  14.315  0.00  0.00    +0.000 A 
ATOM     35  O   UNL     1      51.017   8.238  15.032  0.00  0.00    +0.000 OA
ATOM     36  C   UNL     1      52.055   8.509  12.922  0.00  0.00    +0.000 A 
ATOM     37  H   UNL     1      53.162   7.286  15.769  0.00  0.00    +0.000 HD
ENDBRANCH  24  27
ENDBRANCH  22  23
ENDBRANCH   4  22
TORSDOF 8
ENDMDL
MODEL 7
REMARK VINA RESULT:    -7.046      3.768      8.263
REMARK INTER + INTRA:         -11.808
REMARK INTER:                  -9.475
REMARK INTRA:                  -2.332
REMARK UNBOUND:                -1.467
REMARK  Name = 
REMARK  8 active torsions:
REMARK  status: ('A' for Active; 'I' for Inactive)
REMARK    1  A    between atoms: C_2  and  C_4
REMARK    2  A    between atoms: C_8  and  C_9
REMARK    3  A    between atoms: C_9  and  N_10
REMARK    4  A    between atoms: N_10  and  C_11
REMARK    5  A    between atoms: C_11  and  C_12
REMARK    6  A    between atoms: C_15  and  C_16
REMARK    7  A    between atoms: C_16  and  N_17
REMARK    8  A    between atoms: C_18  and  C_20
REMARK                            x       y       z     vdW  Elec       q    Type
REMARK                         _______ _______ _______ _____ _____    ______ ____
ROOT
ATOM      1  C   UNL     1      50.147   8.196  15.540  0.00  0.00    +0.000 A 
ATOM      2  C   UNL     1      48.982   8.948  15.763  0.00  0.00    +0.000 A 
ATOM      3  C   UNL     1      48.042   9.135  14.746  0.00  0.00    +0.000 A 
ATOM      4  C   UNL     1      48.250   8.582  13.476  0.00  0.00    +0.000 A 
ATOM      5  C   UNL     1      49.429   7.864  13.239  0.00  0.00    +0.000 A 
ATOM      6  C   UNL     1      50.363   7.666  14.261  0.00  0.00    +0.000 A 
ENDROOT
BRANCH   1   7
ATOM      7  C   UNL     1      51.154   7.974  16.649  0.00  0.00    +0.000 C 
BRANCH   7   8
ATOM      8  N   UNL     1      51.109   6.596  17.125  0.00  0.00    +0.000 NA
ATOM      9  H   UNL     1      50.895   5.977  16.345  0.00  0.00    +0.000 HD
BRANCH   8  10
ATOM     10  C   UNL     1      50.103   6.393  18.163  0.00  0.00    +0.000 C 
BRANCH  10  15
ATOM     11  C   UNL     1      47.713   4.322  16.010  0.00  0.00    +0.000 A 
ATOM     12  C   UNL     1      47.466   3.230  16.849  0.00  0.00    +0.000 A 
ATOM     13  C   UNL     1      48.029   3.191  18.126  0.00  0.00    +0.000 A 
ATOM     14  C   UNL     1      48.848   4.233  18.559  0.00  0.00    +0.000 A 
ATOM     15  C   UNL     1      49.132   5.322  17.720  0.00  0.00    +0.000 A 
ATOM     16  C   UNL     1      48.548   5.362  16.446  0.00  0.00    +0.000 A 
BRANCH  11  18
ATOM     17  N   UNL     1      46.883   3.220  13.998  0.00  0.00    +0.000 N 
ATOM     18  C   UNL     1      47.151   4.400  14.636  0.00  0.00    +0.000 C 
ATOM     19  O   UNL     1      46.902   5.473  14.102  0.00  0.00    +0.000 OA
ATOM     20  H   UNL     1      46.409   3.290  13.108  0.00  0.00    +0.000 HD
ATOM     21  H   UNL     1      46.844   2.336  14.484  0.00  0.00    +0.000 HD
ENDBRANCH  11  18
ENDBRANCH  10  15
ENDBRANCH   8  10
ENDBRANCH   7   8
ENDBRANCH   1   7
BRANCH   4  22
ATOM     22  C   UNL     1      47.254   8.798  12.368  0.00  0.00    +0.000 C 
BRANCH  22  23
ATOM     23  N   UNL     1      46.868   7.544  11.776  0.00  0.00    +0.000 N 
ATOM     24  C   UNL     1      45.569   7.287  11.424  0.00  0.00    +0.000 C 
ATOM     25  O   UNL     1      44.683   8.128  11.546  0.00  0.00    +0.000 OA
ATOM     26  H   UNL     1      47.523   6.773  11.870  0.00  0.00    +0.000 HD
BRANCH  24  27
ATOM     27  C   UNL     1      45.300   5.969  10.834  0.00  0.00    +0.000 A 
ATOM     28  C   UNL     1      45.772   5.678   9.560  0.00  0.00    +0.000 A 
ATOM     29  S   UNL     1      45.415   4.093   9.044  0.00  0.00    +0.000 S 
ATOM     30  C   UNL     1      44.572   3.755  10.483  0.00  0.00    +0.000 A 
ATOM     31  N   UNL     1      43.979   2.546  10.678  0.00  0.00    +0.000 NA
ATOM     32  C   UNL     1      43.350   2.435  11.799  0.00  0.00    +0.000 A 
ATOM     33  N   UNL     1      43.263   3.422  12.747  0.00  0.00    +0.000 N 
ATOM     34  C   UNL     1      43.867   4.648  12.605  0.00  0.00    +0.000 A 
ATOM     35  O   UNL     1      43.802   5.494  13.489  0.00  0.00    +0.000 OA
ATOM     36  C   UNL     1      44.579   4.830  11.354  0.00  0.00    +0.000 A 
ATOM     37  H   UNL     1      42.764   3.267  13.612  0.00  0.00    +0.000 HD
ENDBRANCH  24  27
ENDBRANCH  22  23
ENDBRANCH   4  22
TORSDOF 8
ENDMDL
MODEL 8
REMARK VINA RESULT:    -6.824      3.624      9.281
REMARK INTER + INTRA:         -11.482
REMARK INTER:                  -9.741
REMARK INTRA:                  -1.742
REMARK UNBOUND:                -1.467
REMARK  Name = 
REMARK  8 active torsions:
REMARK  status: ('A' for Active; 'I' for Inactive)
REMARK    1  A    between atoms: C_2  and  C_4
REMARK    2  A    between atoms: C_8  and  C_9
REMARK    3  A    between atoms: C_9  and  N_10
REMARK    4  A    between atoms: N_10  and  C_11
REMARK    5  A    between atoms: C_11  and  C_12
REMARK    6  A    between atoms: C_15  and  C_16
REMARK    7  A    between atoms: C_16  and  N_17
REMARK    8  A    between atoms: C_18  and  C_20
REMARK                            x       y       z     vdW  Elec       q    Type
REMARK                         _______ _______ _______ _____ _____    ______ ____
ROOT
ATOM      1  C   UNL     1      50.499   8.793  12.595  0.00  0.00    +0.000 A 
ATOM      2  C   UNL     1      49.623   9.754  13.126  0.00  0.00    +0.000 A 
ATOM      3  C   UNL     1      48.238   9.610  13.003  0.00  0.00    +0.000 A 
ATOM      4  C   UNL     1      47.696   8.504  12.336  0.00  0.00    +0.000 A 
ATOM      5  C   UNL     1      48.567   7.563  11.772  0.00  0.00    +0.000 A 
ATOM      6  C   UNL     1      49.953   7.702  11.907  0.00  0.00    +0.000 A 
ENDROOT
BRANCH   1   7
ATOM      7  C   UNL     1      51.998   8.938  12.749  0.00  0.00    +0.000 C 
BRANCH   7   8
ATOM      8  N   UNL     1      52.543   7.868  13.576  0.00  0.00    +0.000 NA
ATOM      9  H   UNL     1      51.937   7.051  13.513  0.00  0.00    +0.000 HD
BRANCH   8  10
ATOM     10  C   UNL     1      52.658   8.247  14.981  0.00  0.00    +0.000 C 
BRANCH  10  15
ATOM     11  C   UNL     1      49.997   6.004  16.568  0.00  0.00    +0.000 A 
ATOM     12  C   UNL     1      50.790   5.126  17.316  0.00  0.00    +0.000 A 
ATOM     13  C   UNL     1      52.175   5.294  17.348  0.00  0.00    +0.000 A 
ATOM     14  C   UNL     1      52.769   6.326  16.622  0.00  0.00    +0.000 A 
ATOM     15  C   UNL     1      51.992   7.197  15.843  0.00  0.00    +0.000 A 
ATOM     16  C   UNL     1      50.601   7.033  15.831  0.00  0.00    +0.000 A 
BRANCH  11  18
ATOM     17  N   UNL     1      47.911   6.230  15.323  0.00  0.00    +0.000 N 
ATOM     18  C   UNL     1      48.520   5.854  16.489  0.00  0.00    +0.000 C 
ATOM     19  O   UNL     1      47.870   5.382  17.412  0.00  0.00    +0.000 OA
ATOM     20  H   UNL     1      46.923   6.028  15.249  0.00  0.00    +0.000 HD
ATOM     21  H   UNL     1      48.424   6.390  14.469  0.00  0.00    +0.000 HD
ENDBRANCH  11  18
ENDBRANCH  10  15
ENDBRANCH   8  10
ENDBRANCH   7   8
ENDBRANCH   1   7
BRANCH   4  22
ATOM     22  C   UNL     1      46.206   8.353  12.179  0.00  0.00    +0.000 C 
BRANCH  22  23
ATOM     23  N   UNL     1      45.858   6.982  11.909  0.00  0.00    +0.000 N 
ATOM     24  C   UNL     1      44.591   6.626  11.527  0.00  0.00    +0.000 C 
ATOM     25  O   UNL     1      43.708   7.460  11.344  0.00  0.00    +0.000 OA
ATOM     26  H   UNL     1      46.492   6.271  12.261  0.00  0.00    +0.000 HD
BRANCH  24  27
ATOM     27  C   UNL     1      44.359   5.196  11.285  0.00  0.00    +0.000 A 
ATOM     28  C   UNL     1      43.612   4.459  12.195  0.00  0.00    +0.000 A 
ATOM     29  S   UNL     1      43.398   2.829  11.743  0.00  0.00    +0.000 S 
ATOM     30  C   UNL     1      44.337   3.038  10.339  0.00  0.00    +0.000 A 
ATOM     31  N   UNL     1      44.575   1.997   9.497  0.00  0.00    +0.000 NA
ATOM     32  C   UNL     1      45.326   2.287   8.488  0.00  0.00    +0.000 A 
ATOM     33  N   UNL     1      45.858   3.527   8.242  0.00  0.00    +0.000 N 
ATOM     34  C   UNL     1      45.624   4.613   9.050  0.00  0.00    +0.000 A 
ATOM     35  O   UNL     1      46.082   5.717   8.779  0.00  0.00    +0.000 OA
ATOM     36  C   UNL     1      44.793   4.337  10.207  0.00  0.00    +0.000 A 
ATOM     37  H   UNL     1      46.430   3.692   7.426  0.00  0.00    +0.000 HD
ENDBRANCH  24  27
ENDBRANCH  22  23
ENDBRANCH   4  22
TORSDOF 8
ENDMDL
MODEL 9
REMARK VINA RESULT:    -6.731      1.615      2.191
REMARK INTER + INTRA:         -11.345
REMARK INTER:                 -10.685
REMARK INTRA:                  -0.660
REMARK UNBOUND:                -1.467
REMARK  Name = 
REMARK  8 active torsions:
REMARK  status: ('A' for Active; 'I' for Inactive)
REMARK    1  A    between atoms: C_2  and  C_4
REMARK    2  A    between atoms: C_8  and  C_9
REMARK    3  A    between atoms: C_9  and  N_10
REMARK    4  A    between atoms: N_10  and  C_11
REMARK    5  A    between atoms: C_11  and  C_12
REMARK    6  A    between atoms: C_15  and  C_16
REMARK    7  A    between atoms: C_16  and  N_17
REMARK    8  A    between atoms: C_18  and  C_20
REMARK                            x       y       z     vdW  Elec       q    Type
REMARK                         _______ _______ _______ _____ _____    ______ ____
ROOT
ATOM      1  C   UNL     1      45.385   6.410  12.689  0.00  0.00    +0.000 A 
ATOM      2  C   UNL     1      45.874   7.721  12.809  0.00  0.00    +0.000 A 
ATOM      3  C   UNL     1      47.156   7.966  13.311  0.00  0.00    +0.000 A 
ATOM      4  C   UNL     1      47.976   6.905  13.713  0.00  0.00    +0.000 A 
ATOM      5  C   UNL     1      47.477   5.598  13.630  0.00  0.00    +0.000 A 
ATOM      6  C   UNL     1      46.200   5.353  13.115  0.00  0.00    +0.000 A 
ENDROOT
BRANCH   1   7
ATOM      7  C   UNL     1      44.006   6.144  12.123  0.00  0.00    +0.000 C 
BRANCH   7   8
ATOM      8  N   UNL     1      44.043   6.078  10.667  0.00  0.00    +0.000 NA
ATOM      9  H   UNL     1      43.401   5.356  10.345  0.00  0.00    +0.000 HD
BRANCH   8  10
ATOM     10  C   UNL     1      45.375   5.772  10.152  0.00  0.00    +0.000 C 
BRANCH  10  15
ATOM     11  C   UNL     1      46.192   2.893   7.770  0.00  0.00    +0.000 A 
ATOM     12  C   UNL     1      45.433   1.855   8.324  0.00  0.00    +0.000 A 
ATOM     13  C   UNL     1      44.620   2.102   9.432  0.00  0.00    +0.000 A 
ATOM     14  C   UNL     1      44.576   3.377   9.994  0.00  0.00    +0.000 A 
ATOM     15  C   UNL     1      45.354   4.422   9.471  0.00  0.00    +0.000 A 
ATOM     16  C   UNL     1      46.154   4.170   8.348  0.00  0.00    +0.000 A 
BRANCH  11  18
ATOM     17  N   UNL     1      48.256   2.002   6.824  0.00  0.00    +0.000 N 
ATOM     18  C   UNL     1      47.086   2.674   6.603  0.00  0.00    +0.000 C 
ATOM     19  O   UNL     1      46.779   3.047   5.478  0.00  0.00    +0.000 OA
ATOM     20  H   UNL     1      48.803   1.774   6.004  0.00  0.00    +0.000 HD
ATOM     21  H   UNL     1      48.430   1.475   7.667  0.00  0.00    +0.000 HD
ENDBRANCH  11  18
ENDBRANCH  10  15
ENDBRANCH   8  10
ENDBRANCH   7   8
ENDBRANCH   1   7
BRANCH   4  22
ATOM     22  C   UNL     1      49.348   7.161  14.277  0.00  0.00    +0.000 C 
BRANCH  22  23
ATOM     23  N   UNL     1      49.324   7.126  15.716  0.00  0.00    +0.000 N 
ATOM     24  C   UNL     1      50.473   6.985  16.449  0.00  0.00    +0.000 C 
ATOM     25  O   UNL     1      51.580   6.934  15.921  0.00  0.00    +0.000 OA
ATOM     26  H   UNL     1      48.426   6.946  16.154  0.00  0.00    +0.000 HD
BRANCH  24  27
ATOM     27  C   UNL     1      50.318   6.958  17.909  0.00  0.00    +0.000 A 
ATOM     28  C   UNL     1      50.816   8.007  18.672  0.00  0.00    +0.000 A 
ATOM     29  S   UNL     1      50.511   7.844  20.341  0.00  0.00    +0.000 S 
ATOM     30  C   UNL     1      49.747   6.341  20.111  0.00  0.00    +0.000 A 
ATOM     31  N   UNL     1      49.263   5.634  21.168  0.00  0.00    +0.000 NA
ATOM     32  C   UNL     1      48.735   4.499  20.854  0.00  0.00    +0.000 A 
ATOM     33  N   UNL     1      48.642   4.007  19.578  0.00  0.00    +0.000 N 
ATOM     34  C   UNL     1      49.093   4.697  18.477  0.00  0.00    +0.000 A 
ATOM     35  O   UNL     1      48.959   4.246  17.346  0.00  0.00    +0.000 OA
ATOM     36  C   UNL     1      49.707   5.977  18.777  0.00  0.00    +0.000 A 
ATOM     37  H   UNL     1      48.205   3.115  19.397  0.00  0.00    +0.000 HD
ENDBRANCH  24  27
ENDBRANCH  22  23
ENDBRANCH   4  22
TORSDOF 8
ENDMDL
