MODEL 1
REMARK VINA RESULT:    -8.131      0.000      0.000
REMARK INTER + INTRA:         -11.461
REMARK INTER:                 -10.508
REMARK INTRA:                  -0.954
REMARK UNBOUND:                -0.954
REMARK  Name = 
REMARK  5 active torsions:
REMARK  status: ('A' for Active; 'I' for Inactive)
REMARK    1  A    between atoms: C_2  and  C_3
REMARK    2  A    between atoms: C_7  and  N_8
REMARK    3  A    between atoms: N_8  and  C_9
REMARK    4  A    between atoms: C_9  and  C_10
REMARK    5  A    between atoms: C_14  and  C_15
REMARK                            x       y       z     vdW  Elec       q    Type
REMARK                         _______ _______ _______ _____ _____    ______ ____
ROOT
ATOM      1  C   UNL     1      43.774   4.909  11.471  0.00  0.00    +0.000 C 
ATOM      2  C   UNL     1      42.471   5.297  12.176  0.00  0.00    +0.000 C 
ATOM      3  C   UNL     1      42.972   6.125  11.047  0.00  0.00    +0.000 C 
ENDROOT
BRANCH   1   4
ATOM      4  C   UNL     1      45.056   5.151  12.268  0.00  0.00    +0.000 A 
ATOM      5  C   UNL     1      45.642   4.154  13.056  0.00  0.00    +0.000 A 
ATOM      6  C   UNL     1      46.911   4.334  13.608  0.00  0.00    +0.000 A 
ATOM      7  C   UNL     1      47.627   5.507  13.354  0.00  0.00    +0.000 A 
ATOM      8  C   UNL     1      47.072   6.543  12.588  0.00  0.00    +0.000 A 
ATOM      9  C   UNL     1      45.759   6.365  12.128  0.00  0.00    +0.000 A 
BRANCH   8  10
ATOM     10  C   UNL     1      47.866   7.702  12.122  0.00  0.00    +0.000 A 
ATOM     11  C   UNL     1      47.312   8.995  12.140  0.00  0.00    +0.000 A 
ATOM     12  C   UNL     1      48.082  10.125  11.847  0.00  0.00    +0.000 A 
ATOM     13  C   UNL     1      49.429   9.986  11.535  0.00  0.00    +0.000 A 
ATOM     14  C   UNL     1      50.001   8.718  11.494  0.00  0.00    +0.000 A 
ATOM     15  C   UNL     1      49.226   7.588  11.776  0.00  0.00    +0.000 A 
ENDBRANCH   8  10
ENDBRANCH   1   4
BRANCH   1  16
ATOM     16  N   UNL     1      43.758   3.628  10.730  0.00  0.00    +0.000 N 
ATOM     17  H   UNL     1      43.741   2.826  11.359  0.00  0.00    +0.000 HD
BRANCH  16  22
ATOM     18  C   UNL     1      45.965   1.953   8.213  0.00  0.00    +0.000 A 
ATOM     19  C   UNL     1      46.347   3.078   7.499  0.00  0.00    +0.000 A 
ATOM     20  N   UNL     1      45.899   4.320   7.776  0.00  0.00    +0.000 NA
ATOM     21  C   UNL     1      45.043   4.435   8.822  0.00  0.00    +0.000 A 
ATOM     22  C   UNL     1      44.573   3.372   9.604  0.00  0.00    +0.000 A 
ATOM     23  C   UNL     1      45.066   2.110   9.271  0.00  0.00    +0.000 A 
BRANCH  18  25
ATOM     24  N   UNL     1      46.948  -0.372   7.627  0.00  0.00    +0.000 NA
ATOM     25  C   UNL     1      46.508   0.673   7.885  0.00  0.00    +0.000 C 
ENDBRANCH  18  25
ENDBRANCH  16  22
ENDBRANCH   1  16
TORSDOF 5
ENDMDL
MODEL 2
REMARK VINA RESULT:    -7.850      1.763      3.608
REMARK INTER + INTRA:         -11.099
REMARK INTER:                 -10.448
REMARK INTRA:                  -0.651
REMARK UNBOUND:                -0.954
REMARK  Name = 
REMARK  5 active torsions:
REMARK  status: ('A' for Active; 'I' for Inactive)
REMARK    1  A    between atoms: C_2  and  C_3
REMARK    2  A    between atoms: C_7  and  N_8
REMARK    3  A    between atoms: N_8  and  C_9
REMARK    4  A    between atoms: C_9  and  C_10
REMARK    5  A    between atoms: C_14  and  C_15
REMARK                            x       y       z     vdW  Elec       q    Type
REMARK                         _______ _______ _______ _____ _____    ______ ____
ROOT
ATOM      1  C   UNL     1      44.188   5.023  11.679  0.00  0.00    +0.000 C 
ATOM      2  C   UNL     1      43.052   5.331  12.659  0.00  0.00    +0.000 C 
ATOM      3  C   UNL     1      43.192   6.138  11.417  0.00  0.00    +0.000 C 
ENDROOT
BRANCH   1   4
ATOM      4  C   UNL     1      45.589   5.422  12.142  0.00  0.00    +0.000 A 
ATOM      5  C   UNL     1      46.310   6.452  11.526  0.00  0.00    +0.000 A 
ATOM      6  C   UNL     1      47.494   6.930  12.090  0.00  0.00    +0.000 A 
ATOM      7  C   UNL     1      47.960   6.402  13.297  0.00  0.00    +0.000 A 
ATOM      8  C   UNL     1      47.283   5.354  13.939  0.00  0.00    +0.000 A 
ATOM      9  C   UNL     1      46.149   4.837  13.295  0.00  0.00    +0.000 A 
BRANCH   8  10
ATOM     10  C   UNL     1      47.619   4.910  15.311  0.00  0.00    +0.000 A 
ATOM     11  C   UNL     1      47.295   3.608  15.735  0.00  0.00    +0.000 A 
ATOM     12  C   UNL     1      47.728   3.111  16.968  0.00  0.00    +0.000 A 
ATOM     13  C   UNL     1      48.503   3.907  17.804  0.00  0.00    +0.000 A 
ATOM     14  C   UNL     1      48.826   5.204  17.418  0.00  0.00    +0.000 A 
ATOM     15  C   UNL     1      48.381   5.703  16.189  0.00  0.00    +0.000 A 
ENDBRANCH   8  10
ENDBRANCH   1   4
BRANCH   1  16
ATOM     16  N   UNL     1      44.127   3.706  11.005  0.00  0.00    +0.000 N 
ATOM     17  H   UNL     1      44.251   2.937  11.663  0.00  0.00    +0.000 HD
BRANCH  16  22
ATOM     18  C   UNL     1      45.980   2.002   8.236  0.00  0.00    +0.000 A 
ATOM     19  C   UNL     1      46.220   3.111   7.439  0.00  0.00    +0.000 A 
ATOM     20  N   UNL     1      45.784   4.351   7.745  0.00  0.00    +0.000 NA
ATOM     21  C   UNL     1      45.091   4.480   8.904  0.00  0.00    +0.000 A 
ATOM     22  C   UNL     1      44.772   3.433   9.777  0.00  0.00    +0.000 A 
ATOM     23  C   UNL     1      45.245   2.172   9.411  0.00  0.00    +0.000 A 
BRANCH  18  25
ATOM     24  N   UNL     1      46.933  -0.317   7.576  0.00  0.00    +0.000 NA
ATOM     25  C   UNL     1      46.504   0.724   7.867  0.00  0.00    +0.000 C 
ENDBRANCH  18  25
ENDBRANCH  16  22
ENDBRANCH   1  16
TORSDOF 5
ENDMDL
MODEL 3
REMARK VINA RESULT:    -7.765      2.886      6.719
REMARK INTER + INTRA:         -10.988
REMARK INTER:                  -9.956
REMARK INTRA:                  -1.032
REMARK UNBOUND:                -0.954
REMARK  Name = 
REMARK  5 active torsions:
REMARK  status: ('A' for Active; 'I' for Inactive)
REMARK    1  A    between atoms: C_2  and  C_3
REMARK    2  A    between atoms: C_7  and  N_8
REMARK    3  A    between atoms: N_8  and  C_9
REMARK    4  A    between atoms: C_9  and  C_10
REMARK    5  A    between atoms: C_14  and  C_15
REMARK                            x       y       z     vdW  Elec       q    Type
REMARK                         _______ _______ _______ _____ _____    ______ ____
ROOT
ATOM      1  C   UNL     1      45.402   6.019  12.078  0.00  0.00    +0.000 C 
ATOM      2  C   UNL     1      44.724   7.222  11.414  0.00  0.00    +0.000 C 
ATOM      3  C   UNL     1      44.357   6.845  12.806  0.00  0.00    +0.000 C 
ENDROOT
BRANCH   1   4
ATOM      4  C   UNL     1      44.979   4.647  11.554  0.00  0.00    +0.000 A 
ATOM      5  C   UNL     1      43.841   3.987  12.031  0.00  0.00    +0.000 A 
ATOM      6  C   UNL     1      43.365   2.837  11.399  0.00  0.00    +0.000 A 
ATOM      7  C   UNL     1      44.008   2.346  10.260  0.00  0.00    +0.000 A 
ATOM      8  C   UNL     1      45.165   2.961   9.758  0.00  0.00    +0.000 A 
ATOM      9  C   UNL     1      45.666   4.059  10.474  0.00  0.00    +0.000 A 
BRANCH   8  10
ATOM     10  C   UNL     1      45.752   2.605   8.447  0.00  0.00    +0.000 A 
ATOM     11  C   UNL     1      45.911   3.585   7.451  0.00  0.00    +0.000 A 
ATOM     12  C   UNL     1      46.594   3.316   6.261  0.00  0.00    +0.000 A 
ATOM     13  C   UNL     1      47.141   2.057   6.044  0.00  0.00    +0.000 A 
ATOM     14  C   UNL     1      46.987   1.062   7.005  0.00  0.00    +0.000 A 
ATOM     15  C   UNL     1      46.293   1.331   8.189  0.00  0.00    +0.000 A 
ENDBRANCH   8  10
ENDBRANCH   1   4
BRANCH   1  16
ATOM     16  N   UNL     1      46.856   6.148  12.330  0.00  0.00    +0.000 N 
ATOM     17  H   UNL     1      47.408   5.752  11.569  0.00  0.00    +0.000 HD
BRANCH  16  22
ATOM     18  C   UNL     1      47.568   4.772  15.737  0.00  0.00    +0.000 A 
ATOM     19  C   UNL     1      48.586   5.642  16.097  0.00  0.00    +0.000 A 
ATOM     20  N   UNL     1      49.058   6.609  15.284  0.00  0.00    +0.000 NA
ATOM     21  C   UNL     1      48.473   6.711  14.064  0.00  0.00    +0.000 A 
ATOM     22  C   UNL     1      47.453   5.881  13.583  0.00  0.00    +0.000 A 
ATOM     23  C   UNL     1      47.005   4.897  14.464  0.00  0.00    +0.000 A 
BRANCH  18  25
ATOM     24  N   UNL     1      46.718   2.994  17.419  0.00  0.00    +0.000 NA
ATOM     25  C   UNL     1      47.094   3.794  16.664  0.00  0.00    +0.000 C 
ENDBRANCH  18  25
ENDBRANCH  16  22
ENDBRANCH   1  16
TORSDOF 5
ENDMDL
MODEL 4
REMARK VINA RESULT:    -7.271      3.136      7.104
REMARK INTER + INTRA:         -10.350
REMARK INTER:                  -9.455
REMARK INTRA:                  -0.896
REMARK UNBOUND:                -0.954
REMARK  Name = 
REMARK  5 active torsions:
REMARK  status: ('A' for Active; 'I' for Inactive)
REMARK    1  A    between atoms: C_2  and  C_3
REMARK    2  A    between atoms: C_7  and  N_8
REMARK    3  A    between atoms: N_8  and  C_9
REMARK    4  A    between atoms: C_9  and  C_10
REMARK    5  A    between atoms: C_14  and  C_15
REMARK                            x       y       z     vdW  Elec       q    Type
REMARK                         _______ _______ _______ _____ _____    ______ ____
ROOT
ATOM      1  C   UNL     1      46.393   6.978  12.510  0.00  0.00    +0.000 C 
ATOM      2  C   UNL     1      46.683   8.301  11.794  0.00  0.00    +0.000 C 
ATOM      3  C   UNL     1      45.904   8.305  13.062  0.00  0.00    +0.000 C 
ENDROOT
BRANCH   1   4
ATOM      4  C   UNL     1      45.365   6.071  11.837  0.00  0.00    +0.000 A 
ATOM      5  C   UNL     1      43.988   6.299  11.944  0.00  0.00    +0.000 A 
ATOM      6  C   UNL     1      43.083   5.582  11.160  0.00  0.00    +0.000 A 
ATOM      7  C   UNL     1      43.545   4.643  10.235  0.00  0.00    +0.000 A 
ATOM      8  C   UNL     1      44.915   4.364  10.108  0.00  0.00    +0.000 A 
ATOM      9  C   UNL     1      45.787   5.037  10.977  0.00  0.00    +0.000 A 
BRANCH   8  10
ATOM     10  C   UNL     1      45.462   3.540   9.007  0.00  0.00    +0.000 A 
ATOM     11  C   UNL     1      46.087   4.152   7.905  0.00  0.00    +0.000 A 
ATOM     12  C   UNL     1      46.742   3.400   6.925  0.00  0.00    +0.000 A 
ATOM     13  C   UNL     1      46.791   2.015   7.029  0.00  0.00    +0.000 A 
ATOM     14  C   UNL     1      46.168   1.380   8.100  0.00  0.00    +0.000 A 
ATOM     15  C   UNL     1      45.503   2.134   9.073  0.00  0.00    +0.000 A 
ENDBRANCH   8  10
ENDBRANCH   1   4
BRANCH   1  16
ATOM     16  N   UNL     1      47.570   6.260  13.052  0.00  0.00    +0.000 N 
ATOM     17  H   UNL     1      47.990   5.644  12.357  0.00  0.00    +0.000 HD
BRANCH  16  22
ATOM     18  C   UNL     1      48.447   5.426  16.593  0.00  0.00    +0.000 A 
ATOM     19  C   UNL     1      47.706   4.261  16.717  0.00  0.00    +0.000 A 
ATOM     20  N   UNL     1      46.927   3.770  15.731  0.00  0.00    +0.000 NA
ATOM     21  C   UNL     1      46.905   4.473  14.571  0.00  0.00    +0.000 A 
ATOM     22  C   UNL     1      47.595   5.669  14.336  0.00  0.00    +0.000 A 
ATOM     23  C   UNL     1      48.382   6.133  15.390  0.00  0.00    +0.000 A 
BRANCH  18  25
ATOM     24  N   UNL     1      49.959   6.235  18.537  0.00  0.00    +0.000 NA
ATOM     25  C   UNL     1      49.279   5.868  17.668  0.00  0.00    +0.000 C 
ENDBRANCH  18  25
ENDBRANCH  16  22
ENDBRANCH   1  16
TORSDOF 5
ENDMDL
MODEL 5
REMARK VINA RESULT:    -7.226      2.927      6.822
REMARK INTER + INTRA:         -10.292
REMARK INTER:                  -9.266
REMARK INTRA:                  -1.027
REMARK UNBOUND:                -0.954
REMARK  Name = 
REMARK  5 active torsions:
REMARK  status: ('A' for Active; 'I' for Inactive)
REMARK    1  A    between atoms: C_2  and  C_3
REMARK    2  A    between atoms: C_7  and  N_8
REMARK    3  A    between atoms: N_8  and  C_9
REMARK    4  A    between atoms: C_9  and  C_10
REMARK    5  A    between atoms: C_14  and  C_15
REMARK                            x       y       z     vdW  Elec       q    Type
REMARK                         _______ _______ _______ _____ _____    ______ ____
ROOT
ATOM      1  C   UNL     1      46.224   7.425  12.370  0.00  0.00    +0.000 C 
ATOM      2  C   UNL     1      46.123   8.830  11.769  0.00  0.00    +0.000 C 
ATOM      3  C   UNL     1      45.595   8.574  13.136  0.00  0.00    +0.000 C 
ENDROOT
BRANCH   1   4
ATOM      4  C   UNL     1      45.286   6.378  11.770  0.00  0.00    +0.000 A 
ATOM      5  C   UNL     1      43.894   6.472  11.887  0.00  0.00    +0.000 A 
ATOM      6  C   UNL     1      43.058   5.621  11.164  0.00  0.00    +0.000 A 
ATOM      7  C   UNL     1      43.603   4.679  10.287  0.00  0.00    +0.000 A 
ATOM      8  C   UNL     1      44.992   4.533  10.153  0.00  0.00    +0.000 A 
ATOM      9  C   UNL     1      45.801   5.343  10.965  0.00  0.00    +0.000 A 
BRANCH   8  10
ATOM     10  C   UNL     1      45.608   3.704   9.093  0.00  0.00    +0.000 A 
ATOM     11  C   UNL     1      45.498   2.302   9.134  0.00  0.00    +0.000 A 
ATOM     12  C   UNL     1      45.939   1.502   8.076  0.00  0.00    +0.000 A 
ATOM     13  C   UNL     1      46.496   2.089   6.946  0.00  0.00    +0.000 A 
ATOM     14  C   UNL     1      46.631   3.472   6.883  0.00  0.00    +0.000 A 
ATOM     15  C   UNL     1      46.201   4.270   7.948  0.00  0.00    +0.000 A 
ENDBRANCH   8  10
ENDBRANCH   1   4
BRANCH   1  16
ATOM     16  N   UNL     1      47.593   6.927  12.636  0.00  0.00    +0.000 N 
ATOM     17  H   UNL     1      47.922   6.310  11.894  0.00  0.00    +0.000 HD
BRANCH  16  22
ATOM     18  C   UNL     1      47.809   5.110  15.901  0.00  0.00    +0.000 A 
ATOM     19  C   UNL     1      48.831   5.850  16.476  0.00  0.00    +0.000 A 
ATOM     20  N   UNL     1      49.457   6.866  15.847  0.00  0.00    +0.000 NA
ATOM     21  C   UNL     1      49.027   7.156  14.593  0.00  0.00    +0.000 A 
ATOM     22  C   UNL     1      48.020   6.470  13.903  0.00  0.00    +0.000 A 
ATOM     23  C   UNL     1      47.409   5.427  14.600  0.00  0.00    +0.000 A 
BRANCH  18  25
ATOM     24  N   UNL     1      46.637   3.228  17.241  0.00  0.00    +0.000 NA
ATOM     25  C   UNL     1      47.168   4.070  16.641  0.00  0.00    +0.000 C 
ENDBRANCH  18  25
ENDBRANCH  16  22
ENDBRANCH   1  16
TORSDOF 5
ENDMDL
MODEL 6
REMARK VINA RESULT:    -7.090      3.204      7.053
REMARK INTER + INTRA:         -10.116
REMARK INTER:                  -9.139
REMARK INTRA:                  -0.977
REMARK UNBOUND:                -0.954
REMARK  Name = 
REMARK  5 active torsions:
REMARK  status: ('A' for Active; 'I' for Inactive)
REMARK    1  A    between atoms: C_2  and  C_3
REMARK    2  A    between atoms: C_7  and  N_8
REMARK    3  A    between atoms: N_8  and  C_9
REMARK    4  A    between atoms: C_9  and  C_10
REMARK    5  A    between atoms: C_14  and  C_15
REMARK                            x       y       z     vdW  Elec       q    Type
REMARK                         _______ _______ _______ _____ _____    ______ ____
ROOT
ATOM      1  C   UNL     1      45.941   7.161  12.382  0.00  0.00    +0.000 C 
ATOM      2  C   UNL     1      47.077   6.766  13.329  0.00  0.00    +0.000 C 
ATOM      3  C   UNL     1      47.392   7.196  11.940  0.00  0.00    +0.000 C 
ENDROOT
BRANCH   1   4
ATOM      4  C   UNL     1      45.074   6.011  11.870  0.00  0.00    +0.000 A 
ATOM      5  C   UNL     1      43.709   5.919  12.167  0.00  0.00    +0.000 A 
ATOM      6  C   UNL     1      42.901   4.978  11.527  0.00  0.00    +0.000 A 
ATOM      7  C   UNL     1      43.443   4.133  10.556  0.00  0.00    +0.000 A 
ATOM      8  C   UNL     1      44.810   4.173  10.240  0.00  0.00    +0.000 A 
ATOM      9  C   UNL     1      45.607   5.067  10.970  0.00  0.00    +0.000 A 
BRANCH   8  10
ATOM     10  C   UNL     1      45.382   3.451   9.082  0.00  0.00    +0.000 A 
ATOM     11  C   UNL     1      45.939   4.165   8.005  0.00  0.00    +0.000 A 
ATOM     12  C   UNL     1      46.618   3.515   6.969  0.00  0.00    +0.000 A 
ATOM     13  C   UNL     1      46.759   2.133   6.991  0.00  0.00    +0.000 A 
ATOM     14  C   UNL     1      46.206   1.398   8.036  0.00  0.00    +0.000 A 
ATOM     15  C   UNL     1      45.517   2.050   9.065  0.00  0.00    +0.000 A 
ENDBRANCH   8  10
ENDBRANCH   1   4
BRANCH   1  16
ATOM     16  N   UNL     1      45.177   8.375  12.752  0.00  0.00    +0.000 N 
ATOM     17  H   UNL     1      44.247   8.145  13.103  0.00  0.00    +0.000 HD
BRANCH  16  22
ATOM     18  C   UNL     1      44.326  10.887  10.111  0.00  0.00    +0.000 A 
ATOM     19  C   UNL     1      45.360  11.781  10.342  0.00  0.00    +0.000 A 
ATOM     20  N   UNL     1      46.277  11.619  11.318  0.00  0.00    +0.000 NA
ATOM     21  C   UNL     1      46.154  10.505  12.084  0.00  0.00    +0.000 A 
ATOM     22  C   UNL     1      45.144   9.544  11.958  0.00  0.00    +0.000 A 
ATOM     23  C   UNL     1      44.222   9.763  10.934  0.00  0.00    +0.000 A 
BRANCH  18  25
ATOM     24  N   UNL     1      42.675  11.289   8.155  0.00  0.00    +0.000 NA
ATOM     25  C   UNL     1      43.412  11.105   9.035  0.00  0.00    +0.000 C 
ENDBRANCH  18  25
ENDBRANCH  16  22
ENDBRANCH   1  16
TORSDOF 5
ENDMDL
MODEL 7
REMARK VINA RESULT:    -6.517      3.391      7.265
REMARK INTER + INTRA:          -9.375
REMARK INTER:                  -8.238
REMARK INTRA:                  -1.137
REMARK UNBOUND:                -0.954
REMARK  Name = 
REMARK  5 active torsions:
REMARK  status: ('A' for Active; 'I' for Inactive)
REMARK    1  A    between atoms: C_2  and  C_3
REMARK    2  A    between atoms: C_7  and  N_8
REMARK    3  A    between atoms: N_8  and  C_9
REMARK    4  A    between atoms: C_9  and  C_10
REMARK    5  A    between atoms: C_14  and  C_15
REMARK                            x       y       z     vdW  Elec       q    Type
REMARK                         _______ _______ _______ _____ _____    ______ ____
ROOT
ATOM      1  C   UNL     1      48.800   8.035  12.745  0.00  0.00    +0.000 C 
ATOM      2  C   UNL     1      49.570   8.586  11.541  0.00  0.00    +0.000 C 
ATOM      3  C   UNL     1      49.241   9.486  12.680  0.00  0.00    +0.000 C 
ENDROOT
BRANCH   1   4
ATOM      4  C   UNL     1      47.320   7.734  12.504  0.00  0.00    +0.000 A 
ATOM      5  C   UNL     1      46.322   8.690  12.724  0.00  0.00    +0.000 A 
ATOM      6  C   UNL     1      45.010   8.461  12.307  0.00  0.00    +0.000 A 
ATOM      7  C   UNL     1      44.683   7.279  11.636  0.00  0.00    +0.000 A 
ATOM      8  C   UNL     1      45.645   6.283  11.413  0.00  0.00    +0.000 A 
ATOM      9  C   UNL     1      46.931   6.509  11.928  0.00  0.00    +0.000 A 
BRANCH   8  10
ATOM     10  C   UNL     1      45.398   5.119  10.531  0.00  0.00    +0.000 A 
ATOM     11  C   UNL     1      44.699   3.999  11.014  0.00  0.00    +0.000 A 
ATOM     12  C   UNL     1      44.322   2.951  10.168  0.00  0.00    +0.000 A 
ATOM     13  C   UNL     1      44.633   3.005   8.814  0.00  0.00    +0.000 A 
ATOM     14  C   UNL     1      45.337   4.095   8.310  0.00  0.00    +0.000 A 
ATOM     15  C   UNL     1      45.724   5.136   9.161  0.00  0.00    +0.000 A 
ENDBRANCH   8  10
ENDBRANCH   1   4
BRANCH   1  16
ATOM     16  N   UNL     1      49.500   7.010  13.553  0.00  0.00    +0.000 N 
ATOM     17  H   UNL     1      49.674   6.160  13.018  0.00  0.00    +0.000 HD
BRANCH  16  22
ATOM     18  C   UNL     1      48.044   5.390  16.596  0.00  0.00    +0.000 A 
ATOM     19  C   UNL     1      48.355   6.377  17.519  0.00  0.00    +0.000 A 
ATOM     20  N   UNL     1      49.031   7.500  17.204  0.00  0.00    +0.000 NA
ATOM     21  C   UNL     1      49.397   7.641  15.905  0.00  0.00    +0.000 A 
ATOM     22  C   UNL     1      49.155   6.707  14.890  0.00  0.00    +0.000 A 
ATOM     23  C   UNL     1      48.455   5.563  15.272  0.00  0.00    +0.000 A 
BRANCH  18  25
ATOM     24  N   UNL     1      46.681   3.311  17.329  0.00  0.00    +0.000 NA
ATOM     25  C   UNL     1      47.293   4.242  16.995  0.00  0.00    +0.000 C 
ENDBRANCH  18  25
ENDBRANCH  16  22
ENDBRANCH   1  16
TORSDOF 5
ENDMDL
MODEL 8
REMARK VINA RESULT:    -6.378      2.236      4.526
REMARK INTER + INTRA:          -9.196
REMARK INTER:                  -8.266
REMARK INTRA:                  -0.930
REMARK UNBOUND:                -0.954
REMARK  Name = 
REMARK  5 active torsions:
REMARK  status: ('A' for Active; 'I' for Inactive)
REMARK    1  A    between atoms: C_2  and  C_3
REMARK    2  A    between atoms: C_7  and  N_8
REMARK    3  A    between atoms: N_8  and  C_9
REMARK    4  A    between atoms: C_9  and  C_10
REMARK    5  A    between atoms: C_14  and  C_15
REMARK                            x       y       z     vdW  Elec       q    Type
REMARK                         _______ _______ _______ _____ _____    ______ ____
ROOT
ATOM      1  C   UNL     1      45.256   7.686  12.154  0.00  0.00    +0.000 C 
ATOM      2  C   UNL     1      44.766   9.080  12.558  0.00  0.00    +0.000 C 
ATOM      3  C   UNL     1      45.121   8.807  11.140  0.00  0.00    +0.000 C 
ENDROOT
BRANCH   1   4
ATOM      4  C   UNL     1      46.665   7.318  12.618  0.00  0.00    +0.000 A 
ATOM      5  C   UNL     1      47.803   7.971  12.131  0.00  0.00    +0.000 A 
ATOM      6  C   UNL     1      49.052   7.759  12.715  0.00  0.00    +0.000 A 
ATOM      7  C   UNL     1      49.177   6.908  13.816  0.00  0.00    +0.000 A 
ATOM      8  C   UNL     1      48.069   6.214  14.325  0.00  0.00    +0.000 A 
ATOM      9  C   UNL     1      46.847   6.381  13.655  0.00  0.00    +0.000 A 
BRANCH   8  10
ATOM     10  C   UNL     1      48.111   5.473  15.607  0.00  0.00    +0.000 A 
ATOM     11  C   UNL     1      47.358   4.297  15.772  0.00  0.00    +0.000 A 
ATOM     12  C   UNL     1      47.490   3.498  16.911  0.00  0.00    +0.000 A 
ATOM     13  C   UNL     1      48.386   3.856  17.911  0.00  0.00    +0.000 A 
ATOM     14  C   UNL     1      49.135   5.022  17.782  0.00  0.00    +0.000 A 
ATOM     15  C   UNL     1      48.992   5.826  16.647  0.00  0.00    +0.000 A 
ENDBRANCH   8  10
ENDBRANCH   1   4
BRANCH   1  16
ATOM     16  N   UNL     1      44.272   6.587  12.283  0.00  0.00    +0.000 N 
ATOM     17  H   UNL     1      44.070   6.371  13.259  0.00  0.00    +0.000 HD
BRANCH  16  22
ATOM     18  C   UNL     1      44.939   4.138   9.532  0.00  0.00    +0.000 A 
ATOM     19  C   UNL     1      44.112   3.115   9.967  0.00  0.00    +0.000 A 
ATOM     20  N   UNL     1      43.392   3.176  11.107  0.00  0.00    +0.000 NA
ATOM     21  C   UNL     1      43.501   4.319  11.830  0.00  0.00    +0.000 A 
ATOM     22  C   UNL     1      44.316   5.410  11.501  0.00  0.00    +0.000 A 
ATOM     23  C   UNL     1      45.040   5.292  10.315  0.00  0.00    +0.000 A 
BRANCH  18  25
ATOM     24  N   UNL     1      46.221   3.911   7.292  0.00  0.00    +0.000 NA
ATOM     25  C   UNL     1      45.644   4.018   8.296  0.00  0.00    +0.000 C 
ENDBRANCH  18  25
ENDBRANCH  16  22
ENDBRANCH   1  16
TORSDOF 5
ENDMDL
MODEL 9
REMARK VINA RESULT:    -6.235      3.115      5.738
REMARK INTER + INTRA:          -9.012
REMARK INTER:                  -8.084
REMARK INTRA:                  -0.928
REMARK UNBOUND:                -0.954
REMARK  Name = 
REMARK  5 active torsions:
REMARK  status: ('A' for Active; 'I' for Inactive)
REMARK    1  A    between atoms: C_2  and  C_3
REMARK    2  A    between atoms: C_7  and  N_8
REMARK    3  A    between atoms: N_8  and  C_9
REMARK    4  A    between atoms: C_9  and  C_10
REMARK    5  A    between atoms: C_14  and  C_15
REMARK                            x       y       z     vdW  Elec       q    Type
REMARK                         _______ _______ _______ _____ _____    ______ ____
ROOT
ATOM      1  C   UNL     1      47.842   8.019  12.708  0.00  0.00    +0.000 C 
ATOM      2  C   UNL     1      48.391   9.148  11.830  0.00  0.00    +0.000 C 
ATOM      3  C   UNL     1      48.896   7.760  11.647  0.00  0.00    +0.000 C 
ENDROOT
BRANCH   1   4
ATOM      4  C   UNL     1      48.297   8.033  14.167  0.00  0.00    +0.000 A 
ATOM      5  C   UNL     1      48.158   9.164  14.979  0.00  0.00    +0.000 A 
ATOM      6  C   UNL     1      48.392   9.090  16.353  0.00  0.00    +0.000 A 
ATOM      7  C   UNL     1      48.743   7.871  16.940  0.00  0.00    +0.000 A 
ATOM      8  C   UNL     1      48.916   6.716  16.163  0.00  0.00    +0.000 A 
ATOM      9  C   UNL     1      48.763   6.850  14.775  0.00  0.00    +0.000 A 
BRANCH   8  10
ATOM     10  C   UNL     1      49.079   5.371  16.760  0.00  0.00    +0.000 A 
ATOM     11  C   UNL     1      48.069   4.403  16.618  0.00  0.00    +0.000 A 
ATOM     12  C   UNL     1      48.254   3.084  17.040  0.00  0.00    +0.000 A 
ATOM     13  C   UNL     1      49.462   2.700  17.611  0.00  0.00    +0.000 A 
ATOM     14  C   UNL     1      50.475   3.639  17.778  0.00  0.00    +0.000 A 
ATOM     15  C   UNL     1      50.283   4.961  17.366  0.00  0.00    +0.000 A 
ENDBRANCH   8  10
ENDBRANCH   1   4
BRANCH   1  16
ATOM     16  N   UNL     1      46.410   7.690  12.526  0.00  0.00    +0.000 N 
ATOM     17  H   UNL     1      45.826   8.135  13.233  0.00  0.00    +0.000 HD
BRANCH  16  22
ATOM     18  C   UNL     1      45.104   4.680  10.725  0.00  0.00    +0.000 A 
ATOM     19  C   UNL     1      44.816   3.893  11.829  0.00  0.00    +0.000 A 
ATOM     20  N   UNL     1      45.055   4.281  13.099  0.00  0.00    +0.000 NA
ATOM     21  C   UNL     1      45.594   5.515  13.263  0.00  0.00    +0.000 A 
ATOM     22  C   UNL     1      45.944   6.390  12.227  0.00  0.00    +0.000 A 
ATOM     23  C   UNL     1      45.678   5.937  10.935  0.00  0.00    +0.000 A 
BRANCH  18  25
ATOM     24  N   UNL     1      44.541   3.835   8.341  0.00  0.00    +0.000 NA
ATOM     25  C   UNL     1      44.791   4.219   9.410  0.00  0.00    +0.000 C 
ENDBRANCH  18  25
ENDBRANCH  16  22
ENDBRANCH   1  16
TORSDOF 5
ENDMDL
