MODEL 1
REMARK VINA RESULT:    -8.008      0.000      0.000
REMARK INTER + INTRA:         -11.728
REMARK INTER:                 -10.817
REMARK INTRA:                  -0.910
REMARK UNBOUND:                -0.910
REMARK  Name = 
REMARK  6 active torsions:
REMARK  status: ('A' for Active; 'I' for Inactive)
REMARK    1  A    between atoms: C_2  and  C_25
REMARK    2  A    between atoms: N_3  and  C_4
REMARK    3  A    between atoms: C_4  and  C_5
REMARK    4  A    between atoms: C_8  and  C_9
REMARK    5  A    between atoms: C_9  and  N_10
REMARK    6  A    between atoms: C_11  and  C_13
REMARK                            x       y       z     vdW  Elec       q    Type
REMARK                         _______ _______ _______ _____ _____    ______ ____
ROOT
ATOM      1  C   UNL     1      46.130   4.788  13.579  0.00  0.00    +0.000 A 
ATOM      2  C   UNL     1      46.671   5.993  13.107  0.00  0.00    +0.000 A 
ATOM      3  C   UNL     1      47.640   6.680  13.848  0.00  0.00    +0.000 A 
ATOM      4  C   UNL     1      48.102   6.167  15.068  0.00  0.00    +0.000 A 
ATOM      5  C   UNL     1      47.549   4.971  15.545  0.00  0.00    +0.000 A 
ATOM      6  C   UNL     1      46.583   4.282  14.803  0.00  0.00    +0.000 A 
ENDROOT
BRANCH   1   7
ATOM      7  C   UNL     1      45.112   4.032  12.764  0.00  0.00    +0.000 C 
BRANCH   7  10
ATOM      8  O   UNL     1      43.604   3.078  10.598  0.00  0.00    +0.000 OA
ATOM      9  C   UNL     1      44.811   3.242  10.461  0.00  0.00    +0.000 C 
ATOM     10  N   UNL     1      45.642   3.678  11.467  0.00  0.00    +0.000 N 
ATOM     11  H   UNL     1      46.573   4.002  11.242  0.00  0.00    +0.000 HD
BRANCH   9  12
ATOM     12  C   UNL     1      45.457   3.021   9.138  0.00  0.00    +0.000 A 
ATOM     13  C   UNL     1      45.708   4.126   8.314  0.00  0.00    +0.000 A 
ATOM     14  C   UNL     1      46.356   3.953   7.086  0.00  0.00    +0.000 A 
ATOM     15  C   UNL     1      46.735   2.676   6.679  0.00  0.00    +0.000 A 
ATOM     16 CL   UNL     1      47.556   2.463   5.183  0.00  0.00    +0.000 Cl
ATOM     17  C   UNL     1      46.456   1.566   7.476  0.00  0.00    +0.000 A 
ATOM     18  C   UNL     1      45.811   1.736   8.705  0.00  0.00    +0.000 A 
ENDBRANCH   9  12
ENDBRANCH   7  10
ENDBRANCH   1   7
BRANCH   4  19
ATOM     19  C   UNL     1      49.152   6.893  15.871  0.00  0.00    +0.000 C 
BRANCH  19  20
ATOM     20  N   UNL     1      50.162   5.990  16.362  0.00  0.00    +0.000 N 
ATOM     21  C   UNL     1      50.356   5.801  17.707  0.00  0.00    +0.000 C 
ATOM     22  O   UNL     1      49.657   6.354  18.552  0.00  0.00    +0.000 OA
ATOM     23  H   UNL     1      50.897   5.728  15.713  0.00  0.00    +0.000 HD
BRANCH  21  24
ATOM     24  C   UNL     1      51.409   4.849  18.088  0.00  0.00    +0.000 A 
ATOM     25  C   UNL     1      52.543   5.300  18.750  0.00  0.00    +0.000 A 
ATOM     26  S   UNL     1      53.634   4.055  19.163  0.00  0.00    +0.000 S 
ATOM     27  C   UNL     1      52.656   2.876  18.422  0.00  0.00    +0.000 A 
ATOM     28  N   UNL     1      53.034   1.570  18.389  0.00  0.00    +0.000 NA
ATOM     29  C   UNL     1      52.212   0.792  17.768  0.00  0.00    +0.000 A 
ATOM     30  N   UNL     1      51.043   1.200  17.183  0.00  0.00    +0.000 N 
ATOM     31  C   UNL     1      50.606   2.503  17.215  0.00  0.00    +0.000 A 
ATOM     32  O   UNL     1      49.534   2.827  16.717  0.00  0.00    +0.000 OA
ATOM     33  C   UNL     1      51.503   3.423  17.888  0.00  0.00    +0.000 A 
ATOM     34  H   UNL     1      50.437   0.533  16.723  0.00  0.00    +0.000 HD
ENDBRANCH  21  24
ENDBRANCH  19  20
ENDBRANCH   4  19
TORSDOF 6
ENDMDL
MODEL 2
REMARK VINA RESULT:    -7.594      3.575      4.121
REMARK INTER + INTRA:         -11.169
REMARK INTER:                 -10.313
REMARK INTRA:                  -0.855
REMARK UNBOUND:                -0.910
REMARK  Name = 
REMARK  6 active torsions:
REMARK  status: ('A' for Active; 'I' for Inactive)
REMARK    1  A    between atoms: C_2  and  C_25
REMARK    2  A    between atoms: N_3  and  C_4
REMARK    3  A    between atoms: C_4  and  C_5
REMARK    4  A    between atoms: C_8  and  C_9
REMARK    5  A    between atoms: C_9  and  N_10
REMARK    6  A    between atoms: C_11  and  C_13
REMARK                            x       y       z     vdW  Elec       q    Type
REMARK                         _______ _______ _______ _____ _____    ______ ____
ROOT
ATOM      1  C   UNL     1      45.338   6.456  12.393  0.00  0.00    +0.000 A 
ATOM      2  C   UNL     1      45.043   7.826  12.438  0.00  0.00    +0.000 A 
ATOM      3  C   UNL     1      45.892   8.719  13.103  0.00  0.00    +0.000 A 
ATOM      4  C   UNL     1      47.065   8.264  13.720  0.00  0.00    +0.000 A 
ATOM      5  C   UNL     1      47.350   6.892  13.688  0.00  0.00    +0.000 A 
ATOM      6  C   UNL     1      46.504   6.000  13.020  0.00  0.00    +0.000 A 
ENDROOT
BRANCH   1   7
ATOM      7  C   UNL     1      44.442   5.500  11.649  0.00  0.00    +0.000 C 
BRANCH   7  10
ATOM      8  O   UNL     1      43.614   3.157  10.345  0.00  0.00    +0.000 OA
ATOM      9  C   UNL     1      44.652   3.703   9.992  0.00  0.00    +0.000 C 
ATOM     10  N   UNL     1      45.159   4.838  10.583  0.00  0.00    +0.000 N 
ATOM     11  H   UNL     1      45.887   5.362  10.116  0.00  0.00    +0.000 HD
BRANCH   9  12
ATOM     12  C   UNL     1      45.421   3.180   8.828  0.00  0.00    +0.000 A 
ATOM     13  C   UNL     1      45.797   4.067   7.811  0.00  0.00    +0.000 A 
ATOM     14  C   UNL     1      46.559   3.613   6.730  0.00  0.00    +0.000 A 
ATOM     15  C   UNL     1      46.930   2.271   6.662  0.00  0.00    +0.000 A 
ATOM     16 CL   UNL     1      47.892   1.715   5.348  0.00  0.00    +0.000 Cl
ATOM     17  C   UNL     1      46.530   1.375   7.652  0.00  0.00    +0.000 A 
ATOM     18  C   UNL     1      45.770   1.826   8.734  0.00  0.00    +0.000 A 
ENDBRANCH   9  12
ENDBRANCH   7  10
ENDBRANCH   1   7
BRANCH   4  19
ATOM     19  C   UNL     1      47.992   9.217  14.431  0.00  0.00    +0.000 C 
BRANCH  19  20
ATOM     20  N   UNL     1      47.770   9.210  15.855  0.00  0.00    +0.000 N 
ATOM     21  C   UNL     1      48.660   8.615  16.713  0.00  0.00    +0.000 C 
ATOM     22  O   UNL     1      49.703   8.101  16.318  0.00  0.00    +0.000 OA
ATOM     23  H   UNL     1      46.823   9.394  16.172  0.00  0.00    +0.000 HD
BRANCH  21  24
ATOM     24  C   UNL     1      48.331   8.680  18.144  0.00  0.00    +0.000 A 
ATOM     25  C   UNL     1      48.368   9.899  18.807  0.00  0.00    +0.000 A 
ATOM     26  S   UNL     1      47.906   9.800  20.446  0.00  0.00    +0.000 S 
ATOM     27  C   UNL     1      47.695   8.115  20.342  0.00  0.00    +0.000 A 
ATOM     28  N   UNL     1      47.325   7.385  21.430  0.00  0.00    +0.000 NA
ATOM     29  C   UNL     1      47.232   6.116  21.214  0.00  0.00    +0.000 A 
ATOM     30  N   UNL     1      47.469   5.510  20.008  0.00  0.00    +0.000 N 
ATOM     31  C   UNL     1      47.816   6.209  18.877  0.00  0.00    +0.000 A 
ATOM     32  O   UNL     1      47.980   5.639  17.803  0.00  0.00    +0.000 OA
ATOM     33  C   UNL     1      47.951   7.640  19.069  0.00  0.00    +0.000 A 
ATOM     34  H   UNL     1      47.365   4.509  19.906  0.00  0.00    +0.000 HD
ENDBRANCH  21  24
ENDBRANCH  19  20
ENDBRANCH   4  19
TORSDOF 6
ENDMDL
MODEL 3
REMARK VINA RESULT:    -7.449      4.550      9.967
REMARK INTER + INTRA:         -10.971
REMARK INTER:                 -10.087
REMARK INTRA:                  -0.884
REMARK UNBOUND:                -0.910
REMARK  Name = 
REMARK  6 active torsions:
REMARK  status: ('A' for Active; 'I' for Inactive)
REMARK    1  A    between atoms: C_2  and  C_25
REMARK    2  A    between atoms: N_3  and  C_4
REMARK    3  A    between atoms: C_4  and  C_5
REMARK    4  A    between atoms: C_8  and  C_9
REMARK    5  A    between atoms: C_9  and  N_10
REMARK    6  A    between atoms: C_11  and  C_13
REMARK                            x       y       z     vdW  Elec       q    Type
REMARK                         _______ _______ _______ _____ _____    ______ ____
ROOT
ATOM      1  C   UNL     1      51.596   3.028  17.751  0.00  0.00    +0.000 A 
ATOM      2  C   UNL     1      50.825   1.969  17.249  0.00  0.00    +0.000 A 
ATOM      3  C   UNL     1      49.451   2.127  17.031  0.00  0.00    +0.000 A 
ATOM      4  C   UNL     1      48.823   3.352  17.292  0.00  0.00    +0.000 A 
ATOM      5  C   UNL     1      49.592   4.404  17.808  0.00  0.00    +0.000 A 
ATOM      6  C   UNL     1      50.966   4.248  18.022  0.00  0.00    +0.000 A 
ENDROOT
BRANCH   1   7
ATOM      7  C   UNL     1      53.082   2.868  17.954  0.00  0.00    +0.000 C 
BRANCH   7  10
ATOM      8  O   UNL     1      54.458   1.052  19.591  0.00  0.00    +0.000 OA
ATOM      9  C   UNL     1      54.171   0.725  18.445  0.00  0.00    +0.000 C 
ATOM     10  N   UNL     1      53.522   1.551  17.555  0.00  0.00    +0.000 N 
ATOM     11  H   UNL     1      53.119   1.160  16.714  0.00  0.00    +0.000 HD
BRANCH   9  12
ATOM     12  C   UNL     1      54.470  -0.649  17.955  0.00  0.00    +0.000 A 
ATOM     13  C   UNL     1      54.266  -1.734  18.817  0.00  0.00    +0.000 A 
ATOM     14  C   UNL     1      54.494  -3.039  18.367  0.00  0.00    +0.000 A 
ATOM     15  C   UNL     1      54.939  -3.253  17.064  0.00  0.00    +0.000 A 
ATOM     16 CL   UNL     1      55.194  -4.858  16.499  0.00  0.00    +0.000 Cl
ATOM     17  C   UNL     1      55.179  -2.176  16.212  0.00  0.00    +0.000 A 
ATOM     18  C   UNL     1      54.950  -0.871  16.657  0.00  0.00    +0.000 A 
ENDBRANCH   9  12
ENDBRANCH   7  10
ENDBRANCH   1   7
BRANCH   4  19
ATOM     19  C   UNL     1      47.346   3.537  17.052  0.00  0.00    +0.000 C 
BRANCH  19  20
ATOM     20  N   UNL     1      47.093   4.548  16.056  0.00  0.00    +0.000 N 
ATOM     21  C   UNL     1      47.139   4.256  14.716  0.00  0.00    +0.000 C 
ATOM     22  O   UNL     1      47.352   3.119  14.303  0.00  0.00    +0.000 OA
ATOM     23  H   UNL     1      47.166   5.515  16.356  0.00  0.00    +0.000 HD
BRANCH  21  24
ATOM     24  C   UNL     1      46.854   5.366  13.796  0.00  0.00    +0.000 A 
ATOM     25  C   UNL     1      47.797   6.367  13.609  0.00  0.00    +0.000 A 
ATOM     26  S   UNL     1      47.326   7.545  12.468  0.00  0.00    +0.000 S 
ATOM     27  C   UNL     1      45.821   6.789  12.226  0.00  0.00    +0.000 A 
ATOM     28  N   UNL     1      44.900   7.315  11.374  0.00  0.00    +0.000 NA
ATOM     29  C   UNL     1      43.793   6.654  11.312  0.00  0.00    +0.000 A 
ATOM     30  N   UNL     1      43.525   5.512  12.019  0.00  0.00    +0.000 N 
ATOM     31  C   UNL     1      44.434   4.929  12.868  0.00  0.00    +0.000 A 
ATOM     32  O   UNL     1      44.177   3.882  13.454  0.00  0.00    +0.000 OA
ATOM     33  C   UNL     1      45.691   5.641  12.988  0.00  0.00    +0.000 A 
ATOM     34  H   UNL     1      42.638   5.036  11.912  0.00  0.00    +0.000 HD
ENDBRANCH  21  24
ENDBRANCH  19  20
ENDBRANCH   4  19
TORSDOF 6
ENDMDL
MODEL 4
REMARK VINA RESULT:    -7.325      5.893      7.439
REMARK INTER + INTRA:         -10.805
REMARK INTER:                  -9.754
REMARK INTRA:                  -1.051
REMARK UNBOUND:                -0.910
REMARK  Name = 
REMARK  6 active torsions:
REMARK  status: ('A' for Active; 'I' for Inactive)
REMARK    1  A    between atoms: C_2  and  C_25
REMARK    2  A    between atoms: N_3  and  C_4
REMARK    3  A    between atoms: C_4  and  C_5
REMARK    4  A    between atoms: C_8  and  C_9
REMARK    5  A    between atoms: C_9  and  N_10
REMARK    6  A    between atoms: C_11  and  C_13
REMARK                            x       y       z     vdW  Elec       q    Type
REMARK                         _______ _______ _______ _____ _____    ______ ____
ROOT
ATOM      1  C   UNL     1      44.962   9.057  11.882  0.00  0.00    +0.000 A 
ATOM      2  C   UNL     1      44.259   7.933  11.423  0.00  0.00    +0.000 A 
ATOM      3  C   UNL     1      44.616   6.646  11.846  0.00  0.00    +0.000 A 
ATOM      4  C   UNL     1      45.669   6.458  12.750  0.00  0.00    +0.000 A 
ATOM      5  C   UNL     1      46.379   7.581  13.196  0.00  0.00    +0.000 A 
ATOM      6  C   UNL     1      46.021   8.867  12.777  0.00  0.00    +0.000 A 
ENDROOT
BRANCH   1   7
ATOM      7  C   UNL     1      44.556  10.444  11.454  0.00  0.00    +0.000 C 
BRANCH   7  10
ATOM      8  O   UNL     1      42.385  10.684   9.693  0.00  0.00    +0.000 OA
ATOM      9  C   UNL     1      42.194  10.803  10.898  0.00  0.00    +0.000 C 
ATOM     10  N   UNL     1      43.194  10.730  11.841  0.00  0.00    +0.000 N 
ATOM     11  H   UNL     1      42.953  10.615  12.817  0.00  0.00    +0.000 HD
BRANCH   9  12
ATOM     12  C   UNL     1      40.815  10.986  11.429  0.00  0.00    +0.000 A 
ATOM     13  C   UNL     1      40.631  11.748  12.590  0.00  0.00    +0.000 A 
ATOM     14  C   UNL     1      39.343  11.975  13.084  0.00  0.00    +0.000 A 
ATOM     15  C   UNL     1      38.244  11.427  12.425  0.00  0.00    +0.000 A 
ATOM     16 CL   UNL     1      36.655  11.727  13.014  0.00  0.00    +0.000 Cl
ATOM     17  C   UNL     1      38.420  10.638  11.289  0.00  0.00    +0.000 A 
ATOM     18  C   UNL     1      39.706  10.411  10.792  0.00  0.00    +0.000 A 
ENDBRANCH   9  12
ENDBRANCH   7  10
ENDBRANCH   1   7
BRANCH   4  19
ATOM     19  C   UNL     1      46.056   5.078  13.220  0.00  0.00    +0.000 C 
BRANCH  19  20
ATOM     20  N   UNL     1      46.649   5.112  14.533  0.00  0.00    +0.000 N 
ATOM     21  C   UNL     1      47.299   4.019  15.050  0.00  0.00    +0.000 C 
ATOM     22  O   UNL     1      47.445   2.982  14.408  0.00  0.00    +0.000 OA
ATOM     23  H   UNL     1      46.330   5.842  15.161  0.00  0.00    +0.000 HD
BRANCH  21  24
ATOM     24  C   UNL     1      47.871   4.175  16.395  0.00  0.00    +0.000 A 
ATOM     25  C   UNL     1      47.510   3.295  17.406  0.00  0.00    +0.000 A 
ATOM     26  S   UNL     1      48.309   3.589  18.885  0.00  0.00    +0.000 S 
ATOM     27  C   UNL     1      49.122   4.938  18.241  0.00  0.00    +0.000 A 
ATOM     28  N   UNL     1      49.963   5.683  19.009  0.00  0.00    +0.000 NA
ATOM     29  C   UNL     1      50.487   6.692  18.400  0.00  0.00    +0.000 A 
ATOM     30  N   UNL     1      50.253   7.022  17.091  0.00  0.00    +0.000 N 
ATOM     31  C   UNL     1      49.435   6.284  16.270  0.00  0.00    +0.000 A 
ATOM     32  O   UNL     1      49.280   6.583  15.091  0.00  0.00    +0.000 OA
ATOM     33  C   UNL     1      48.806   5.145  16.911  0.00  0.00    +0.000 A 
ATOM     34  H   UNL     1      50.709   7.822  16.672  0.00  0.00    +0.000 HD
ENDBRANCH  21  24
ENDBRANCH  19  20
ENDBRANCH   4  19
TORSDOF 6
ENDMDL
MODEL 5
REMARK VINA RESULT:    -7.235      5.352      6.363
REMARK INTER + INTRA:         -10.683
REMARK INTER:                  -9.463
REMARK INTRA:                  -1.220
REMARK UNBOUND:                -0.910
REMARK  Name = 
REMARK  6 active torsions:
REMARK  status: ('A' for Active; 'I' for Inactive)
REMARK    1  A    between atoms: C_2  and  C_25
REMARK    2  A    between atoms: N_3  and  C_4
REMARK    3  A    between atoms: C_4  and  C_5
REMARK    4  A    between atoms: C_8  and  C_9
REMARK    5  A    between atoms: C_9  and  N_10
REMARK    6  A    between atoms: C_11  and  C_13
REMARK                            x       y       z     vdW  Elec       q    Type
REMARK                         _______ _______ _______ _____ _____    ______ ____
ROOT
ATOM      1  C   UNL     1      45.652   7.044  12.742  0.00  0.00    +0.000 A 
ATOM      2  C   UNL     1      46.923   6.866  13.308  0.00  0.00    +0.000 A 
ATOM      3  C   UNL     1      47.789   7.954  13.476  0.00  0.00    +0.000 A 
ATOM      4  C   UNL     1      47.396   9.244  13.098  0.00  0.00    +0.000 A 
ATOM      5  C   UNL     1      46.131   9.418  12.518  0.00  0.00    +0.000 A 
ATOM      6  C   UNL     1      45.264   8.332  12.354  0.00  0.00    +0.000 A 
ENDROOT
BRANCH   1   7
ATOM      7  C   UNL     1      44.707   5.879  12.594  0.00  0.00    +0.000 C 
BRANCH   7  10
ATOM      8  O   UNL     1      43.292   5.142  10.285  0.00  0.00    +0.000 OA
ATOM      9  C   UNL     1      44.411   4.679  10.475  0.00  0.00    +0.000 C 
ATOM     10  N   UNL     1      45.174   4.955  11.586  0.00  0.00    +0.000 N 
ATOM     11  H   UNL     1      46.160   4.728  11.585  0.00  0.00    +0.000 HD
BRANCH   9  12
ATOM     12  C   UNL     1      45.049   3.805   9.452  0.00  0.00    +0.000 A 
ATOM     13  C   UNL     1      45.719   4.400   8.375  0.00  0.00    +0.000 A 
ATOM     14  C   UNL     1      46.367   3.603   7.426  0.00  0.00    +0.000 A 
ATOM     15  C   UNL     1      46.329   2.216   7.546  0.00  0.00    +0.000 A 
ATOM     16 CL   UNL     1      47.148   1.234   6.395  0.00  0.00    +0.000 Cl
ATOM     17  C   UNL     1      45.634   1.615   8.595  0.00  0.00    +0.000 A 
ATOM     18  C   UNL     1      44.988   2.408   9.547  0.00  0.00    +0.000 A 
ENDBRANCH   9  12
ENDBRANCH   7  10
ENDBRANCH   1   7
BRANCH   4  19
ATOM     19  C   UNL     1      48.316  10.424  13.281  0.00  0.00    +0.000 C 
BRANCH  19  20
ATOM     20  N   UNL     1      49.576  10.223  12.612  0.00  0.00    +0.000 N 
ATOM     21  C   UNL     1      49.749  10.573  11.296  0.00  0.00    +0.000 C 
ATOM     22  O   UNL     1      48.859  11.110  10.642  0.00  0.00    +0.000 OA
ATOM     23  H   UNL     1      50.223   9.569  13.040  0.00  0.00    +0.000 HD
BRANCH  21  24
ATOM     24  C   UNL     1      51.080  10.328  10.724  0.00  0.00    +0.000 A 
ATOM     25  C   UNL     1      51.836  11.394  10.252  0.00  0.00    +0.000 A 
ATOM     26  S   UNL     1      53.375  10.937   9.674  0.00  0.00    +0.000 S 
ATOM     27  C   UNL     1      53.063   9.293   9.981  0.00  0.00    +0.000 A 
ATOM     28  N   UNL     1      53.982   8.336   9.679  0.00  0.00    +0.000 NA
ATOM     29  C   UNL     1      53.601   7.130   9.938  0.00  0.00    +0.000 A 
ATOM     30  N   UNL     1      52.388   6.794  10.477  0.00  0.00    +0.000 N 
ATOM     31  C   UNL     1      51.440   7.727  10.824  0.00  0.00    +0.000 A 
ATOM     32  O   UNL     1      50.380   7.394  11.344  0.00  0.00    +0.000 OA
ATOM     33  C   UNL     1      51.812   9.099  10.539  0.00  0.00    +0.000 A 
ATOM     34  H   UNL     1      52.158   5.826  10.666  0.00  0.00    +0.000 HD
ENDBRANCH  21  24
ENDBRANCH  19  20
ENDBRANCH   4  19
TORSDOF 6
ENDMDL
MODEL 6
REMARK VINA RESULT:    -7.136      5.492      6.683
REMARK INTER + INTRA:         -10.549
REMARK INTER:                  -9.766
REMARK INTRA:                  -0.783
REMARK UNBOUND:                -0.910
REMARK  Name = 
REMARK  6 active torsions:
REMARK  status: ('A' for Active; 'I' for Inactive)
REMARK    1  A    between atoms: C_2  and  C_25
REMARK    2  A    between atoms: N_3  and  C_4
REMARK    3  A    between atoms: C_4  and  C_5
REMARK    4  A    between atoms: C_8  and  C_9
REMARK    5  A    between atoms: C_9  and  N_10
REMARK    6  A    between atoms: C_11  and  C_13
REMARK                            x       y       z     vdW  Elec       q    Type
REMARK                         _______ _______ _______ _____ _____    ______ ____
ROOT
ATOM      1  C   UNL     1      45.144   7.974  11.869  0.00  0.00    +0.000 A 
ATOM      2  C   UNL     1      46.383   7.921  12.524  0.00  0.00    +0.000 A 
ATOM      3  C   UNL     1      46.755   6.789  13.260  0.00  0.00    +0.000 A 
ATOM      4  C   UNL     1      45.903   5.679  13.341  0.00  0.00    +0.000 A 
ATOM      5  C   UNL     1      44.658   5.740  12.699  0.00  0.00    +0.000 A 
ATOM      6  C   UNL     1      44.289   6.869  11.960  0.00  0.00    +0.000 A 
ENDROOT
BRANCH   1   7
ATOM      7  C   UNL     1      44.759   9.178  11.048  0.00  0.00    +0.000 C 
BRANCH   7  10
ATOM      8  O   UNL     1      42.815  10.385   9.424  0.00  0.00    +0.000 OA
ATOM      9  C   UNL     1      42.617  10.299  10.630  0.00  0.00    +0.000 C 
ATOM     10  N   UNL     1      43.517   9.750  11.516  0.00  0.00    +0.000 N 
ATOM     11  H   UNL     1      43.215   9.506  12.449  0.00  0.00    +0.000 HD
BRANCH   9  12
ATOM     12  C   UNL     1      41.324  10.749  11.217  0.00  0.00    +0.000 A 
ATOM     13  C   UNL     1      40.132  10.414  10.563  0.00  0.00    +0.000 A 
ATOM     14  C   UNL     1      38.901  10.784  11.116  0.00  0.00    +0.000 A 
ATOM     15  C   UNL     1      38.868  11.499  12.311  0.00  0.00    +0.000 A 
ATOM     16 CL   UNL     1      37.355  11.931  13.009  0.00  0.00    +0.000 Cl
ATOM     17  C   UNL     1      40.051  11.867  12.950  0.00  0.00    +0.000 A 
ATOM     18  C   UNL     1      41.282  11.497  12.401  0.00  0.00    +0.000 A 
ENDBRANCH   9  12
ENDBRANCH   7  10
ENDBRANCH   1   7
BRANCH   4  19
ATOM     19  C   UNL     1      46.295   4.451  14.123  0.00  0.00    +0.000 C 
BRANCH  19  20
ATOM     20  N   UNL     1      47.381   4.725  15.031  0.00  0.00    +0.000 N 
ATOM     21  C   UNL     1      47.403   4.195  16.297  0.00  0.00    +0.000 C 
ATOM     22  O   UNL     1      46.529   3.433  16.700  0.00  0.00    +0.000 OA
ATOM     23  H   UNL     1      47.963   5.529  14.820  0.00  0.00    +0.000 HD
BRANCH  21  24
ATOM     24  C   UNL     1      48.566   4.537  17.128  0.00  0.00    +0.000 A 
ATOM     25  C   UNL     1      48.616   5.765  17.775  0.00  0.00    +0.000 A 
ATOM     26  S   UNL     1      50.008   5.974  18.738  0.00  0.00    +0.000 S 
ATOM     27  C   UNL     1      50.621   4.454  18.280  0.00  0.00    +0.000 A 
ATOM     28  N   UNL     1      51.825   4.015  18.736  0.00  0.00    +0.000 NA
ATOM     29  C   UNL     1      52.178   2.859  18.284  0.00  0.00    +0.000 A 
ATOM     30  N   UNL     1      51.434   2.098  17.422  0.00  0.00    +0.000 N 
ATOM     31  C   UNL     1      50.200   2.486  16.958  0.00  0.00    +0.000 A 
ATOM     32  O   UNL     1      49.541   1.761  16.220  0.00  0.00    +0.000 OA
ATOM     33  C   UNL     1      49.762   3.788  17.423  0.00  0.00    +0.000 A 
ATOM     34  H   UNL     1      51.766   1.192  17.117  0.00  0.00    +0.000 HD
ENDBRANCH  21  24
ENDBRANCH  19  20
ENDBRANCH   4  19
TORSDOF 6
ENDMDL
MODEL 7
REMARK VINA RESULT:    -6.896      4.078      9.606
REMARK INTER + INTRA:         -10.226
REMARK INTER:                  -9.236
REMARK INTRA:                  -0.990
REMARK UNBOUND:                -0.910
REMARK  Name = 
REMARK  6 active torsions:
REMARK  status: ('A' for Active; 'I' for Inactive)
REMARK    1  A    between atoms: C_2  and  C_25
REMARK    2  A    between atoms: N_3  and  C_4
REMARK    3  A    between atoms: C_4  and  C_5
REMARK    4  A    between atoms: C_8  and  C_9
REMARK    5  A    between atoms: C_9  and  N_10
REMARK    6  A    between atoms: C_11  and  C_13
REMARK                            x       y       z     vdW  Elec       q    Type
REMARK                         _______ _______ _______ _____ _____    ______ ____
ROOT
ATOM      1  C   UNL     1      50.545   7.788  14.981  0.00  0.00    +0.000 A 
ATOM      2  C   UNL     1      50.720   8.649  13.888  0.00  0.00    +0.000 A 
ATOM      3  C   UNL     1      49.780   8.688  12.851  0.00  0.00    +0.000 A 
ATOM      4  C   UNL     1      48.636   7.880  12.894  0.00  0.00    +0.000 A 
ATOM      5  C   UNL     1      48.471   7.009  13.979  0.00  0.00    +0.000 A 
ATOM      6  C   UNL     1      49.407   6.972  15.018  0.00  0.00    +0.000 A 
ENDROOT
BRANCH   1   7
ATOM      7  C   UNL     1      51.539   7.771  16.114  0.00  0.00    +0.000 C 
BRANCH   7  10
ATOM      8  O   UNL     1      50.968   6.278  18.420  0.00  0.00    +0.000 OA
ATOM      9  C   UNL     1      51.646   5.773  17.533  0.00  0.00    +0.000 C 
ATOM     10  N   UNL     1      52.004   6.429  16.378  0.00  0.00    +0.000 N 
ATOM     11  H   UNL     1      52.369   5.901  15.596  0.00  0.00    +0.000 HD
BRANCH   9  12
ATOM     12  C   UNL     1      52.089   4.355  17.638  0.00  0.00    +0.000 A 
ATOM     13  C   UNL     1      51.130   3.338  17.545  0.00  0.00    +0.000 A 
ATOM     14  C   UNL     1      51.524   1.997  17.592  0.00  0.00    +0.000 A 
ATOM     15  C   UNL     1      52.872   1.677  17.748  0.00  0.00    +0.000 A 
ATOM     16 CL   UNL     1      53.363   0.029  17.779  0.00  0.00    +0.000 Cl
ATOM     17  C   UNL     1      53.828   2.684  17.877  0.00  0.00    +0.000 A 
ATOM     18  C   UNL     1      53.438   4.025  17.828  0.00  0.00    +0.000 A 
ENDBRANCH   9  12
ENDBRANCH   7  10
ENDBRANCH   1   7
BRANCH   4  19
ATOM     19  C   UNL     1      47.613   7.919  11.787  0.00  0.00    +0.000 C 
BRANCH  19  20
ATOM     20  N   UNL     1      46.913   6.665  11.668  0.00  0.00    +0.000 N 
ATOM     21  C   UNL     1      45.542   6.615  11.627  0.00  0.00    +0.000 C 
ATOM     22  O   UNL     1      44.851   7.630  11.644  0.00  0.00    +0.000 OA
ATOM     23  H   UNL     1      47.433   5.826  11.903  0.00  0.00    +0.000 HD
BRANCH  21  24
ATOM     24  C   UNL     1      44.941   5.280  11.494  0.00  0.00    +0.000 A 
ATOM     25  C   UNL     1      44.252   4.723  12.563  0.00  0.00    +0.000 A 
ATOM     26  S   UNL     1      43.574   3.196  12.218  0.00  0.00    +0.000 S 
ATOM     27  C   UNL     1      44.226   3.200  10.646  0.00  0.00    +0.000 A 
ATOM     28  N   UNL     1      44.042   2.145   9.807  0.00  0.00    +0.000 NA
ATOM     29  C   UNL     1      44.617   2.271   8.658  0.00  0.00    +0.000 A 
ATOM     30  N   UNL     1      45.354   3.358   8.269  0.00  0.00    +0.000 N 
ATOM     31  C   UNL     1      45.542   4.458   9.071  0.00  0.00    +0.000 A 
ATOM     32  O   UNL     1      46.173   5.433   8.676  0.00  0.00    +0.000 OA
ATOM     33  C   UNL     1      44.930   4.361  10.382  0.00  0.00    +0.000 A 
ATOM     34  H   UNL     1      45.767   3.397   7.346  0.00  0.00    +0.000 HD
ENDBRANCH  21  24
ENDBRANCH  19  20
ENDBRANCH   4  19
TORSDOF 6
ENDMDL
MODEL 8
REMARK VINA RESULT:    -6.768      4.157      5.586
REMARK INTER + INTRA:         -10.052
REMARK INTER:                  -9.318
REMARK INTRA:                  -0.734
REMARK UNBOUND:                -0.910
REMARK  Name = 
REMARK  6 active torsions:
REMARK  status: ('A' for Active; 'I' for Inactive)
REMARK    1  A    between atoms: C_2  and  C_25
REMARK    2  A    between atoms: N_3  and  C_4
REMARK    3  A    between atoms: C_4  and  C_5
REMARK    4  A    between atoms: C_8  and  C_9
REMARK    5  A    between atoms: C_9  and  N_10
REMARK    6  A    between atoms: C_11  and  C_13
REMARK                            x       y       z     vdW  Elec       q    Type
REMARK                         _______ _______ _______ _____ _____    ______ ____
ROOT
ATOM      1  C   UNL     1      45.940   7.352  12.397  0.00  0.00    +0.000 A 
ATOM      2  C   UNL     1      46.913   6.465  12.880  0.00  0.00    +0.000 A 
ATOM      3  C   UNL     1      47.855   6.884  13.829  0.00  0.00    +0.000 A 
ATOM      4  C   UNL     1      47.831   8.194  14.327  0.00  0.00    +0.000 A 
ATOM      5  C   UNL     1      46.868   9.083  13.831  0.00  0.00    +0.000 A 
ATOM      6  C   UNL     1      45.925   8.664  12.887  0.00  0.00    +0.000 A 
ENDROOT
BRANCH   1   7
ATOM      7  C   UNL     1      44.906   6.891  11.402  0.00  0.00    +0.000 C 
BRANCH   7  10
ATOM      8  O   UNL     1      43.408   4.731  10.421  0.00  0.00    +0.000 OA
ATOM      9  C   UNL     1      44.594   4.821  10.124  0.00  0.00    +0.000 C 
ATOM     10  N   UNL     1      45.421   5.825  10.574  0.00  0.00    +0.000 N 
ATOM     11  H   UNL     1      46.316   5.973  10.128  0.00  0.00    +0.000 HD
BRANCH   9  12
ATOM     12  C   UNL     1      45.212   3.845   9.184  0.00  0.00    +0.000 A 
ATOM     13  C   UNL     1      45.913   4.328   8.071  0.00  0.00    +0.000 A 
ATOM     14  C   UNL     1      46.543   3.435   7.198  0.00  0.00    +0.000 A 
ATOM     15  C   UNL     1      46.457   2.064   7.431  0.00  0.00    +0.000 A 
ATOM     16 CL   UNL     1      47.254   0.964   6.374  0.00  0.00    +0.000 Cl
ATOM     17  C   UNL     1      45.731   1.574   8.515  0.00  0.00    +0.000 A 
ATOM     18  C   UNL     1      45.102   2.463   9.391  0.00  0.00    +0.000 A 
ENDBRANCH   9  12
ENDBRANCH   7  10
ENDBRANCH   1   7
BRANCH   4  19
ATOM     19  C   UNL     1      48.834   8.654  15.355  0.00  0.00    +0.000 C 
BRANCH  19  20
ATOM     20  N   UNL     1      48.355   8.438  16.697  0.00  0.00    +0.000 N 
ATOM     21  C   UNL     1      48.802   9.203  17.745  0.00  0.00    +0.000 C 
ATOM     22  O   UNL     1      49.591  10.130  17.587  0.00  0.00    +0.000 OA
ATOM     23  H   UNL     1      47.914   7.544  16.887  0.00  0.00    +0.000 HD
BRANCH  21  24
ATOM     24  C   UNL     1      48.234   8.895  19.066  0.00  0.00    +0.000 A 
ATOM     25  C   UNL     1      48.531   7.686  19.681  0.00  0.00    +0.000 A 
ATOM     26  S   UNL     1      47.835   7.518  21.229  0.00  0.00    +0.000 S 
ATOM     27  C   UNL     1      47.065   9.031  21.108  0.00  0.00    +0.000 A 
ATOM     28  N   UNL     1      46.265   9.493  22.107  0.00  0.00    +0.000 NA
ATOM     29  C   UNL     1      45.723  10.640  21.868  0.00  0.00    +0.000 A 
ATOM     30  N   UNL     1      45.913  11.370  20.724  0.00  0.00    +0.000 N 
ATOM     31  C   UNL     1      46.734  10.956  19.702  0.00  0.00    +0.000 A 
ATOM     32  O   UNL     1      46.914  11.654  18.710  0.00  0.00    +0.000 OA
ATOM     33  C   UNL     1      47.356   9.664  19.914  0.00  0.00    +0.000 A 
ATOM     34  H   UNL     1      45.466  12.270  20.608  0.00  0.00    +0.000 HD
ENDBRANCH  21  24
ENDBRANCH  19  20
ENDBRANCH   4  19
TORSDOF 6
ENDMDL
MODEL 9
REMARK VINA RESULT:    -6.727      2.034      2.823
REMARK INTER + INTRA:          -9.997
REMARK INTER:                  -9.084
REMARK INTRA:                  -0.913
REMARK UNBOUND:                -0.910
REMARK  Name = 
REMARK  6 active torsions:
REMARK  status: ('A' for Active; 'I' for Inactive)
REMARK    1  A    between atoms: C_2  and  C_25
REMARK    2  A    between atoms: N_3  and  C_4
REMARK    3  A    between atoms: C_4  and  C_5
REMARK    4  A    between atoms: C_8  and  C_9
REMARK    5  A    between atoms: C_9  and  N_10
REMARK    6  A    between atoms: C_11  and  C_13
REMARK                            x       y       z     vdW  Elec       q    Type
REMARK                         _______ _______ _______ _____ _____    ______ ____
ROOT
ATOM      1  C   UNL     1      48.137   8.138  13.769  0.00  0.00    +0.000 A 
ATOM      2  C   UNL     1      48.134   9.258  14.613  0.00  0.00    +0.000 A 
ATOM      3  C   UNL     1      48.488   9.136  15.963  0.00  0.00    +0.000 A 
ATOM      4  C   UNL     1      48.872   7.896  16.491  0.00  0.00    +0.000 A 
ATOM      5  C   UNL     1      48.859   6.775  15.649  0.00  0.00    +0.000 A 
ATOM      6  C   UNL     1      48.509   6.897  14.300  0.00  0.00    +0.000 A 
ENDROOT
BRANCH   1   7
ATOM      7  C   UNL     1      47.789   8.275  12.308  0.00  0.00    +0.000 C 
BRANCH   7  10
ATOM      8  O   UNL     1      45.102   7.467  12.260  0.00  0.00    +0.000 OA
ATOM      9  C   UNL     1      45.956   6.735  11.774  0.00  0.00    +0.000 C 
ATOM     10  N   UNL     1      47.301   7.026  11.771  0.00  0.00    +0.000 N 
ATOM     11  H   UNL     1      47.925   6.503  11.171  0.00  0.00    +0.000 HD
BRANCH   9  12
ATOM     12  C   UNL     1      45.565   5.472  11.087  0.00  0.00    +0.000 A 
ATOM     13  C   UNL     1      45.629   5.414   9.689  0.00  0.00    +0.000 A 
ATOM     14  C   UNL     1      45.313   4.226   9.021  0.00  0.00    +0.000 A 
ATOM     15  C   UNL     1      44.919   3.107   9.752  0.00  0.00    +0.000 A 
ATOM     16 CL   UNL     1      44.556   1.636   8.936  0.00  0.00    +0.000 Cl
ATOM     17  C   UNL     1      44.818   3.167  11.141  0.00  0.00    +0.000 A 
ATOM     18  C   UNL     1      45.136   4.352  11.811  0.00  0.00    +0.000 A 
ENDBRANCH   9  12
ENDBRANCH   7  10
ENDBRANCH   1   7
BRANCH   4  19
ATOM     19  C   UNL     1      49.264   7.754  17.940  0.00  0.00    +0.000 C 
BRANCH  19  20
ATOM     20  N   UNL     1      50.308   6.776  18.113  0.00  0.00    +0.000 N 
ATOM     21  C   UNL     1      50.072   5.586  18.754  0.00  0.00    +0.000 C 
ATOM     22  O   UNL     1      48.958   5.279  19.169  0.00  0.00    +0.000 OA
ATOM     23  H   UNL     1      51.264   7.103  18.011  0.00  0.00    +0.000 HD
BRANCH  21  24
ATOM     24  C   UNL     1      51.211   4.664  18.862  0.00  0.00    +0.000 A 
ATOM     25  C   UNL     1      52.314   5.016  19.629  0.00  0.00    +0.000 A 
ATOM     26  S   UNL     1      53.519   3.809  19.687  0.00  0.00    +0.000 S 
ATOM     27  C   UNL     1      52.634   2.797  18.644  0.00  0.00    +0.000 A 
ATOM     28  N   UNL     1      53.124   1.590  18.253  0.00  0.00    +0.000 NA
ATOM     29  C   UNL     1      52.361   0.943  17.438  0.00  0.00    +0.000 A 
ATOM     30  N   UNL     1      51.149   1.389  16.982  0.00  0.00    +0.000 N 
ATOM     31  C   UNL     1      50.601   2.588  17.371  0.00  0.00    +0.000 A 
ATOM     32  O   UNL     1      49.494   2.939  16.977  0.00  0.00    +0.000 OA
ATOM     33  C   UNL     1      51.426   3.364  18.276  0.00  0.00    +0.000 A 
ATOM     34  H   UNL     1      50.595   0.823  16.353  0.00  0.00    +0.000 HD
ENDBRANCH  21  24
ENDBRANCH  19  20
ENDBRANCH   4  19
TORSDOF 6
ENDMDL
