MODEL 1
REMARK VINA RESULT:    -7.427      0.000      0.000
REMARK INTER + INTRA:          -9.738
REMARK INTER:                  -9.164
REMARK INTRA:                  -0.574
REMARK UNBOUND:                -0.574
REMARK  Name = 
REMARK  5 active torsions:
REMARK  status: ('A' for Active; 'I' for Inactive)
REMARK    1  A    between atoms: C_1  and  O_2
REMARK    2  A    between atoms: O_2  and  C_3
REMARK    3  A    between atoms: C_7  and  C_8
REMARK    4  A    between atoms: C_8  and  N_9
REMARK    5  A    between atoms: C_10  and  C_12
REMARK                            x       y       z     vdW  Elec       q    Type
REMARK                         _______ _______ _______ _____ _____    ______ ____
ROOT
ATOM      1  N   UNL     1      46.864   4.419  15.919  0.00  0.00    +0.000 N 
ATOM      2  C   UNL     1      46.929   4.159  14.574  0.00  0.00    +0.000 C 
ATOM      3  O   UNL     1      47.262   3.064  14.127  0.00  0.00    +0.000 OA
ATOM      4  H   UNL     1      46.897   5.386  16.223  0.00  0.00    +0.000 HD
ENDROOT
BRANCH   2   5
ATOM      5  C   UNL     1      46.499   5.247  13.684  0.00  0.00    +0.000 A 
ATOM      6  C   UNL     1      47.333   6.338  13.470  0.00  0.00    +0.000 A 
ATOM      7  S   UNL     1      46.704   7.472  12.360  0.00  0.00    +0.000 S 
ATOM      8  C   UNL     1      45.269   6.574  12.173  0.00  0.00    +0.000 A 
ATOM      9  N   UNL     1      44.265   7.017  11.367  0.00  0.00    +0.000 NA
ATOM     10  C   UNL     1      43.223   6.255  11.349  0.00  0.00    +0.000 A 
ATOM     11  N   UNL     1      43.092   5.089  12.064  0.00  0.00    +0.000 N 
ATOM     12  C   UNL     1      44.096   4.588  12.857  0.00  0.00    +0.000 A 
ATOM     13  O   UNL     1      43.973   3.513  13.440  0.00  0.00    +0.000 OA
ATOM     14  C   UNL     1      45.281   5.417  12.925  0.00  0.00    +0.000 A 
ATOM     15  H   UNL     1      42.252   4.535  12.002  0.00  0.00    +0.000 HD
ENDBRANCH   2   5
BRANCH   1  16
ATOM     16  C   UNL     1      47.204   3.427  16.913  0.00  0.00    +0.000 C 
BRANCH  16  21
ATOM     17  C   UNL     1      50.806   2.204  17.313  0.00  0.00    +0.000 A 
ATOM     18  C   UNL     1      51.479   3.407  17.529  0.00  0.00    +0.000 A 
ATOM     19  C   UNL     1      50.771   4.604  17.603  0.00  0.00    +0.000 A 
ATOM     20  C   UNL     1      49.385   4.614  17.432  0.00  0.00    +0.000 A 
ATOM     21  C   UNL     1      48.690   3.420  17.185  0.00  0.00    +0.000 A 
ATOM     22  C   UNL     1      49.415   2.219  17.143  0.00  0.00    +0.000 A 
BRANCH  17  24
ATOM     23  C   UNL     1      52.733   0.886  17.715  0.00  0.00    +0.000 C 
ATOM     24  O   UNL     1      51.393   0.969  17.239  0.00  0.00    +0.000 OA
ENDBRANCH  17  24
ENDBRANCH  16  21
ENDBRANCH   1  16
TORSDOF 4
ENDMDL
MODEL 2
REMARK VINA RESULT:    -6.997      3.180      7.209
REMARK INTER + INTRA:          -9.207
REMARK INTER:                  -8.464
REMARK INTRA:                  -0.743
REMARK UNBOUND:                -0.574
REMARK  Name = 
REMARK  5 active torsions:
REMARK  status: ('A' for Active; 'I' for Inactive)
REMARK    1  A    between atoms: C_1  and  O_2
REMARK    2  A    between atoms: O_2  and  C_3
REMARK    3  A    between atoms: C_7  and  C_8
REMARK    4  A    between atoms: C_8  and  N_9
REMARK    5  A    between atoms: C_10  and  C_12
REMARK                            x       y       z     vdW  Elec       q    Type
REMARK                         _______ _______ _______ _____ _____    ______ ____
ROOT
ATOM      1  N   UNL     1      45.774   6.353  12.360  0.00  0.00    +0.000 N 
ATOM      2  C   UNL     1      47.109   6.666  12.396  0.00  0.00    +0.000 C 
ATOM      3  O   UNL     1      47.714   7.095  11.418  0.00  0.00    +0.000 OA
ATOM      4  H   UNL     1      45.408   5.725  13.068  0.00  0.00    +0.000 HD
ENDROOT
BRANCH   2   5
ATOM      5  C   UNL     1      47.767   6.532  13.704  0.00  0.00    +0.000 A 
ATOM      6  C   UNL     1      48.645   7.516  14.141  0.00  0.00    +0.000 A 
ATOM      7  S   UNL     1      49.265   7.233  15.706  0.00  0.00    +0.000 S 
ATOM      8  C   UNL     1      48.427   5.755  15.829  0.00  0.00    +0.000 A 
ATOM      9  N   UNL     1      48.551   4.969  16.933  0.00  0.00    +0.000 NA
ATOM     10  C   UNL     1      47.889   3.862  16.874  0.00  0.00    +0.000 A 
ATOM     11  N   UNL     1      47.113   3.469  15.811  0.00  0.00    +0.000 N 
ATOM     12  C   UNL     1      46.931   4.250  14.696  0.00  0.00    +0.000 A 
ATOM     13  O   UNL     1      46.185   3.898  13.784  0.00  0.00    +0.000 OA
ATOM     14  C   UNL     1      47.668   5.496  14.706  0.00  0.00    +0.000 A 
ATOM     15  H   UNL     1      46.615   2.592  15.830  0.00  0.00    +0.000 HD
ENDBRANCH   2   5
BRANCH   1  16
ATOM     16  C   UNL     1      44.983   6.487  11.158  0.00  0.00    +0.000 C 
BRANCH  16  21
ATOM     17  C   UNL     1      45.559   3.859   8.439  0.00  0.00    +0.000 A 
ATOM     18  C   UNL     1      44.991   2.730   9.028  0.00  0.00    +0.000 A 
ATOM     19  C   UNL     1      44.374   2.822  10.274  0.00  0.00    +0.000 A 
ATOM     20  C   UNL     1      44.343   4.041  10.955  0.00  0.00    +0.000 A 
ATOM     21  C   UNL     1      44.933   5.184  10.395  0.00  0.00    +0.000 A 
ATOM     22  C   UNL     1      45.525   5.080   9.126  0.00  0.00    +0.000 A 
BRANCH  17  24
ATOM     23  C   UNL     1      47.255   2.979   7.039  0.00  0.00    +0.000 C 
ATOM     24  O   UNL     1      46.176   3.891   7.217  0.00  0.00    +0.000 OA
ENDBRANCH  17  24
ENDBRANCH  16  21
ENDBRANCH   1  16
TORSDOF 4
ENDMDL
MODEL 3
REMARK VINA RESULT:    -6.989      1.210      2.044
REMARK INTER + INTRA:          -9.197
REMARK INTER:                  -8.606
REMARK INTRA:                  -0.591
REMARK UNBOUND:                -0.574
REMARK  Name = 
REMARK  5 active torsions:
REMARK  status: ('A' for Active; 'I' for Inactive)
REMARK    1  A    between atoms: C_1  and  O_2
REMARK    2  A    between atoms: O_2  and  C_3
REMARK    3  A    between atoms: C_7  and  C_8
REMARK    4  A    between atoms: C_8  and  N_9
REMARK    5  A    between atoms: C_10  and  C_12
REMARK                            x       y       z     vdW  Elec       q    Type
REMARK                         _______ _______ _______ _____ _____    ______ ____
ROOT
ATOM      1  N   UNL     1      46.871   4.453  15.855  0.00  0.00    +0.000 N 
ATOM      2  C   UNL     1      46.909   4.197  14.508  0.00  0.00    +0.000 C 
ATOM      3  O   UNL     1      47.254   3.111  14.051  0.00  0.00    +0.000 OA
ATOM      4  H   UNL     1      46.890   5.420  16.161  0.00  0.00    +0.000 HD
ENDROOT
BRANCH   2   5
ATOM      5  C   UNL     1      46.434   5.278  13.633  0.00  0.00    +0.000 A 
ATOM      6  C   UNL     1      47.240   6.385  13.398  0.00  0.00    +0.000 A 
ATOM      7  S   UNL     1      46.560   7.507  12.307  0.00  0.00    +0.000 S 
ATOM      8  C   UNL     1      45.139   6.582  12.156  0.00  0.00    +0.000 A 
ATOM      9  N   UNL     1      44.105   7.005  11.378  0.00  0.00    +0.000 NA
ATOM     10  C   UNL     1      43.078   6.223  11.386  0.00  0.00    +0.000 A 
ATOM     11  N   UNL     1      42.990   5.054  12.102  0.00  0.00    +0.000 N 
ATOM     12  C   UNL     1      44.024   4.572  12.868  0.00  0.00    +0.000 A 
ATOM     13  O   UNL     1      43.938   3.494  13.452  0.00  0.00    +0.000 OA
ATOM     14  C   UNL     1      45.194   5.424  12.906  0.00  0.00    +0.000 A 
ATOM     15  H   UNL     1      42.160   4.483  12.061  0.00  0.00    +0.000 HD
ENDBRANCH   2   5
BRANCH   1  16
ATOM     16  C   UNL     1      47.256   3.467  16.839  0.00  0.00    +0.000 C 
BRANCH  16  21
ATOM     17  C   UNL     1      50.761   4.728  17.709  0.00  0.00    +0.000 A 
ATOM     18  C   UNL     1      51.491   3.540  17.683  0.00  0.00    +0.000 A 
ATOM     19  C   UNL     1      50.872   2.342  17.332  0.00  0.00    +0.000 A 
ATOM     20  C   UNL     1      49.509   2.317  17.030  0.00  0.00    +0.000 A 
ATOM     21  C   UNL     1      48.748   3.495  17.078  0.00  0.00    +0.000 A 
ATOM     22  C   UNL     1      49.394   4.697  17.405  0.00  0.00    +0.000 A 
BRANCH  17  24
ATOM     23  C   UNL     1      50.324   6.914  18.509  0.00  0.00    +0.000 C 
ATOM     24  O   UNL     1      51.265   5.962  18.022  0.00  0.00    +0.000 OA
ENDBRANCH  17  24
ENDBRANCH  16  21
ENDBRANCH   1  16
TORSDOF 4
ENDMDL
MODEL 4
REMARK VINA RESULT:    -6.940      2.956      7.150
REMARK INTER + INTRA:          -9.137
REMARK INTER:                  -8.358
REMARK INTRA:                  -0.778
REMARK UNBOUND:                -0.574
REMARK  Name = 
REMARK  5 active torsions:
REMARK  status: ('A' for Active; 'I' for Inactive)
REMARK    1  A    between atoms: C_1  and  O_2
REMARK    2  A    between atoms: O_2  and  C_3
REMARK    3  A    between atoms: C_7  and  C_8
REMARK    4  A    between atoms: C_8  and  N_9
REMARK    5  A    between atoms: C_10  and  C_12
REMARK                            x       y       z     vdW  Elec       q    Type
REMARK                         _______ _______ _______ _____ _____    ______ ____
ROOT
ATOM      1  N   UNL     1      46.702   6.709  13.645  0.00  0.00    +0.000 N 
ATOM      2  C   UNL     1      48.040   6.440  13.783  0.00  0.00    +0.000 C 
ATOM      3  O   UNL     1      48.821   6.465  12.835  0.00  0.00    +0.000 OA
ATOM      4  H   UNL     1      46.069   6.375  14.363  0.00  0.00    +0.000 HD
ENDROOT
BRANCH   2   5
ATOM      5  C   UNL     1      48.511   6.194  15.154  0.00  0.00    +0.000 A 
ATOM      6  C   UNL     1      49.446   7.045  15.728  0.00  0.00    +0.000 A 
ATOM      7  S   UNL     1      49.828   6.651  17.345  0.00  0.00    +0.000 S 
ATOM      8  C   UNL     1      48.801   5.293  17.313  0.00  0.00    +0.000 A 
ATOM      9  N   UNL     1      48.687   4.474  18.394  0.00  0.00    +0.000 NA
ATOM     10  C   UNL     1      47.902   3.464  18.216  0.00  0.00    +0.000 A 
ATOM     11  N   UNL     1      47.219   3.198  17.055  0.00  0.00    +0.000 N 
ATOM     12  C   UNL     1      47.276   4.020  15.955  0.00  0.00    +0.000 A 
ATOM     13  O   UNL     1      46.609   3.788  14.949  0.00  0.00    +0.000 OA
ATOM     14  C   UNL     1      48.159   5.159  16.098  0.00  0.00    +0.000 A 
ATOM     15  H   UNL     1      46.615   2.394  16.981  0.00  0.00    +0.000 HD
ENDBRANCH   2   5
BRANCH   1  16
ATOM     16  C   UNL     1      46.106   7.022  12.366  0.00  0.00    +0.000 C 
BRANCH  16  21
ATOM     17  C   UNL     1      44.145   4.362  10.441  0.00  0.00    +0.000 A 
ATOM     18  C   UNL     1      43.166   4.019  11.373  0.00  0.00    +0.000 A 
ATOM     19  C   UNL     1      43.100   4.678  12.598  0.00  0.00    +0.000 A 
ATOM     20  C   UNL     1      44.031   5.670  12.914  0.00  0.00    +0.000 A 
ATOM     21  C   UNL     1      45.042   6.013  12.003  0.00  0.00    +0.000 A 
ATOM     22  C   UNL     1      45.076   5.359  10.762  0.00  0.00    +0.000 A 
BRANCH  17  24
ATOM     23  C   UNL     1      44.598   2.404   9.188  0.00  0.00    +0.000 C 
ATOM     24  O   UNL     1      44.296   3.796   9.203  0.00  0.00    +0.000 OA
ENDBRANCH  17  24
ENDBRANCH  16  21
ENDBRANCH   1  16
TORSDOF 4
ENDMDL
MODEL 5
REMARK VINA RESULT:    -6.918      2.322      3.126
REMARK INTER + INTRA:          -9.109
REMARK INTER:                  -8.361
REMARK INTRA:                  -0.748
REMARK UNBOUND:                -0.574
REMARK  Name = 
REMARK  5 active torsions:
REMARK  status: ('A' for Active; 'I' for Inactive)
REMARK    1  A    between atoms: C_1  and  O_2
REMARK    2  A    between atoms: O_2  and  C_3
REMARK    3  A    between atoms: C_7  and  C_8
REMARK    4  A    between atoms: C_8  and  N_9
REMARK    5  A    between atoms: C_10  and  C_12
REMARK                            x       y       z     vdW  Elec       q    Type
REMARK                         _______ _______ _______ _____ _____    ______ ____
ROOT
ATOM      1  N   UNL     1      47.093   5.970  14.452  0.00  0.00    +0.000 N 
ATOM      2  C   UNL     1      47.012   6.289  13.121  0.00  0.00    +0.000 C 
ATOM      3  O   UNL     1      47.972   6.713  12.483  0.00  0.00    +0.000 OA
ATOM      4  H   UNL     1      46.233   5.932  14.990  0.00  0.00    +0.000 HD
ENDROOT
BRANCH   2   5
ATOM      5  C   UNL     1      45.722   6.019  12.469  0.00  0.00    +0.000 A 
ATOM      6  C   UNL     1      44.986   7.067  11.930  0.00  0.00    +0.000 A 
ATOM      7  S   UNL     1      43.549   6.566  11.155  0.00  0.00    +0.000 S 
ATOM      8  C   UNL     1      43.832   4.937  11.567  0.00  0.00    +0.000 A 
ATOM      9  N   UNL     1      42.943   3.964  11.227  0.00  0.00    +0.000 NA
ATOM     10  C   UNL     1      43.267   2.782  11.635  0.00  0.00    +0.000 A 
ATOM     11  N   UNL     1      44.400   2.484  12.351  0.00  0.00    +0.000 N 
ATOM     12  C   UNL     1      45.341   3.430  12.680  0.00  0.00    +0.000 A 
ATOM     13  O   UNL     1      46.374   3.125  13.272  0.00  0.00    +0.000 OA
ATOM     14  C   UNL     1      45.014   4.777  12.260  0.00  0.00    +0.000 A 
ATOM     15  H   UNL     1      44.600   1.538  12.635  0.00  0.00    +0.000 HD
ENDBRANCH   2   5
BRANCH   1  16
ATOM     16  C   UNL     1      48.312   6.129  15.211  0.00  0.00    +0.000 C 
BRANCH  16  21
ATOM     17  C   UNL     1      49.303   4.457  18.506  0.00  0.00    +0.000 A 
ATOM     18  C   UNL     1      48.394   3.400  18.558  0.00  0.00    +0.000 A 
ATOM     19  C   UNL     1      47.500   3.190  17.510  0.00  0.00    +0.000 A 
ATOM     20  C   UNL     1      47.488   4.053  16.412  0.00  0.00    +0.000 A 
ATOM     21  C   UNL     1      48.373   5.139  16.351  0.00  0.00    +0.000 A 
ATOM     22  C   UNL     1      49.286   5.319  17.401  0.00  0.00    +0.000 A 
BRANCH  17  24
ATOM     23  C   UNL     1      49.734   4.928  20.787  0.00  0.00    +0.000 C 
ATOM     24  O   UNL     1      50.235   4.750  19.465  0.00  0.00    +0.000 OA
ENDBRANCH  17  24
ENDBRANCH  16  21
ENDBRANCH   1  16
TORSDOF 4
ENDMDL
MODEL 6
REMARK VINA RESULT:    -6.862      1.814      2.852
REMARK INTER + INTRA:          -9.040
REMARK INTER:                  -8.207
REMARK INTRA:                  -0.833
REMARK UNBOUND:                -0.574
REMARK  Name = 
REMARK  5 active torsions:
REMARK  status: ('A' for Active; 'I' for Inactive)
REMARK    1  A    between atoms: C_1  and  O_2
REMARK    2  A    between atoms: O_2  and  C_3
REMARK    3  A    between atoms: C_7  and  C_8
REMARK    4  A    between atoms: C_8  and  N_9
REMARK    5  A    between atoms: C_10  and  C_12
REMARK                            x       y       z     vdW  Elec       q    Type
REMARK                         _______ _______ _______ _____ _____    ______ ____
ROOT
ATOM      1  N   UNL     1      46.992   4.560  15.914  0.00  0.00    +0.000 N 
ATOM      2  C   UNL     1      47.023   4.296  14.568  0.00  0.00    +0.000 C 
ATOM      3  O   UNL     1      47.256   3.176  14.120  0.00  0.00    +0.000 OA
ATOM      4  H   UNL     1      47.110   5.521  16.218  0.00  0.00    +0.000 HD
ENDROOT
BRANCH   2   5
ATOM      5  C   UNL     1      46.681   5.418  13.683  0.00  0.00    +0.000 A 
ATOM      6  C   UNL     1      45.503   5.386  12.947  0.00  0.00    +0.000 A 
ATOM      7  S   UNL     1      45.233   6.797  12.026  0.00  0.00    +0.000 S 
ATOM      8  C   UNL     1      46.711   7.475  12.532  0.00  0.00    +0.000 A 
ATOM      9  N   UNL     1      47.119   8.690  12.073  0.00  0.00    +0.000 NA
ATOM     10  C   UNL     1      48.275   9.063  12.511  0.00  0.00    +0.000 A 
ATOM     11  N   UNL     1      49.061   8.332  13.368  0.00  0.00    +0.000 N 
ATOM     12  C   UNL     1      48.669   7.121  13.884  0.00  0.00    +0.000 A 
ATOM     13  O   UNL     1      49.367   6.515  14.694  0.00  0.00    +0.000 OA
ATOM     14  C   UNL     1      47.385   6.649  13.408  0.00  0.00    +0.000 A 
ATOM     15  H   UNL     1      49.954   8.682  13.679  0.00  0.00    +0.000 HD
ENDBRANCH   2   5
BRANCH   1  16
ATOM     16  C   UNL     1      47.253   3.542  16.906  0.00  0.00    +0.000 C 
BRANCH  16  21
ATOM     17  C   UNL     1      50.813   2.204  17.319  0.00  0.00    +0.000 A 
ATOM     18  C   UNL     1      51.496   3.362  17.691  0.00  0.00    +0.000 A 
ATOM     19  C   UNL     1      50.807   4.560  17.864  0.00  0.00    +0.000 A 
ATOM     20  C   UNL     1      49.430   4.618  17.639  0.00  0.00    +0.000 A 
ATOM     21  C   UNL     1      48.726   3.473  17.236  0.00  0.00    +0.000 A 
ATOM     22  C   UNL     1      49.431   2.268  17.095  0.00  0.00    +0.000 A 
BRANCH  17  24
ATOM     23  C   UNL     1      52.749   0.853  17.516  0.00  0.00    +0.000 C 
ATOM     24  O   UNL     1      51.381   0.972  17.136  0.00  0.00    +0.000 OA
ENDBRANCH  17  24
ENDBRANCH  16  21
ENDBRANCH   1  16
TORSDOF 4
ENDMDL
MODEL 7
REMARK VINA RESULT:    -6.758      2.008      3.079
REMARK INTER + INTRA:          -8.912
REMARK INTER:                  -8.095
REMARK INTRA:                  -0.817
REMARK UNBOUND:                -0.574
REMARK  Name = 
REMARK  5 active torsions:
REMARK  status: ('A' for Active; 'I' for Inactive)
REMARK    1  A    between atoms: C_1  and  O_2
REMARK    2  A    between atoms: O_2  and  C_3
REMARK    3  A    between atoms: C_7  and  C_8
REMARK    4  A    between atoms: C_8  and  N_9
REMARK    5  A    between atoms: C_10  and  C_12
REMARK                            x       y       z     vdW  Elec       q    Type
REMARK                         _______ _______ _______ _____ _____    ______ ____
ROOT
ATOM      1  N   UNL     1      48.067   7.173  14.984  0.00  0.00    +0.000 N 
ATOM      2  C   UNL     1      48.178   6.761  13.681  0.00  0.00    +0.000 C 
ATOM      3  O   UNL     1      49.264   6.591  13.132  0.00  0.00    +0.000 OA
ATOM      4  H   UNL     1      47.192   7.592  15.282  0.00  0.00    +0.000 HD
ENDROOT
BRANCH   2   5
ATOM      5  C   UNL     1      46.917   6.454  12.991  0.00  0.00    +0.000 A 
ATOM      6  C   UNL     1      46.178   7.477  12.411  0.00  0.00    +0.000 A 
ATOM      7  S   UNL     1      44.779   6.934  11.597  0.00  0.00    +0.000 S 
ATOM      8  C   UNL     1      45.082   5.318  12.042  0.00  0.00    +0.000 A 
ATOM      9  N   UNL     1      44.226   4.321  11.689  0.00  0.00    +0.000 NA
ATOM     10  C   UNL     1      44.561   3.152  12.125  0.00  0.00    +0.000 A 
ATOM     11  N   UNL     1      45.675   2.890  12.884  0.00  0.00    +0.000 N 
ATOM     12  C   UNL     1      46.584   3.861  13.229  0.00  0.00    +0.000 A 
ATOM     13  O   UNL     1      47.603   3.587  13.860  0.00  0.00    +0.000 OA
ATOM     14  C   UNL     1      46.243   5.194  12.778  0.00  0.00    +0.000 A 
ATOM     15  H   UNL     1      45.885   1.952  13.189  0.00  0.00    +0.000 HD
ENDBRANCH   2   5
BRANCH   1  16
ATOM     16  C   UNL     1      49.221   7.459  15.804  0.00  0.00    +0.000 C 
BRANCH  16  21
ATOM     17  C   UNL     1      49.234   3.983  17.401  0.00  0.00    +0.000 A 
ATOM     18  C   UNL     1      50.582   3.839  17.727  0.00  0.00    +0.000 A 
ATOM     19  C   UNL     1      51.478   4.878  17.486  0.00  0.00    +0.000 A 
ATOM     20  C   UNL     1      51.039   6.062  16.890  0.00  0.00    +0.000 A 
ATOM     21  C   UNL     1      49.693   6.219  16.527  0.00  0.00    +0.000 A 
ATOM     22  C   UNL     1      48.798   5.174  16.804  0.00  0.00    +0.000 A 
BRANCH  17  24
ATOM     23  C   UNL     1      46.923   3.463  17.369  0.00  0.00    +0.000 C 
ATOM     24  O   UNL     1      48.263   3.040  17.606  0.00  0.00    +0.000 OA
ENDBRANCH  17  24
ENDBRANCH  16  21
ENDBRANCH   1  16
TORSDOF 4
ENDMDL
MODEL 8
REMARK VINA RESULT:    -6.750      1.741      2.452
REMARK INTER + INTRA:          -8.903
REMARK INTER:                  -8.202
REMARK INTRA:                  -0.701
REMARK UNBOUND:                -0.574
REMARK  Name = 
REMARK  5 active torsions:
REMARK  status: ('A' for Active; 'I' for Inactive)
REMARK    1  A    between atoms: C_1  and  O_2
REMARK    2  A    between atoms: O_2  and  C_3
REMARK    3  A    between atoms: C_7  and  C_8
REMARK    4  A    between atoms: C_8  and  N_9
REMARK    5  A    between atoms: C_10  and  C_12
REMARK                            x       y       z     vdW  Elec       q    Type
REMARK                         _______ _______ _______ _____ _____    ______ ____
ROOT
ATOM      1  N   UNL     1      47.868   6.343  15.425  0.00  0.00    +0.000 N 
ATOM      2  C   UNL     1      48.095   6.477  14.079  0.00  0.00    +0.000 C 
ATOM      3  O   UNL     1      49.216   6.657  13.612  0.00  0.00    +0.000 OA
ATOM      4  H   UNL     1      46.930   6.512  15.773  0.00  0.00    +0.000 HD
ENDROOT
BRANCH   2   5
ATOM      5  C   UNL     1      46.922   6.315  13.208  0.00  0.00    +0.000 A 
ATOM      6  C   UNL     1      46.340   7.428  12.614  0.00  0.00    +0.000 A 
ATOM      7  S   UNL     1      45.033   7.049  11.584  0.00  0.00    +0.000 S 
ATOM      8  C   UNL     1      45.161   5.389  11.943  0.00  0.00    +0.000 A 
ATOM      9  N   UNL     1      44.295   4.487  11.405  0.00  0.00    +0.000 NA
ATOM     10  C   UNL     1      44.487   3.270  11.793  0.00  0.00    +0.000 A 
ATOM     11  N   UNL     1      45.466   2.873  12.670  0.00  0.00    +0.000 N 
ATOM     12  C   UNL     1      46.383   3.745  13.204  0.00  0.00    +0.000 A 
ATOM     13  O   UNL     1      47.285   3.352  13.942  0.00  0.00    +0.000 OA
ATOM     14  C   UNL     1      46.199   5.127  12.813  0.00  0.00    +0.000 A 
ATOM     15  H   UNL     1      45.567   1.904  12.929  0.00  0.00    +0.000 HD
ENDBRANCH   2   5
BRANCH   1  16
ATOM     16  C   UNL     1      48.933   6.423  16.398  0.00  0.00    +0.000 C 
BRANCH  16  21
ATOM     17  C   UNL     1      51.079   3.568  17.766  0.00  0.00    +0.000 A 
ATOM     18  C   UNL     1      50.148   2.531  17.823  0.00  0.00    +0.000 A 
ATOM     19  C   UNL     1      48.845   2.732  17.371  0.00  0.00    +0.000 A 
ATOM     20  C   UNL     1      48.454   3.980  16.883  0.00  0.00    +0.000 A 
ATOM     21  C   UNL     1      49.366   5.046  16.842  0.00  0.00    +0.000 A 
ATOM     22  C   UNL     1      50.682   4.819  17.274  0.00  0.00    +0.000 A 
BRANCH  17  24
ATOM     23  C   UNL     1      53.027   2.230  17.937  0.00  0.00    +0.000 C 
ATOM     24  O   UNL     1      52.386   3.483  18.164  0.00  0.00    +0.000 OA
ENDBRANCH  17  24
ENDBRANCH  16  21
ENDBRANCH   1  16
TORSDOF 4
ENDMDL
MODEL 9
REMARK VINA RESULT:    -6.610      6.019      9.386
REMARK INTER + INTRA:          -8.730
REMARK INTER:                  -8.197
REMARK INTRA:                  -0.533
REMARK UNBOUND:                -0.574
REMARK  Name = 
REMARK  5 active torsions:
REMARK  status: ('A' for Active; 'I' for Inactive)
REMARK    1  A    between atoms: C_1  and  O_2
REMARK    2  A    between atoms: O_2  and  C_3
REMARK    3  A    between atoms: C_7  and  C_8
REMARK    4  A    between atoms: C_8  and  N_9
REMARK    5  A    between atoms: C_10  and  C_12
REMARK                            x       y       z     vdW  Elec       q    Type
REMARK                         _______ _______ _______ _____ _____    ______ ____
ROOT
ATOM      1  N   UNL     1      44.275   7.886  11.328  0.00  0.00    +0.000 N 
ATOM      2  C   UNL     1      45.208   6.891  11.475  0.00  0.00    +0.000 C 
ATOM      3  O   UNL     1      46.394   7.124  11.693  0.00  0.00    +0.000 OA
ATOM      4  H   UNL     1      43.408   7.665  10.849  0.00  0.00    +0.000 HD
ENDROOT
BRANCH   2   5
ATOM      5  C   UNL     1      44.694   5.515  11.434  0.00  0.00    +0.000 A 
ATOM      6  C   UNL     1      43.984   5.008  12.516  0.00  0.00    +0.000 A 
ATOM      7  S   UNL     1      43.406   3.420  12.271  0.00  0.00    +0.000 S 
ATOM      8  C   UNL     1      44.137   3.334  10.734  0.00  0.00    +0.000 A 
ATOM      9  N   UNL     1      44.055   2.202   9.982  0.00  0.00    +0.000 NA
ATOM     10  C   UNL     1      44.685   2.265   8.857  0.00  0.00    +0.000 A 
ATOM     11  N   UNL     1      45.390   3.358   8.415  0.00  0.00    +0.000 N 
ATOM     12  C   UNL     1      45.464   4.531   9.125  0.00  0.00    +0.000 A 
ATOM     13  O   UNL     1      46.054   5.513   8.678  0.00  0.00    +0.000 OA
ATOM     14  C   UNL     1      44.787   4.505  10.405  0.00  0.00    +0.000 A 
ATOM     15  H   UNL     1      45.857   3.346   7.521  0.00  0.00    +0.000 HD
ENDBRANCH   2   5
BRANCH   1  16
ATOM     16  C   UNL     1      44.623   9.287  11.399  0.00  0.00    +0.000 C 
BRANCH  16  21
ATOM     17  C   UNL     1      41.488  10.889   9.903  0.00  0.00    +0.000 A 
ATOM     18  C   UNL     1      42.049  11.762   8.971  0.00  0.00    +0.000 A 
ATOM     19  C   UNL     1      43.428  11.798   8.782  0.00  0.00    +0.000 A 
ATOM     20  C   UNL     1      44.264  10.979   9.545  0.00  0.00    +0.000 A 
ATOM     21  C   UNL     1      43.726  10.114  10.509  0.00  0.00    +0.000 A 
ATOM     22  C   UNL     1      42.332  10.069  10.665  0.00  0.00    +0.000 A 
BRANCH  17  24
ATOM     23  C   UNL     1      39.813  10.234  11.444  0.00  0.00    +0.000 C 
ATOM     24  O   UNL     1      40.151  10.756  10.162  0.00  0.00    +0.000 OA
ENDBRANCH  17  24
ENDBRANCH  16  21
ENDBRANCH   1  16
TORSDOF 4
ENDMDL
