MODEL 1
REMARK VINA RESULT:    -8.341      0.000      0.000
REMARK INTER + INTRA:         -11.993
REMARK INTER:                 -11.754
REMARK INTRA:                  -0.238
REMARK UNBOUND:                -0.238
REMARK  Name = 
REMARK  8 active torsions:
REMARK  status: ('A' for Active; 'I' for Inactive)
REMARK    1  A    between atoms: C_1  and  O_2
REMARK    2  A    between atoms: O_2  and  C_3
REMARK    3  A    between atoms: C_3  and  C_4
REMARK    4  A    between atoms: C_4  and  N_5
REMARK    5  A    between atoms: C_4  and  C_18
REMARK    6  A    between atoms: C_6  and  C_8
REMARK    7  A    between atoms: C_21  and  O_22
REMARK    8  A    between atoms: O_22  and  C_23
REMARK                            x       y       z     vdW  Elec       q    Type
REMARK                         _______ _______ _______ _____ _____    ______ ____
ROOT
ATOM      1  C   UNL     1      46.580   7.856  12.685  0.00  0.00    +0.000 C 
ENDROOT
BRANCH   1   2
ATOM      2  C   UNL     1      45.999   6.677  11.919  0.00  0.00    +0.000 A 
ATOM      3  C   UNL     1      46.287   6.516  10.561  0.00  0.00    +0.000 A 
ATOM      4  C   UNL     1      45.799   5.411   9.862  0.00  0.00    +0.000 A 
ATOM      5  C   UNL     1      45.066   4.420  10.525  0.00  0.00    +0.000 A 
ATOM      6  C   UNL     1      44.731   4.593  11.862  0.00  0.00    +0.000 A 
ATOM      7  C   UNL     1      45.185   5.717  12.551  0.00  0.00    +0.000 A 
BRANCH   5   8
ATOM      8  O   UNL     1      44.598   3.281   9.913  0.00  0.00    +0.000 OA
BRANCH   8   9
ATOM      9  C   UNL     1      45.315   2.783   8.831  0.00  0.00    +0.000 A 
ATOM     10  C   UNL     1      45.647   3.696   7.839  0.00  0.00    +0.000 A 
ATOM     11  C   UNL     1      46.410   3.252   6.763  0.00  0.00    +0.000 A 
ATOM     12  C   UNL     1      46.810   1.920   6.717  0.00  0.00    +0.000 A 
ATOM     13  C   UNL     1      46.400   1.085   7.742  0.00  0.00    +0.000 A 
ATOM     14 CL   UNL     1      46.877  -0.561   7.784  0.00  0.00    +0.000 Cl
ATOM     15  N   UNL     1      45.649   1.476   8.784  0.00  0.00    +0.000 NA
ENDBRANCH   8   9
ENDBRANCH   5   8
ENDBRANCH   1   2
BRANCH   1  16
ATOM     16  N   UNL     1      47.063   7.406  13.982  0.00  0.00    +0.000 N 
ATOM     17  C   UNL     1      48.243   6.744  14.182  0.00  0.00    +0.000 C 
ATOM     18  O   UNL     1      49.072   6.565  13.297  0.00  0.00    +0.000 OA
ATOM     19  H   UNL     1      46.372   7.403  14.719  0.00  0.00    +0.000 HD
BRANCH  17  20
ATOM     20  C   UNL     1      48.483   6.309  15.568  0.00  0.00    +0.000 A 
ATOM     21  C   UNL     1      49.163   7.135  16.453  0.00  0.00    +0.000 A 
ATOM     22  S   UNL     1      49.314   6.478  18.020  0.00  0.00    +0.000 S 
ATOM     23  C   UNL     1      48.530   5.040  17.557  0.00  0.00    +0.000 A 
ATOM     24  N   UNL     1      48.355   4.017  18.440  0.00  0.00    +0.000 NA
ATOM     25  C   UNL     1      47.794   2.968  17.938  0.00  0.00    +0.000 A 
ATOM     26  N   UNL     1      47.382   2.853  16.637  0.00  0.00    +0.000 N 
ATOM     27  C   UNL     1      47.433   3.897  15.748  0.00  0.00    +0.000 A 
ATOM     28  O   UNL     1      46.873   3.815  14.661  0.00  0.00    +0.000 OA
ATOM     29  C   UNL     1      48.124   5.076  16.235  0.00  0.00    +0.000 A 
ATOM     30  H   UNL     1      46.908   2.021  16.316  0.00  0.00    +0.000 HD
ENDBRANCH  17  20
ENDBRANCH   1  16
BRANCH   1  31
ATOM     31  C   UNL     1      45.507   8.956  12.855  0.00  0.00    +0.000 C 
BRANCH  31  33
ATOM     32  C   UNL     1      44.139  10.510  11.730  0.00  0.00    +0.000 C 
ATOM     33  O   UNL     1      45.147   9.518  11.588  0.00  0.00    +0.000 OA
ENDBRANCH  31  33
ENDBRANCH   1  31
TORSDOF 7
ENDMDL
MODEL 2
REMARK VINA RESULT:    -8.101      2.673      4.334
REMARK INTER + INTRA:         -11.655
REMARK INTER:                 -10.525
REMARK INTRA:                  -1.130
REMARK UNBOUND:                -0.238
REMARK  Name = 
REMARK  8 active torsions:
REMARK  status: ('A' for Active; 'I' for Inactive)
REMARK    1  A    between atoms: C_1  and  O_2
REMARK    2  A    between atoms: O_2  and  C_3
REMARK    3  A    between atoms: C_3  and  C_4
REMARK    4  A    between atoms: C_4  and  N_5
REMARK    5  A    between atoms: C_4  and  C_18
REMARK    6  A    between atoms: C_6  and  C_8
REMARK    7  A    between atoms: C_21  and  O_22
REMARK    8  A    between atoms: O_22  and  C_23
REMARK                            x       y       z     vdW  Elec       q    Type
REMARK                         _______ _______ _______ _____ _____    ______ ____
ROOT
ATOM      1  C   UNL     1      46.730   5.519  14.185  0.00  0.00    +0.000 C 
ENDROOT
BRANCH   1   2
ATOM      2  C   UNL     1      46.048   4.972  12.940  0.00  0.00    +0.000 A 
ATOM      3  C   UNL     1      45.856   5.798  11.829  0.00  0.00    +0.000 A 
ATOM      4  C   UNL     1      45.275   5.292  10.666  0.00  0.00    +0.000 A 
ATOM      5  C   UNL     1      44.933   3.938  10.575  0.00  0.00    +0.000 A 
ATOM      6  C   UNL     1      45.073   3.119  11.688  0.00  0.00    +0.000 A 
ATOM      7  C   UNL     1      45.616   3.634  12.865  0.00  0.00    +0.000 A 
BRANCH   5   8
ATOM      8  O   UNL     1      44.405   3.360   9.445  0.00  0.00    +0.000 OA
BRANCH   8   9
ATOM      9  C   UNL     1      45.289   2.821   8.516  0.00  0.00    +0.000 A 
ATOM     10  C   UNL     1      45.843   3.711   7.606  0.00  0.00    +0.000 A 
ATOM     11  C   UNL     1      46.772   3.224   6.692  0.00  0.00    +0.000 A 
ATOM     12  C   UNL     1      47.112   1.875   6.719  0.00  0.00    +0.000 A 
ATOM     13  C   UNL     1      46.479   1.068   7.648  0.00  0.00    +0.000 A 
ATOM     14 CL   UNL     1      46.863  -0.599   7.776  0.00  0.00    +0.000 Cl
ATOM     15  N   UNL     1      45.564   1.500   8.531  0.00  0.00    +0.000 NA
ENDBRANCH   8   9
ENDBRANCH   5   8
ENDBRANCH   1   2
BRANCH   1  16
ATOM     16  N   UNL     1      47.938   6.237  13.805  0.00  0.00    +0.000 N 
ATOM     17  C   UNL     1      48.014   7.592  13.639  0.00  0.00    +0.000 C 
ATOM     18  O   UNL     1      47.093   8.355  13.908  0.00  0.00    +0.000 OA
ATOM     19  H   UNL     1      48.683   5.659  13.442  0.00  0.00    +0.000 HD
BRANCH  17  20
ATOM     20  C   UNL     1      49.318   8.087  13.165  0.00  0.00    +0.000 A 
ATOM     21  C   UNL     1      49.418   8.729  11.938  0.00  0.00    +0.000 A 
ATOM     22  S   UNL     1      50.998   9.263  11.575  0.00  0.00    +0.000 S 
ATOM     23  C   UNL     1      51.616   8.603  13.017  0.00  0.00    +0.000 A 
ATOM     24  N   UNL     1      52.942   8.683  13.316  0.00  0.00    +0.000 NA
ATOM     25  C   UNL     1      53.279   8.093  14.413  0.00  0.00    +0.000 A 
ATOM     26  N   UNL     1      52.408   7.438  15.245  0.00  0.00    +0.000 N 
ATOM     27  C   UNL     1      51.052   7.434  15.040  0.00  0.00    +0.000 A 
ATOM     28  O   UNL     1      50.295   7.014  15.908  0.00  0.00    +0.000 OA
ATOM     29  C   UNL     1      50.625   8.016  13.782  0.00  0.00    +0.000 A 
ATOM     30  H   UNL     1      52.727   7.034  16.113  0.00  0.00    +0.000 HD
ENDBRANCH  17  20
ENDBRANCH   1  16
BRANCH   1  31
ATOM     31  C   UNL     1      47.066   4.365  15.155  0.00  0.00    +0.000 C 
BRANCH  31  33
ATOM     32  C   UNL     1      47.965   4.365  17.334  0.00  0.00    +0.000 C 
ATOM     33  O   UNL     1      48.196   4.696  15.971  0.00  0.00    +0.000 OA
ENDBRANCH  31  33
ENDBRANCH   1  31
TORSDOF 7
ENDMDL
MODEL 3
REMARK VINA RESULT:    -8.036      2.390      4.688
REMARK INTER + INTRA:         -11.563
REMARK INTER:                 -10.349
REMARK INTRA:                  -1.214
REMARK UNBOUND:                -0.238
REMARK  Name = 
REMARK  8 active torsions:
REMARK  status: ('A' for Active; 'I' for Inactive)
REMARK    1  A    between atoms: C_1  and  O_2
REMARK    2  A    between atoms: O_2  and  C_3
REMARK    3  A    between atoms: C_3  and  C_4
REMARK    4  A    between atoms: C_4  and  N_5
REMARK    5  A    between atoms: C_4  and  C_18
REMARK    6  A    between atoms: C_6  and  C_8
REMARK    7  A    between atoms: C_21  and  O_22
REMARK    8  A    between atoms: O_22  and  C_23
REMARK                            x       y       z     vdW  Elec       q    Type
REMARK                         _______ _______ _______ _____ _____    ______ ____
ROOT
ATOM      1  C   UNL     1      46.899   5.317  14.306  0.00  0.00    +0.000 C 
ENDROOT
BRANCH   1   2
ATOM      2  C   UNL     1      46.193   4.859  13.039  0.00  0.00    +0.000 A 
ATOM      3  C   UNL     1      46.049   5.739  11.963  0.00  0.00    +0.000 A 
ATOM      4  C   UNL     1      45.446   5.313  10.779  0.00  0.00    +0.000 A 
ATOM      5  C   UNL     1      45.033   3.984  10.632  0.00  0.00    +0.000 A 
ATOM      6  C   UNL     1      45.125   3.114  11.710  0.00  0.00    +0.000 A 
ATOM      7  C   UNL     1      45.691   3.550  12.908  0.00  0.00    +0.000 A 
BRANCH   5   8
ATOM      8  O   UNL     1      44.478   3.482   9.478  0.00  0.00    +0.000 OA
BRANCH   8   9
ATOM      9  C   UNL     1      45.333   2.921   8.536  0.00  0.00    +0.000 A 
ATOM     10  C   UNL     1      45.900   3.799   7.621  0.00  0.00    +0.000 A 
ATOM     11  C   UNL     1      46.803   3.289   6.693  0.00  0.00    +0.000 A 
ATOM     12  C   UNL     1      47.104   1.931   6.711  0.00  0.00    +0.000 A 
ATOM     13  C   UNL     1      46.461   1.138   7.645  0.00  0.00    +0.000 A 
ATOM     14 CL   UNL     1      46.799  -0.539   7.763  0.00  0.00    +0.000 Cl
ATOM     15  N   UNL     1      45.571   1.593   8.542  0.00  0.00    +0.000 NA
ENDBRANCH   8   9
ENDBRANCH   5   8
ENDBRANCH   1   2
BRANCH   1  16
ATOM     16  N   UNL     1      48.049   6.138  13.955  0.00  0.00    +0.000 N 
ATOM     17  C   UNL     1      48.698   6.972  14.823  0.00  0.00    +0.000 C 
ATOM     18  O   UNL     1      48.447   7.024  16.022  0.00  0.00    +0.000 OA
ATOM     19  H   UNL     1      48.216   6.241  12.964  0.00  0.00    +0.000 HD
BRANCH  17  20
ATOM     20  C   UNL     1      49.780   7.772  14.223  0.00  0.00    +0.000 A 
ATOM     21  C   UNL     1      51.064   7.717  14.749  0.00  0.00    +0.000 A 
ATOM     22  S   UNL     1      52.189   8.681  13.902  0.00  0.00    +0.000 S 
ATOM     23  C   UNL     1      50.988   9.254  12.841  0.00  0.00    +0.000 A 
ATOM     24  N   UNL     1      51.283  10.161  11.868  0.00  0.00    +0.000 NA
ATOM     25  C   UNL     1      50.266  10.548  11.173  0.00  0.00    +0.000 A 
ATOM     26  N   UNL     1      48.983  10.102  11.354  0.00  0.00    +0.000 N 
ATOM     27  C   UNL     1      48.664   9.107  12.242  0.00  0.00    +0.000 A 
ATOM     28  O   UNL     1      47.549   8.599  12.231  0.00  0.00    +0.000 OA
ATOM     29  C   UNL     1      49.754   8.689  13.104  0.00  0.00    +0.000 A 
ATOM     30  H   UNL     1      48.238  10.410  10.748  0.00  0.00    +0.000 HD
ENDBRANCH  17  20
ENDBRANCH   1  16
BRANCH   1  31
ATOM     31  C   UNL     1      47.340   4.092  15.139  0.00  0.00    +0.000 C 
BRANCH  31  33
ATOM     32  C   UNL     1      47.575   3.735  17.457  0.00  0.00    +0.000 C 
ATOM     33  O   UNL     1      46.676   4.072  16.408  0.00  0.00    +0.000 OA
ENDBRANCH  31  33
ENDBRANCH   1  31
TORSDOF 7
ENDMDL
MODEL 4
REMARK VINA RESULT:    -7.783      4.871      9.717
REMARK INTER + INTRA:         -11.206
REMARK INTER:                  -9.953
REMARK INTRA:                  -1.254
REMARK UNBOUND:                -0.238
REMARK  Name = 
REMARK  8 active torsions:
REMARK  status: ('A' for Active; 'I' for Inactive)
REMARK    1  A    between atoms: C_1  and  O_2
REMARK    2  A    between atoms: O_2  and  C_3
REMARK    3  A    between atoms: C_3  and  C_4
REMARK    4  A    between atoms: C_4  and  N_5
REMARK    5  A    between atoms: C_4  and  C_18
REMARK    6  A    between atoms: C_6  and  C_8
REMARK    7  A    between atoms: C_21  and  O_22
REMARK    8  A    between atoms: O_22  and  C_23
REMARK                            x       y       z     vdW  Elec       q    Type
REMARK                         _______ _______ _______ _____ _____    ______ ____
ROOT
ATOM      1  C   UNL     1      48.260   4.565  16.087  0.00  0.00    +0.000 C 
ENDROOT
BRANCH   1   2
ATOM      2  C   UNL     1      48.254   5.541  17.255  0.00  0.00    +0.000 A 
ATOM      3  C   UNL     1      47.347   5.369  18.304  0.00  0.00    +0.000 A 
ATOM      4  C   UNL     1      47.367   6.230  19.401  0.00  0.00    +0.000 A 
ATOM      5  C   UNL     1      48.332   7.239  19.494  0.00  0.00    +0.000 A 
ATOM      6  C   UNL     1      49.206   7.452  18.436  0.00  0.00    +0.000 A 
ATOM      7  C   UNL     1      49.161   6.616  17.320  0.00  0.00    +0.000 A 
BRANCH   5   8
ATOM      8  O   UNL     1      48.443   8.091  20.567  0.00  0.00    +0.000 OA
BRANCH   8   9
ATOM      9  C   UNL     1      47.556   9.160  20.643  0.00  0.00    +0.000 A 
ATOM     10  C   UNL     1      46.719   9.187  21.750  0.00  0.00    +0.000 A 
ATOM     11  C   UNL     1      45.851  10.266  21.893  0.00  0.00    +0.000 A 
ATOM     12  C   UNL     1      45.852  11.272  20.931  0.00  0.00    +0.000 A 
ATOM     13  C   UNL     1      46.705  11.133  19.851  0.00  0.00    +0.000 A 
ATOM     14 CL   UNL     1      46.796  12.341  18.637  0.00  0.00    +0.000 Cl
ATOM     15  N   UNL     1      47.540  10.097  19.672  0.00  0.00    +0.000 NA
ENDBRANCH   8   9
ENDBRANCH   5   8
ENDBRANCH   1   2
BRANCH   1  16
ATOM     16  N   UNL     1      47.291   4.992  15.089  0.00  0.00    +0.000 N 
ATOM     17  C   UNL     1      47.594   5.740  13.985  0.00  0.00    +0.000 C 
ATOM     18  O   UNL     1      48.741   6.030  13.663  0.00  0.00    +0.000 OA
ATOM     19  H   UNL     1      46.323   4.902  15.365  0.00  0.00    +0.000 HD
BRANCH  17  20
ATOM     20  C   UNL     1      46.437   6.128  13.162  0.00  0.00    +0.000 A 
ATOM     21  C   UNL     1      46.225   7.462  12.837  0.00  0.00    +0.000 A 
ATOM     22  S   UNL     1      44.858   7.715  11.848  0.00  0.00    +0.000 S 
ATOM     23  C   UNL     1      44.463   6.059  11.869  0.00  0.00    +0.000 A 
ATOM     24  N   UNL     1      43.357   5.591  11.227  0.00  0.00    +0.000 NA
ATOM     25  C   UNL     1      43.151   4.325  11.372  0.00  0.00    +0.000 A 
ATOM     26  N   UNL     1      43.957   3.481  12.091  0.00  0.00    +0.000 N 
ATOM     27  C   UNL     1      45.140   3.890  12.654  0.00  0.00    +0.000 A 
ATOM     28  O   UNL     1      45.925   3.068  13.112  0.00  0.00    +0.000 OA
ATOM     29  C   UNL     1      45.384   5.318  12.588  0.00  0.00    +0.000 A 
ATOM     30  H   UNL     1      43.767   2.491  12.130  0.00  0.00    +0.000 HD
ENDBRANCH  17  20
ENDBRANCH   1  16
BRANCH   1  31
ATOM     31  C   UNL     1      47.934   3.140  16.587  0.00  0.00    +0.000 C 
BRANCH  31  33
ATOM     32  C   UNL     1      50.035   2.117  16.896  0.00  0.00    +0.000 C 
ATOM     33  O   UNL     1      48.878   2.191  16.074  0.00  0.00    +0.000 OA
ENDBRANCH  31  33
ENDBRANCH   1  31
TORSDOF 7
ENDMDL
MODEL 5
REMARK VINA RESULT:    -7.639      2.428      3.300
REMARK INTER + INTRA:         -11.004
REMARK INTER:                  -9.555
REMARK INTRA:                  -1.448
REMARK UNBOUND:                -0.238
REMARK  Name = 
REMARK  8 active torsions:
REMARK  status: ('A' for Active; 'I' for Inactive)
REMARK    1  A    between atoms: C_1  and  O_2
REMARK    2  A    between atoms: O_2  and  C_3
REMARK    3  A    between atoms: C_3  and  C_4
REMARK    4  A    between atoms: C_4  and  N_5
REMARK    5  A    between atoms: C_4  and  C_18
REMARK    6  A    between atoms: C_6  and  C_8
REMARK    7  A    between atoms: C_21  and  O_22
REMARK    8  A    between atoms: O_22  and  C_23
REMARK                            x       y       z     vdW  Elec       q    Type
REMARK                         _______ _______ _______ _____ _____    ______ ____
ROOT
ATOM      1  C   UNL     1      48.123   7.575  13.996  0.00  0.00    +0.000 C 
ENDROOT
BRANCH   1   2
ATOM      2  C   UNL     1      47.026   6.956  13.142  0.00  0.00    +0.000 A 
ATOM      3  C   UNL     1      46.415   7.711  12.137  0.00  0.00    +0.000 A 
ATOM      4  C   UNL     1      45.442   7.137  11.317  0.00  0.00    +0.000 A 
ATOM      5  C   UNL     1      45.109   5.785  11.452  0.00  0.00    +0.000 A 
ATOM      6  C   UNL     1      45.672   5.038  12.478  0.00  0.00    +0.000 A 
ATOM      7  C   UNL     1      46.615   5.622  13.324  0.00  0.00    +0.000 A 
BRANCH   5   8
ATOM      8  O   UNL     1      44.198   5.141  10.648  0.00  0.00    +0.000 OA
BRANCH   8   9
ATOM      9  C   UNL     1      44.671   4.156   9.788  0.00  0.00    +0.000 A 
ATOM     10  C   UNL     1      44.263   2.857  10.057  0.00  0.00    +0.000 A 
ATOM     11  C   UNL     1      44.671   1.846   9.192  0.00  0.00    +0.000 A 
ATOM     12  C   UNL     1      45.467   2.168   8.097  0.00  0.00    +0.000 A 
ATOM     13  C   UNL     1      45.843   3.490   7.937  0.00  0.00    +0.000 A 
ATOM     14 CL   UNL     1      46.792   3.981   6.596  0.00  0.00    +0.000 Cl
ATOM     15  N   UNL     1      45.484   4.486   8.762  0.00  0.00    +0.000 NA
ENDBRANCH   8   9
ENDBRANCH   5   8
ENDBRANCH   1   2
BRANCH   1  16
ATOM     16  N   UNL     1      48.088   6.995  15.330  0.00  0.00    +0.000 N 
ATOM     17  C   UNL     1      49.171   6.457  15.969  0.00  0.00    +0.000 C 
ATOM     18  O   UNL     1      50.312   6.514  15.524  0.00  0.00    +0.000 OA
ATOM     19  H   UNL     1      47.165   6.798  15.688  0.00  0.00    +0.000 HD
BRANCH  17  20
ATOM     20  C   UNL     1      48.880   5.848  17.278  0.00  0.00    +0.000 A 
ATOM     21  C   UNL     1      49.061   4.485  17.472  0.00  0.00    +0.000 A 
ATOM     22  S   UNL     1      48.708   3.968  19.059  0.00  0.00    +0.000 S 
ATOM     23  C   UNL     1      48.241   5.537  19.529  0.00  0.00    +0.000 A 
ATOM     24  N   UNL     1      47.788   5.789  20.788  0.00  0.00    +0.000 NA
ATOM     25  C   UNL     1      47.418   7.009  20.988  0.00  0.00    +0.000 A 
ATOM     26  N   UNL     1      47.472   8.004  20.047  0.00  0.00    +0.000 N 
ATOM     27  C   UNL     1      48.028   7.820  18.807  0.00  0.00    +0.000 A 
ATOM     28  O   UNL     1      48.239   8.779  18.073  0.00  0.00    +0.000 OA
ATOM     29  C   UNL     1      48.389   6.449  18.500  0.00  0.00    +0.000 A 
ATOM     30  H   UNL     1      47.209   8.951  20.279  0.00  0.00    +0.000 HD
ENDBRANCH  17  20
ENDBRANCH   1  16
BRANCH   1  31
ATOM     31  C   UNL     1      47.941   9.107  14.064  0.00  0.00    +0.000 C 
BRANCH  31  33
ATOM     32  C   UNL     1      50.035   9.153  12.983  0.00  0.00    +0.000 C 
ATOM     33  O   UNL     1      49.202   9.777  13.952  0.00  0.00    +0.000 OA
ENDBRANCH  31  33
ENDBRANCH   1  31
TORSDOF 7
ENDMDL
MODEL 6
REMARK VINA RESULT:    -7.618      3.885      6.065
REMARK INTER + INTRA:         -10.974
REMARK INTER:                  -9.996
REMARK INTRA:                  -0.979
REMARK UNBOUND:                -0.238
REMARK  Name = 
REMARK  8 active torsions:
REMARK  status: ('A' for Active; 'I' for Inactive)
REMARK    1  A    between atoms: C_1  and  O_2
REMARK    2  A    between atoms: O_2  and  C_3
REMARK    3  A    between atoms: C_3  and  C_4
REMARK    4  A    between atoms: C_4  and  N_5
REMARK    5  A    between atoms: C_4  and  C_18
REMARK    6  A    between atoms: C_6  and  C_8
REMARK    7  A    between atoms: C_21  and  O_22
REMARK    8  A    between atoms: O_22  and  C_23
REMARK                            x       y       z     vdW  Elec       q    Type
REMARK                         _______ _______ _______ _____ _____    ______ ____
ROOT
ATOM      1  C   UNL     1      46.216   5.019  13.994  0.00  0.00    +0.000 C 
ENDROOT
BRANCH   1   2
ATOM      2  C   UNL     1      46.056   6.361  13.294  0.00  0.00    +0.000 A 
ATOM      3  C   UNL     1      44.939   6.600  12.489  0.00  0.00    +0.000 A 
ATOM      4  C   UNL     1      44.760   7.844  11.883  0.00  0.00    +0.000 A 
ATOM      5  C   UNL     1      45.663   8.885  12.121  0.00  0.00    +0.000 A 
ATOM      6  C   UNL     1      46.803   8.645  12.877  0.00  0.00    +0.000 A 
ATOM      7  C   UNL     1      47.004   7.390  13.451  0.00  0.00    +0.000 A 
BRANCH   5   8
ATOM      8  O   UNL     1      45.523  10.149  11.598  0.00  0.00    +0.000 OA
BRANCH   8   9
ATOM      9  C   UNL     1      44.273  10.516  11.110  0.00  0.00    +0.000 A 
ATOM     10  C   UNL     1      44.121  10.493   9.731  0.00  0.00    +0.000 A 
ATOM     11  C   UNL     1      42.872  10.802   9.201  0.00  0.00    +0.000 A 
ATOM     12  C   UNL     1      41.828  11.122  10.063  0.00  0.00    +0.000 A 
ATOM     13  C   UNL     1      42.094  11.146  11.421  0.00  0.00    +0.000 A 
ATOM     14 CL   UNL     1      40.858  11.495  12.557  0.00  0.00    +0.000 Cl
ATOM     15  N   UNL     1      43.291  10.872  11.964  0.00  0.00    +0.000 NA
ENDBRANCH   8   9
ENDBRANCH   5   8
ENDBRANCH   1   2
BRANCH   1  16
ATOM     16  N   UNL     1      47.326   5.087  14.934  0.00  0.00    +0.000 N 
ATOM     17  C   UNL     1      47.374   4.417  16.125  0.00  0.00    +0.000 C 
ATOM     18  O   UNL     1      46.533   3.594  16.468  0.00  0.00    +0.000 OA
ATOM     19  H   UNL     1      47.977   5.843  14.774  0.00  0.00    +0.000 HD
BRANCH  17  20
ATOM     20  C   UNL     1      48.557   4.707  16.953  0.00  0.00    +0.000 A 
ATOM     21  C   UNL     1      48.696   5.948  17.561  0.00  0.00    +0.000 A 
ATOM     22  S   UNL     1      50.109   6.088  18.508  0.00  0.00    +0.000 S 
ATOM     23  C   UNL     1      50.616   4.518  18.090  0.00  0.00    +0.000 A 
ATOM     24  N   UNL     1      51.795   4.013  18.548  0.00  0.00    +0.000 NA
ATOM     25  C   UNL     1      52.079   2.833  18.107  0.00  0.00    +0.000 A 
ATOM     26  N   UNL     1      51.285   2.107  17.259  0.00  0.00    +0.000 N 
ATOM     27  C   UNL     1      50.040   2.530  16.867  0.00  0.00    +0.000 A 
ATOM     28  O   UNL     1      49.284   1.767  16.276  0.00  0.00    +0.000 OA
ATOM     29  C   UNL     1      49.702   3.882  17.270  0.00  0.00    +0.000 A 
ATOM     30  H   UNL     1      51.541   1.170  16.985  0.00  0.00    +0.000 HD
ENDBRANCH  17  20
ENDBRANCH   1  16
BRANCH   1  31
ATOM     31  C   UNL     1      46.455   3.904  12.951  0.00  0.00    +0.000 C 
BRANCH  31  33
ATOM     32  C   UNL     1      44.640   3.160  11.645  0.00  0.00    +0.000 C 
ATOM     33  O   UNL     1      45.328   3.021  12.881  0.00  0.00    +0.000 OA
ENDBRANCH  31  33
ENDBRANCH   1  31
TORSDOF 7
ENDMDL
MODEL 7
REMARK VINA RESULT:    -7.576      2.688      5.397
REMARK INTER + INTRA:         -10.914
REMARK INTER:                  -9.702
REMARK INTRA:                  -1.212
REMARK UNBOUND:                -0.238
REMARK  Name = 
REMARK  8 active torsions:
REMARK  status: ('A' for Active; 'I' for Inactive)
REMARK    1  A    between atoms: C_1  and  O_2
REMARK    2  A    between atoms: O_2  and  C_3
REMARK    3  A    between atoms: C_3  and  C_4
REMARK    4  A    between atoms: C_4  and  N_5
REMARK    5  A    between atoms: C_4  and  C_18
REMARK    6  A    between atoms: C_6  and  C_8
REMARK    7  A    between atoms: C_21  and  O_22
REMARK    8  A    between atoms: O_22  and  C_23
REMARK                            x       y       z     vdW  Elec       q    Type
REMARK                         _______ _______ _______ _____ _____    ______ ____
ROOT
ATOM      1  C   UNL     1      46.939   6.452  13.845  0.00  0.00    +0.000 C 
ENDROOT
BRANCH   1   2
ATOM      2  C   UNL     1      46.205   5.623  12.801  0.00  0.00    +0.000 A 
ATOM      3  C   UNL     1      45.799   6.213  11.601  0.00  0.00    +0.000 A 
ATOM      4  C   UNL     1      45.168   5.450  10.617  0.00  0.00    +0.000 A 
ATOM      5  C   UNL     1      44.988   4.074  10.795  0.00  0.00    +0.000 A 
ATOM      6  C   UNL     1      45.342   3.486  12.002  0.00  0.00    +0.000 A 
ATOM      7  C   UNL     1      45.936   4.256  13.002  0.00  0.00    +0.000 A 
BRANCH   5   8
ATOM      8  O   UNL     1      44.421   3.252   9.850  0.00  0.00    +0.000 OA
BRANCH   8   9
ATOM      9  C   UNL     1      45.233   2.789   8.820  0.00  0.00    +0.000 A 
ATOM     10  C   UNL     1      45.674   3.740   7.909  0.00  0.00    +0.000 A 
ATOM     11  C   UNL     1      46.531   3.330   6.892  0.00  0.00    +0.000 A 
ATOM     12  C   UNL     1      46.913   1.994   6.822  0.00  0.00    +0.000 A 
ATOM     13  C   UNL     1      46.392   1.122   7.761  0.00  0.00    +0.000 A 
ATOM     14 CL   UNL     1      46.838  -0.534   7.771  0.00  0.00    +0.000 Cl
ATOM     15  N   UNL     1      45.549   1.479   8.743  0.00  0.00    +0.000 NA
ENDBRANCH   8   9
ENDBRANCH   5   8
ENDBRANCH   1   2
BRANCH   1  16
ATOM     16  N   UNL     1      47.433   7.679  13.237  0.00  0.00    +0.000 N 
ATOM     17  C   UNL     1      47.748   8.814  13.931  0.00  0.00    +0.000 C 
ATOM     18  O   UNL     1      47.757   8.874  15.155  0.00  0.00    +0.000 OA
ATOM     19  H   UNL     1      47.319   7.736  12.235  0.00  0.00    +0.000 HD
BRANCH  17  20
ATOM     20  C   UNL     1      48.143   9.961  13.096  0.00  0.00    +0.000 A 
ATOM     21  C   UNL     1      49.432  10.472  13.175  0.00  0.00    +0.000 A 
ATOM     22  S   UNL     1      49.716  11.775  12.110  0.00  0.00    +0.000 S 
ATOM     23  C   UNL     1      48.109  11.744  11.549  0.00  0.00    +0.000 A 
ATOM     24  N   UNL     1      47.667  12.643  10.626  0.00  0.00    +0.000 NA
ATOM     25  C   UNL     1      46.414  12.537  10.334  0.00  0.00    +0.000 A 
ATOM     26  N   UNL     1      45.564  11.606  10.873  0.00  0.00    +0.000 N 
ATOM     27  C   UNL     1      45.994  10.613  11.716  0.00  0.00    +0.000 A 
ATOM     28  O   UNL     1      45.248   9.686  12.013  0.00  0.00    +0.000 OA
ATOM     29  C   UNL     1      47.376  10.729  12.139  0.00  0.00    +0.000 A 
ATOM     30  H   UNL     1      44.604  11.546  10.570  0.00  0.00    +0.000 HD
ENDBRANCH  17  20
ENDBRANCH   1  16
BRANCH   1  31
ATOM     31  C   UNL     1      48.106   5.635  14.444  0.00  0.00    +0.000 C 
BRANCH  31  33
ATOM     32  C   UNL     1      48.896   5.898  16.649  0.00  0.00    +0.000 C 
ATOM     33  O   UNL     1      47.872   5.350  15.828  0.00  0.00    +0.000 OA
ENDBRANCH  31  33
ENDBRANCH   1  31
TORSDOF 7
ENDMDL
MODEL 8
REMARK VINA RESULT:    -7.555      2.334      3.546
REMARK INTER + INTRA:         -10.884
REMARK INTER:                  -9.169
REMARK INTRA:                  -1.716
REMARK UNBOUND:                -0.238
REMARK  Name = 
REMARK  8 active torsions:
REMARK  status: ('A' for Active; 'I' for Inactive)
REMARK    1  A    between atoms: C_1  and  O_2
REMARK    2  A    between atoms: O_2  and  C_3
REMARK    3  A    between atoms: C_3  and  C_4
REMARK    4  A    between atoms: C_4  and  N_5
REMARK    5  A    between atoms: C_4  and  C_18
REMARK    6  A    between atoms: C_6  and  C_8
REMARK    7  A    between atoms: C_21  and  O_22
REMARK    8  A    between atoms: O_22  and  C_23
REMARK                            x       y       z     vdW  Elec       q    Type
REMARK                         _______ _______ _______ _____ _____    ______ ____
ROOT
ATOM      1  C   UNL     1      49.014   8.592  14.316  0.00  0.00    +0.000 C 
ENDROOT
BRANCH   1   2
ATOM      2  C   UNL     1      47.899   8.161  13.375  0.00  0.00    +0.000 A 
ATOM      3  C   UNL     1      48.132   7.159  12.429  0.00  0.00    +0.000 A 
ATOM      4  C   UNL     1      47.102   6.723  11.595  0.00  0.00    +0.000 A 
ATOM      5  C   UNL     1      45.809   7.241  11.735  0.00  0.00    +0.000 A 
ATOM      6  C   UNL     1      45.577   8.272  12.635  0.00  0.00    +0.000 A 
ATOM      7  C   UNL     1      46.615   8.736  13.442  0.00  0.00    +0.000 A 
BRANCH   5   8
ATOM      8  O   UNL     1      44.736   6.823  10.983  0.00  0.00    +0.000 OA
BRANCH   8   9
ATOM      9  C   UNL     1      44.354   5.489  11.080  0.00  0.00    +0.000 A 
ATOM     10  C   UNL     1      43.682   5.125  12.238  0.00  0.00    +0.000 A 
ATOM     11  C   UNL     1      43.236   3.812  12.355  0.00  0.00    +0.000 A 
ATOM     12  C   UNL     1      43.476   2.917  11.317  0.00  0.00    +0.000 A 
ATOM     13  C   UNL     1      44.181   3.375  10.218  0.00  0.00    +0.000 A 
ATOM     14 CL   UNL     1      44.490   2.351   8.878  0.00  0.00    +0.000 Cl
ATOM     15  N   UNL     1      44.643   4.628  10.081  0.00  0.00    +0.000 NA
ENDBRANCH   8   9
ENDBRANCH   5   8
ENDBRANCH   1   2
BRANCH   1  16
ATOM     16  N   UNL     1      49.070   7.687  15.455  0.00  0.00    +0.000 N 
ATOM     17  C   UNL     1      50.184   6.994  15.840  0.00  0.00    +0.000 C 
ATOM     18  O   UNL     1      51.287   7.157  15.329  0.00  0.00    +0.000 OA
ATOM     19  H   UNL     1      48.172   7.411  15.827  0.00  0.00    +0.000 HD
BRANCH  17  20
ATOM     20  C   UNL     1      49.981   6.070  16.968  0.00  0.00    +0.000 A 
ATOM     21  C   UNL     1      50.784   6.159  18.097  0.00  0.00    +0.000 A 
ATOM     22  S   UNL     1      50.379   5.031  19.313  0.00  0.00    +0.000 S 
ATOM     23  C   UNL     1      49.156   4.344  18.349  0.00  0.00    +0.000 A 
ATOM     24  N   UNL     1      48.423   3.284  18.792  0.00  0.00    +0.000 NA
ATOM     25  C   UNL     1      47.569   2.831  17.937  0.00  0.00    +0.000 A 
ATOM     26  N   UNL     1      47.372   3.348  16.683  0.00  0.00    +0.000 N 
ATOM     27  C   UNL     1      48.006   4.482  16.243  0.00  0.00    +0.000 A 
ATOM     28  O   UNL     1      47.655   5.024  15.200  0.00  0.00    +0.000 OA
ATOM     29  C   UNL     1      49.033   4.990  17.132  0.00  0.00    +0.000 A 
ATOM     30  H   UNL     1      46.657   2.976  16.076  0.00  0.00    +0.000 HD
ENDBRANCH  17  20
ENDBRANCH   1  16
BRANCH   1  31
ATOM     31  C   UNL     1      48.777  10.045  14.787  0.00  0.00    +0.000 C 
BRANCH  31  33
ATOM     32  C   UNL     1      50.982  10.520  14.104  0.00  0.00    +0.000 C 
ATOM     33  O   UNL     1      50.015  10.677  15.134  0.00  0.00    +0.000 OA
ENDBRANCH  31  33
ENDBRANCH   1  31
TORSDOF 7
ENDMDL
MODEL 9
REMARK VINA RESULT:    -7.539      3.948      7.743
REMARK INTER + INTRA:         -10.863
REMARK INTER:                  -9.667
REMARK INTRA:                  -1.196
REMARK UNBOUND:                -0.238
REMARK  Name = 
REMARK  8 active torsions:
REMARK  status: ('A' for Active; 'I' for Inactive)
REMARK    1  A    between atoms: C_1  and  O_2
REMARK    2  A    between atoms: O_2  and  C_3
REMARK    3  A    between atoms: C_3  and  C_4
REMARK    4  A    between atoms: C_4  and  N_5
REMARK    5  A    between atoms: C_4  and  C_18
REMARK    6  A    between atoms: C_6  and  C_8
REMARK    7  A    between atoms: C_21  and  O_22
REMARK    8  A    between atoms: O_22  and  C_23
REMARK                            x       y       z     vdW  Elec       q    Type
REMARK                         _______ _______ _______ _____ _____    ______ ____
ROOT
ATOM      1  C   UNL     1      48.465   7.520  12.809  0.00  0.00    +0.000 C 
ENDROOT
BRANCH   1   2
ATOM      2  C   UNL     1      48.740   6.918  14.179  0.00  0.00    +0.000 A 
ATOM      3  C   UNL     1      47.870   5.961  14.709  0.00  0.00    +0.000 A 
ATOM      4  C   UNL     1      48.141   5.368  15.943  0.00  0.00    +0.000 A 
ATOM      5  C   UNL     1      49.315   5.679  16.637  0.00  0.00    +0.000 A 
ATOM      6  C   UNL     1      50.162   6.664  16.146  0.00  0.00    +0.000 A 
ATOM      7  C   UNL     1      49.871   7.287  14.932  0.00  0.00    +0.000 A 
BRANCH   5   8
ATOM      8  O   UNL     1      49.671   5.098  17.831  0.00  0.00    +0.000 OA
BRANCH   8   9
ATOM      9  C   UNL     1      50.527   4.002  17.791  0.00  0.00    +0.000 A 
ATOM     10  C   UNL     1      49.964   2.797  17.394  0.00  0.00    +0.000 A 
ATOM     11  C   UNL     1      50.795   1.685  17.289  0.00  0.00    +0.000 A 
ATOM     12  C   UNL     1      52.148   1.817  17.585  0.00  0.00    +0.000 A 
ATOM     13  C   UNL     1      52.602   3.056  18.001  0.00  0.00    +0.000 A 
ATOM     14 CL   UNL     1      54.260   3.318  18.351  0.00  0.00    +0.000 Cl
ATOM     15  N   UNL     1      51.825   4.144  18.131  0.00  0.00    +0.000 NA
ENDBRANCH   8   9
ENDBRANCH   5   8
ENDBRANCH   1   2
BRANCH   1  16
ATOM     16  N   UNL     1      47.659   6.597  12.023  0.00  0.00    +0.000 N 
ATOM     17  C   UNL     1      46.339   6.786  11.721  0.00  0.00    +0.000 C 
ATOM     18  O   UNL     1      45.728   7.815  11.987  0.00  0.00    +0.000 OA
ATOM     19  H   UNL     1      48.062   5.680  11.894  0.00  0.00    +0.000 HD
BRANCH  17  20
ATOM     20  C   UNL     1      45.705   5.677  10.989  0.00  0.00    +0.000 A 
ATOM     21  C   UNL     1      45.802   5.608   9.605  0.00  0.00    +0.000 A 
ATOM     22  S   UNL     1      45.038   4.236   8.936  0.00  0.00    +0.000 S 
ATOM     23  C   UNL     1      44.498   3.718  10.465  0.00  0.00    +0.000 A 
ATOM     24  N   UNL     1      43.738   2.595  10.599  0.00  0.00    +0.000 NA
ATOM     25  C   UNL     1      43.355   2.352  11.808  0.00  0.00    +0.000 A 
ATOM     26  N   UNL     1      43.671   3.123  12.896  0.00  0.00    +0.000 N 
ATOM     27  C   UNL     1      44.526   4.193  12.821  0.00  0.00    +0.000 A 
ATOM     28  O   UNL     1      44.940   4.729  13.843  0.00  0.00    +0.000 OA
ATOM     29  C   UNL     1      44.927   4.559  11.476  0.00  0.00    +0.000 A 
ATOM     30  H   UNL     1      43.377   2.855  13.823  0.00  0.00    +0.000 HD
ENDBRANCH  17  20
ENDBRANCH   1  16
BRANCH   1  31
ATOM     31  C   UNL     1      49.797   7.828  12.090  0.00  0.00    +0.000 C 
BRANCH  31  33
ATOM     32  C   UNL     1      49.425  10.142  12.343  0.00  0.00    +0.000 C 
ATOM     33  O   UNL     1      49.738   9.099  11.430  0.00  0.00    +0.000 OA
ENDBRANCH  31  33
ENDBRANCH   1  31
TORSDOF 7
ENDMDL
