MODEL 1
REMARK VINA RESULT:    -7.815      0.000      0.000
REMARK INTER + INTRA:         -12.152
REMARK INTER:                 -10.784
REMARK INTRA:                  -1.368
REMARK UNBOUND:                -1.368
REMARK  Name = 
REMARK  8 active torsions:
REMARK  status: ('A' for Active; 'I' for Inactive)
REMARK    1  A    between atoms: C_1  and  N_2
REMARK    2  A    between atoms: N_2  and  C_3
REMARK    3  A    between atoms: C_3  and  C_4
REMARK    4  A    between atoms: C_7  and  C_8
REMARK    5  A    between atoms: C_8  and  N_9
REMARK    6  A    between atoms: N_9  and  C_10
REMARK    7  A    between atoms: C_15  and  O_16
REMARK    8  A    between atoms: C_19  and  C_21
REMARK                            x       y       z     vdW  Elec       q    Type
REMARK                         _______ _______ _______ _____ _____    ______ ____
ROOT
ATOM      1  C   UNL     1      47.581   5.753  13.941  0.00  0.00    +0.000 A 
ATOM      2  C   UNL     1      48.438   6.532  14.732  0.00  0.00    +0.000 A 
ATOM      3  C   UNL     1      48.677   6.180  16.057  0.00  0.00    +0.000 A 
ATOM      4  C   UNL     1      48.060   5.050  16.610  0.00  0.00    +0.000 A 
ATOM      5  C   UNL     1      47.198   4.282  15.819  0.00  0.00    +0.000 A 
ATOM      6  C   UNL     1      46.961   4.627  14.492  0.00  0.00    +0.000 A 
ENDROOT
BRANCH   1   7
ATOM      7  C   UNL     1      47.327   6.128  12.509  0.00  0.00    +0.000 C 
BRANCH   7   9
ATOM      8  C   UNL     1      46.592   8.544  12.283  0.00  0.00    +0.000 C 
ATOM      9  N   UNL     1      46.281   7.119  12.238  0.00  0.00    +0.000 N 
ATOM     10  C   UNL     1      45.022   6.777  11.715  0.00  0.00    +0.000 C 
ATOM     11  O   UNL     1      44.231   7.643  11.350  0.00  0.00    +0.000 OA
BRANCH  10  12
ATOM     12  C   UNL     1      44.633   5.361  11.633  0.00  0.00    +0.000 A 
ATOM     13  C   UNL     1      43.900   4.687  12.598  0.00  0.00    +0.000 A 
ATOM     14  S   UNL     1      43.570   3.062  12.199  0.00  0.00    +0.000 S 
ATOM     15  C   UNL     1      44.244   3.254  10.651  0.00  0.00    +0.000 A 
ATOM     16  N   UNL     1      44.179   2.254   9.733  0.00  0.00    +0.000 NA
ATOM     17  C   UNL     1      44.656   2.573   8.575  0.00  0.00    +0.000 A 
ATOM     18  N   UNL     1      45.232   3.780   8.270  0.00  0.00    +0.000 N 
ATOM     19  C   UNL     1      45.461   4.761   9.211  0.00  0.00    +0.000 A 
ATOM     20  O   UNL     1      46.206   5.704   8.973  0.00  0.00    +0.000 OA
ATOM     21  C   UNL     1      44.813   4.503  10.486  0.00  0.00    +0.000 A 
ATOM     22  H   UNL     1      45.650   3.936   7.365  0.00  0.00    +0.000 HD
ENDBRANCH  10  12
ENDBRANCH   7   9
ENDBRANCH   1   7
BRANCH   4  23
ATOM     23  C   UNL     1      48.372   4.623  18.018  0.00  0.00    +0.000 C 
BRANCH  23  24
ATOM     24  N   UNL     1      47.347   5.057  18.961  0.00  0.00    +0.000 NA
ATOM     25  H   UNL     1      47.043   4.265  19.534  0.00  0.00    +0.000 HD
BRANCH  24  26
ATOM     26  C   UNL     1      47.819   6.134  19.847  0.00  0.00    +0.000 C 
ATOM     27  C   UNL     1      47.444   7.518  19.303  0.00  0.00    +0.000 C 
ATOM     28  C   UNL     1      47.832   8.634  20.261  0.00  0.00    +0.000 C 
ATOM     29  C   UNL     1      47.233   8.417  21.645  0.00  0.00    +0.000 C 
ATOM     30  C   UNL     1      47.618   7.054  22.209  0.00  0.00    +0.000 C 
ATOM     31  C   UNL     1      47.219   5.921  21.262  0.00  0.00    +0.000 C 
BRANCH  31  32
ATOM     32  O   UNL     1      47.667   4.676  21.811  0.00  0.00    +0.000 OA
ATOM     33  H   UNL     1      48.510   4.446  21.385  0.00  0.00    +0.000 HD
ENDBRANCH  31  32
ENDBRANCH  24  26
ENDBRANCH  23  24
ENDBRANCH   4  23
TORSDOF 7
ENDMDL
MODEL 2
REMARK VINA RESULT:    -7.564      2.310      3.517
REMARK INTER + INTRA:         -11.805
REMARK INTER:                 -10.524
REMARK INTRA:                  -1.281
REMARK UNBOUND:                -1.368
REMARK  Name = 
REMARK  8 active torsions:
REMARK  status: ('A' for Active; 'I' for Inactive)
REMARK    1  A    between atoms: C_1  and  N_2
REMARK    2  A    between atoms: N_2  and  C_3
REMARK    3  A    between atoms: C_3  and  C_4
REMARK    4  A    between atoms: C_7  and  C_8
REMARK    5  A    between atoms: C_8  and  N_9
REMARK    6  A    between atoms: N_9  and  C_10
REMARK    7  A    between atoms: C_15  and  O_16
REMARK    8  A    between atoms: C_19  and  C_21
REMARK                            x       y       z     vdW  Elec       q    Type
REMARK                         _______ _______ _______ _____ _____    ______ ____
ROOT
ATOM      1  C   UNL     1      47.678   6.116  13.639  0.00  0.00    +0.000 A 
ATOM      2  C   UNL     1      48.631   6.973  14.209  0.00  0.00    +0.000 A 
ATOM      3  C   UNL     1      49.066   6.764  15.515  0.00  0.00    +0.000 A 
ATOM      4  C   UNL     1      48.549   5.702  16.269  0.00  0.00    +0.000 A 
ATOM      5  C   UNL     1      47.591   4.857  15.699  0.00  0.00    +0.000 A 
ATOM      6  C   UNL     1      47.159   5.058  14.391  0.00  0.00    +0.000 A 
ENDROOT
BRANCH   1   7
ATOM      7  C   UNL     1      47.214   6.337  12.228  0.00  0.00    +0.000 C 
BRANCH   7   9
ATOM      8  C   UNL     1      46.304   8.696  12.022  0.00  0.00    +0.000 C 
ATOM      9  N   UNL     1      46.088   7.252  12.014  0.00  0.00    +0.000 N 
ATOM     10  C   UNL     1      44.824   6.819  11.580  0.00  0.00    +0.000 C 
ATOM     11  O   UNL     1      43.954   7.625  11.258  0.00  0.00    +0.000 OA
BRANCH  10  12
ATOM     12  C   UNL     1      44.527   5.379  11.540  0.00  0.00    +0.000 A 
ATOM     13  C   UNL     1      43.809   4.695  12.510  0.00  0.00    +0.000 A 
ATOM     14  S   UNL     1      43.592   3.039  12.164  0.00  0.00    +0.000 S 
ATOM     15  C   UNL     1      44.298   3.218  10.628  0.00  0.00    +0.000 A 
ATOM     16  N   UNL     1      44.322   2.184   9.746  0.00  0.00    +0.000 NA
ATOM     17  C   UNL     1      44.812   2.491   8.591  0.00  0.00    +0.000 A 
ATOM     18  N   UNL     1      45.321   3.721   8.257  0.00  0.00    +0.000 N 
ATOM     19  C   UNL     1      45.461   4.747   9.166  0.00  0.00    +0.000 A 
ATOM     20  O   UNL     1      46.152   5.726   8.913  0.00  0.00    +0.000 OA
ATOM     21  C   UNL     1      44.793   4.494  10.432  0.00  0.00    +0.000 A 
ATOM     22  H   UNL     1      45.755   3.870   7.358  0.00  0.00    +0.000 HD
ENDBRANCH  10  12
ENDBRANCH   7   9
ENDBRANCH   1   7
BRANCH   4  23
ATOM     23  C   UNL     1      49.069   5.426  17.654  0.00  0.00    +0.000 C 
BRANCH  23  24
ATOM     24  N   UNL     1      49.215   3.997  17.908  0.00  0.00    +0.000 NA
ATOM     25  H   UNL     1      48.528   3.474  17.359  0.00  0.00    +0.000 HD
BRANCH  24  26
ATOM     26  C   UNL     1      50.563   3.504  17.581  0.00  0.00    +0.000 C 
ATOM     27  C   UNL     1      51.567   3.823  18.698  0.00  0.00    +0.000 C 
ATOM     28  C   UNL     1      52.938   3.225  18.421  0.00  0.00    +0.000 C 
ATOM     29  C   UNL     1      52.857   1.724  18.181  0.00  0.00    +0.000 C 
ATOM     30  C   UNL     1      51.881   1.394  17.056  0.00  0.00    +0.000 C 
ATOM     31  C   UNL     1      50.493   1.975  17.329  0.00  0.00    +0.000 C 
BRANCH  31  32
ATOM     32  O   UNL     1      49.643   1.693  16.211  0.00  0.00    +0.000 OA
ATOM     33  H   UNL     1      48.761   2.055  16.405  0.00  0.00    +0.000 HD
ENDBRANCH  31  32
ENDBRANCH  24  26
ENDBRANCH  23  24
ENDBRANCH   4  23
TORSDOF 7
ENDMDL
MODEL 3
REMARK VINA RESULT:    -7.535      2.960      9.242
REMARK INTER + INTRA:         -11.766
REMARK INTER:                 -10.486
REMARK INTRA:                  -1.279
REMARK UNBOUND:                -1.368
REMARK  Name = 
REMARK  8 active torsions:
REMARK  status: ('A' for Active; 'I' for Inactive)
REMARK    1  A    between atoms: C_1  and  N_2
REMARK    2  A    between atoms: N_2  and  C_3
REMARK    3  A    between atoms: C_3  and  C_4
REMARK    4  A    between atoms: C_7  and  C_8
REMARK    5  A    between atoms: C_8  and  N_9
REMARK    6  A    between atoms: N_9  and  C_10
REMARK    7  A    between atoms: C_15  and  O_16
REMARK    8  A    between atoms: C_19  and  C_21
REMARK                            x       y       z     vdW  Elec       q    Type
REMARK                         _______ _______ _______ _____ _____    ______ ____
ROOT
ATOM      1  C   UNL     1      46.482   6.426  13.209  0.00  0.00    +0.000 A 
ATOM      2  C   UNL     1      46.628   5.081  13.582  0.00  0.00    +0.000 A 
ATOM      3  C   UNL     1      45.832   4.103  12.994  0.00  0.00    +0.000 A 
ATOM      4  C   UNL     1      44.876   4.455  12.032  0.00  0.00    +0.000 A 
ATOM      5  C   UNL     1      44.728   5.798  11.671  0.00  0.00    +0.000 A 
ATOM      6  C   UNL     1      45.526   6.779  12.251  0.00  0.00    +0.000 A 
ENDROOT
BRANCH   1   7
ATOM      7  C   UNL     1      47.345   7.481  13.838  0.00  0.00    +0.000 C 
BRANCH   7   9
ATOM      8  C   UNL     1      49.420   6.998  12.463  0.00  0.00    +0.000 C 
ATOM      9  N   UNL     1      48.800   7.319  13.744  0.00  0.00    +0.000 N 
ATOM     10  C   UNL     1      49.676   7.671  14.785  0.00  0.00    +0.000 C 
ATOM     11  O   UNL     1      50.893   7.673  14.615  0.00  0.00    +0.000 OA
BRANCH  10  12
ATOM     12  C   UNL     1      49.130   8.010  16.108  0.00  0.00    +0.000 A 
ATOM     13  C   UNL     1      48.886   9.301  16.552  0.00  0.00    +0.000 A 
ATOM     14  S   UNL     1      48.209   9.372  18.117  0.00  0.00    +0.000 S 
ATOM     15  C   UNL     1      48.060   7.680  18.181  0.00  0.00    +0.000 A 
ATOM     16  N   UNL     1      47.434   7.075  19.225  0.00  0.00    +0.000 NA
ATOM     17  C   UNL     1      47.320   5.794  19.096  0.00  0.00    +0.000 A 
ATOM     18  N   UNL     1      47.815   5.064  18.046  0.00  0.00    +0.000 N 
ATOM     19  C   UNL     1      48.590   5.616  17.049  0.00  0.00    +0.000 A 
ATOM     20  O   UNL     1      49.231   4.908  16.282  0.00  0.00    +0.000 OA
ATOM     21  C   UNL     1      48.622   7.068  17.076  0.00  0.00    +0.000 A 
ATOM     22  H   UNL     1      47.753   4.057  18.045  0.00  0.00    +0.000 HD
ENDBRANCH  10  12
ENDBRANCH   7   9
ENDBRANCH   1   7
BRANCH   4  23
ATOM     23  C   UNL     1      44.065   3.394  11.339  0.00  0.00    +0.000 C 
BRANCH  23  24
ATOM     24  N   UNL     1      44.047   3.578   9.892  0.00  0.00    +0.000 NA
ATOM     25  H   UNL     1      43.913   4.567   9.669  0.00  0.00    +0.000 HD
BRANCH  24  26
ATOM     26  C   UNL     1      45.285   3.107   9.251  0.00  0.00    +0.000 C 
ATOM     27  C   UNL     1      45.168   1.644   8.802  0.00  0.00    +0.000 C 
ATOM     28  C   UNL     1      46.402   1.179   8.043  0.00  0.00    +0.000 C 
ATOM     29  C   UNL     1      46.705   2.085   6.857  0.00  0.00    +0.000 C 
ATOM     30  C   UNL     1      46.849   3.539   7.293  0.00  0.00    +0.000 C 
ATOM     31  C   UNL     1      45.608   4.026   8.043  0.00  0.00    +0.000 C 
BRANCH  31  32
ATOM     32  O   UNL     1      45.830   5.370   8.485  0.00  0.00    +0.000 OA
ATOM     33  H   UNL     1      45.774   5.954   7.710  0.00  0.00    +0.000 HD
ENDBRANCH  31  32
ENDBRANCH  24  26
ENDBRANCH  23  24
ENDBRANCH   4  23
TORSDOF 7
ENDMDL
MODEL 4
REMARK VINA RESULT:    -7.417      2.968      8.801
REMARK INTER + INTRA:         -11.603
REMARK INTER:                 -10.416
REMARK INTRA:                  -1.187
REMARK UNBOUND:                -1.368
REMARK  Name = 
REMARK  8 active torsions:
REMARK  status: ('A' for Active; 'I' for Inactive)
REMARK    1  A    between atoms: C_1  and  N_2
REMARK    2  A    between atoms: N_2  and  C_3
REMARK    3  A    between atoms: C_3  and  C_4
REMARK    4  A    between atoms: C_7  and  C_8
REMARK    5  A    between atoms: C_8  and  N_9
REMARK    6  A    between atoms: N_9  and  C_10
REMARK    7  A    between atoms: C_15  and  O_16
REMARK    8  A    between atoms: C_19  and  C_21
REMARK                            x       y       z     vdW  Elec       q    Type
REMARK                         _______ _______ _______ _____ _____    ______ ____
ROOT
ATOM      1  C   UNL     1      48.052   6.706  14.079  0.00  0.00    +0.000 A 
ATOM      2  C   UNL     1      47.350   5.500  13.940  0.00  0.00    +0.000 A 
ATOM      3  C   UNL     1      46.319   5.394  13.011  0.00  0.00    +0.000 A 
ATOM      4  C   UNL     1      45.972   6.494  12.214  0.00  0.00    +0.000 A 
ATOM      5  C   UNL     1      46.669   7.698  12.364  0.00  0.00    +0.000 A 
ATOM      6  C   UNL     1      47.705   7.805  13.287  0.00  0.00    +0.000 A 
ENDROOT
BRANCH   1   7
ATOM      7  C   UNL     1      49.169   6.818  15.076  0.00  0.00    +0.000 C 
BRANCH   7   9
ATOM      8  C   UNL     1      48.846   8.960  16.395  0.00  0.00    +0.000 C 
ATOM      9  N   UNL     1      48.888   7.502  16.343  0.00  0.00    +0.000 N 
ATOM     10  C   UNL     1      48.435   6.829  17.490  0.00  0.00    +0.000 C 
ATOM     11  O   UNL     1      48.056   7.449  18.481  0.00  0.00    +0.000 OA
BRANCH  10  12
ATOM     12  C   UNL     1      48.443   5.358  17.516  0.00  0.00    +0.000 A 
ATOM     13  C   UNL     1      47.329   4.560  17.304  0.00  0.00    +0.000 A 
ATOM     14  S   UNL     1      47.663   2.888  17.356  0.00  0.00    +0.000 S 
ATOM     15  C   UNL     1      49.333   3.176  17.491  0.00  0.00    +0.000 A 
ATOM     16  N   UNL     1      50.223   2.149  17.463  0.00  0.00    +0.000 NA
ATOM     17  C   UNL     1      51.458   2.526  17.489  0.00  0.00    +0.000 A 
ATOM     18  N   UNL     1      51.881   3.827  17.587  0.00  0.00    +0.000 N 
ATOM     19  C   UNL     1      51.015   4.883  17.777  0.00  0.00    +0.000 A 
ATOM     20  O   UNL     1      51.427   5.983  18.124  0.00  0.00    +0.000 OA
ATOM     21  C   UNL     1      49.617   4.525  17.609  0.00  0.00    +0.000 A 
ATOM     22  H   UNL     1      52.861   4.044  17.676  0.00  0.00    +0.000 HD
ENDBRANCH  10  12
ENDBRANCH   7   9
ENDBRANCH   1   7
BRANCH   4  23
ATOM     23  C   UNL     1      44.909   6.364  11.157  0.00  0.00    +0.000 C 
BRANCH  23  24
ATOM     24  N   UNL     1      44.196   5.095  11.253  0.00  0.00    +0.000 NA
ATOM     25  H   UNL     1      43.208   5.266  11.459  0.00  0.00    +0.000 HD
BRANCH  24  26
ATOM     26  C   UNL     1      44.296   4.301  10.017  0.00  0.00    +0.000 C 
ATOM     27  C   UNL     1      45.457   4.776   9.133  0.00  0.00    +0.000 C 
ATOM     28  C   UNL     1      45.638   3.896   7.906  0.00  0.00    +0.000 C 
ATOM     29  C   UNL     1      45.814   2.432   8.287  0.00  0.00    +0.000 C 
ATOM     30  C   UNL     1      44.653   1.939   9.146  0.00  0.00    +0.000 C 
ATOM     31  C   UNL     1      44.471   2.806  10.393  0.00  0.00    +0.000 C 
BRANCH  31  32
ATOM     32  O   UNL     1      43.328   2.338  11.120  0.00  0.00    +0.000 OA
ATOM     33  H   UNL     1      43.641   1.738  11.817  0.00  0.00    +0.000 HD
ENDBRANCH  31  32
ENDBRANCH  24  26
ENDBRANCH  23  24
ENDBRANCH   4  23
TORSDOF 7
ENDMDL
MODEL 5
REMARK VINA RESULT:    -7.209      3.116      9.397
REMARK INTER + INTRA:         -11.316
REMARK INTER:                  -9.970
REMARK INTRA:                  -1.347
REMARK UNBOUND:                -1.368
REMARK  Name = 
REMARK  8 active torsions:
REMARK  status: ('A' for Active; 'I' for Inactive)
REMARK    1  A    between atoms: C_1  and  N_2
REMARK    2  A    between atoms: N_2  and  C_3
REMARK    3  A    between atoms: C_3  and  C_4
REMARK    4  A    between atoms: C_7  and  C_8
REMARK    5  A    between atoms: C_8  and  N_9
REMARK    6  A    between atoms: N_9  and  C_10
REMARK    7  A    between atoms: C_15  and  O_16
REMARK    8  A    between atoms: C_19  and  C_21
REMARK                            x       y       z     vdW  Elec       q    Type
REMARK                         _______ _______ _______ _____ _____    ______ ____
ROOT
ATOM      1  C   UNL     1      46.407   6.686  12.882  0.00  0.00    +0.000 A 
ATOM      2  C   UNL     1      46.617   5.377  13.341  0.00  0.00    +0.000 A 
ATOM      3  C   UNL     1      45.849   4.330  12.841  0.00  0.00    +0.000 A 
ATOM      4  C   UNL     1      44.858   4.579  11.882  0.00  0.00    +0.000 A 
ATOM      5  C   UNL     1      44.646   5.887  11.435  0.00  0.00    +0.000 A 
ATOM      6  C   UNL     1      45.417   6.936  11.928  0.00  0.00    +0.000 A 
ENDROOT
BRANCH   1   7
ATOM      7  C   UNL     1      47.241   7.816  13.417  0.00  0.00    +0.000 C 
BRANCH   7   9
ATOM      8  C   UNL     1      49.274   7.996  11.912  0.00  0.00    +0.000 C 
ATOM      9  N   UNL     1      48.693   7.742  13.227  0.00  0.00    +0.000 N 
ATOM     10  C   UNL     1      49.600   7.651  14.296  0.00  0.00    +0.000 C 
ATOM     11  O   UNL     1      50.810   7.753  14.112  0.00  0.00    +0.000 OA
BRANCH  10  12
ATOM     12  C   UNL     1      49.094   7.398  15.654  0.00  0.00    +0.000 A 
ATOM     13  C   UNL     1      48.990   6.144  16.236  0.00  0.00    +0.000 A 
ATOM     14  S   UNL     1      48.407   6.177  17.839  0.00  0.00    +0.000 S 
ATOM     15  C   UNL     1      48.438   7.876  17.867  0.00  0.00    +0.000 A 
ATOM     16  N   UNL     1      48.162   8.560  19.009  0.00  0.00    +0.000 NA
ATOM     17  C   UNL     1      48.309   9.840  18.901  0.00  0.00    +0.000 A 
ATOM     18  N   UNL     1      48.658  10.496  17.748  0.00  0.00    +0.000 N 
ATOM     19  C   UNL     1      48.791   9.857  16.534  0.00  0.00    +0.000 A 
ATOM     20  O   UNL     1      48.840  10.492  15.488  0.00  0.00    +0.000 OA
ATOM     21  C   UNL     1      48.778   8.408  16.636  0.00  0.00    +0.000 A 
ATOM     22  H   UNL     1      48.683  11.503  17.718  0.00  0.00    +0.000 HD
ENDBRANCH  10  12
ENDBRANCH   7   9
ENDBRANCH   1   7
BRANCH   4  23
ATOM     23  C   UNL     1      44.074   3.442  11.283  0.00  0.00    +0.000 C 
BRANCH  23  24
ATOM     24  N   UNL     1      44.030   3.516   9.826  0.00  0.00    +0.000 NA
ATOM     25  H   UNL     1      43.852   4.480   9.533  0.00  0.00    +0.000 HD
BRANCH  24  26
ATOM     26  C   UNL     1      45.280   3.050   9.203  0.00  0.00    +0.000 C 
ATOM     27  C   UNL     1      45.178   1.584   8.762  0.00  0.00    +0.000 C 
ATOM     28  C   UNL     1      46.424   1.122   8.020  0.00  0.00    +0.000 C 
ATOM     29  C   UNL     1      46.734   2.023   6.832  0.00  0.00    +0.000 C 
ATOM     30  C   UNL     1      46.863   3.481   7.260  0.00  0.00    +0.000 C 
ATOM     31  C   UNL     1      45.610   3.963   7.993  0.00  0.00    +0.000 C 
BRANCH  31  32
ATOM     32  O   UNL     1      45.817   5.312   8.429  0.00  0.00    +0.000 OA
ATOM     33  H   UNL     1      45.313   5.899   7.841  0.00  0.00    +0.000 HD
ENDBRANCH  31  32
ENDBRANCH  24  26
ENDBRANCH  23  24
ENDBRANCH   4  23
TORSDOF 7
ENDMDL
MODEL 6
REMARK VINA RESULT:    -6.954      2.783      9.229
REMARK INTER + INTRA:         -10.965
REMARK INTER:                  -9.632
REMARK INTRA:                  -1.332
REMARK UNBOUND:                -1.368
REMARK  Name = 
REMARK  8 active torsions:
REMARK  status: ('A' for Active; 'I' for Inactive)
REMARK    1  A    between atoms: C_1  and  N_2
REMARK    2  A    between atoms: N_2  and  C_3
REMARK    3  A    between atoms: C_3  and  C_4
REMARK    4  A    between atoms: C_7  and  C_8
REMARK    5  A    between atoms: C_8  and  N_9
REMARK    6  A    between atoms: N_9  and  C_10
REMARK    7  A    between atoms: C_15  and  O_16
REMARK    8  A    between atoms: C_19  and  C_21
REMARK                            x       y       z     vdW  Elec       q    Type
REMARK                         _______ _______ _______ _____ _____    ______ ____
ROOT
ATOM      1  C   UNL     1      47.560   7.706  13.905  0.00  0.00    +0.000 A 
ATOM      2  C   UNL     1      47.576   6.369  13.482  0.00  0.00    +0.000 A 
ATOM      3  C   UNL     1      46.729   5.949  12.461  0.00  0.00    +0.000 A 
ATOM      4  C   UNL     1      45.852   6.858  11.854  0.00  0.00    +0.000 A 
ATOM      5  C   UNL     1      45.833   8.189  12.285  0.00  0.00    +0.000 A 
ATOM      6  C   UNL     1      46.683   8.613  13.302  0.00  0.00    +0.000 A 
ENDROOT
BRANCH   1   7
ATOM      7  C   UNL     1      48.479   8.161  15.003  0.00  0.00    +0.000 C 
BRANCH   7   9
ATOM      8  C   UNL     1      50.904   8.059  14.270  0.00  0.00    +0.000 C 
ATOM      9  N   UNL     1      49.806   7.544  15.082  0.00  0.00    +0.000 N 
ATOM     10  C   UNL     1      50.154   6.605  16.068  0.00  0.00    +0.000 C 
ATOM     11  O   UNL     1      51.316   6.229  16.203  0.00  0.00    +0.000 OA
BRANCH  10  12
ATOM     12  C   UNL     1      49.105   6.038  16.930  0.00  0.00    +0.000 A 
ATOM     13  C   UNL     1      48.473   4.824  16.708  0.00  0.00    +0.000 A 
ATOM     14  S   UNL     1      47.329   4.417  17.907  0.00  0.00    +0.000 S 
ATOM     15  C   UNL     1      47.764   5.763  18.848  0.00  0.00    +0.000 A 
ATOM     16  N   UNL     1      47.236   5.949  20.087  0.00  0.00    +0.000 NA
ATOM     17  C   UNL     1      47.723   6.966  20.717  0.00  0.00    +0.000 A 
ATOM     18  N   UNL     1      48.651   7.836  20.205  0.00  0.00    +0.000 N 
ATOM     19  C   UNL     1      49.094   7.777  18.901  0.00  0.00    +0.000 A 
ATOM     20  O   UNL     1      49.709   8.710  18.400  0.00  0.00    +0.000 OA
ATOM     21  C   UNL     1      48.685   6.570  18.204  0.00  0.00    +0.000 A 
ATOM     22  H   UNL     1      48.934   8.652  20.727  0.00  0.00    +0.000 HD
ENDBRANCH  10  12
ENDBRANCH   7   9
ENDBRANCH   1   7
BRANCH   4  23
ATOM     23  C   UNL     1      44.987   6.428  10.699  0.00  0.00    +0.000 C 
BRANCH  23  24
ATOM     24  N   UNL     1      44.357   5.135  10.941  0.00  0.00    +0.000 NA
ATOM     25  H   UNL     1      43.377   5.268  11.202  0.00  0.00    +0.000 HD
BRANCH  24  26
ATOM     26  C   UNL     1      44.423   4.251   9.766  0.00  0.00    +0.000 C 
ATOM     27  C   UNL     1      45.556   4.657   8.815  0.00  0.00    +0.000 C 
ATOM     28  C   UNL     1      45.703   3.688   7.652  0.00  0.00    +0.000 C 
ATOM     29  C   UNL     1      45.892   2.257   8.136  0.00  0.00    +0.000 C 
ATOM     30  C   UNL     1      44.759   1.830   9.063  0.00  0.00    +0.000 C 
ATOM     31  C   UNL     1      44.611   2.787  10.246  0.00  0.00    +0.000 C 
BRANCH  31  32
ATOM     32  O   UNL     1      43.491   2.376  11.040  0.00  0.00    +0.000 OA
ATOM     33  H   UNL     1      42.690   2.464  10.497  0.00  0.00    +0.000 HD
ENDBRANCH  31  32
ENDBRANCH  24  26
ENDBRANCH  23  24
ENDBRANCH   4  23
TORSDOF 7
ENDMDL
MODEL 7
REMARK VINA RESULT:    -6.901      3.317      8.862
REMARK INTER + INTRA:         -10.891
REMARK INTER:                  -9.609
REMARK INTRA:                  -1.282
REMARK UNBOUND:                -1.368
REMARK  Name = 
REMARK  8 active torsions:
REMARK  status: ('A' for Active; 'I' for Inactive)
REMARK    1  A    between atoms: C_1  and  N_2
REMARK    2  A    between atoms: N_2  and  C_3
REMARK    3  A    between atoms: C_3  and  C_4
REMARK    4  A    between atoms: C_7  and  C_8
REMARK    5  A    between atoms: C_8  and  N_9
REMARK    6  A    between atoms: N_9  and  C_10
REMARK    7  A    between atoms: C_15  and  O_16
REMARK    8  A    between atoms: C_19  and  C_21
REMARK                            x       y       z     vdW  Elec       q    Type
REMARK                         _______ _______ _______ _____ _____    ______ ____
ROOT
ATOM      1  C   UNL     1      47.244   8.193  13.569  0.00  0.00    +0.000 A 
ATOM      2  C   UNL     1      47.095   6.800  13.508  0.00  0.00    +0.000 A 
ATOM      3  C   UNL     1      46.027   6.242  12.812  0.00  0.00    +0.000 A 
ATOM      4  C   UNL     1      45.093   7.068  12.172  0.00  0.00    +0.000 A 
ATOM      5  C   UNL     1      45.242   8.457  12.244  0.00  0.00    +0.000 A 
ATOM      6  C   UNL     1      46.311   9.019  12.934  0.00  0.00    +0.000 A 
ENDROOT
BRANCH   1   7
ATOM      7  C   UNL     1      48.400   8.796  14.315  0.00  0.00    +0.000 C 
BRANCH   7   9
ATOM      8  C   UNL     1      50.367   7.929  12.970  0.00  0.00    +0.000 C 
ATOM      9  N   UNL     1      49.690   8.102  14.252  0.00  0.00    +0.000 N 
ATOM     10  C   UNL     1      50.439   7.775  15.395  0.00  0.00    +0.000 C 
ATOM     11  O   UNL     1      51.584   7.340  15.300  0.00  0.00    +0.000 OA
BRANCH  10  12
ATOM     12  C   UNL     1      49.829   7.924  16.726  0.00  0.00    +0.000 A 
ATOM     13  C   UNL     1      49.935   9.057  17.518  0.00  0.00    +0.000 A 
ATOM     14  S   UNL     1      49.083   8.945  18.992  0.00  0.00    +0.000 S 
ATOM     15  C   UNL     1      48.406   7.452  18.544  0.00  0.00    +0.000 A 
ATOM     16  N   UNL     1      47.471   6.848  19.324  0.00  0.00    +0.000 NA
ATOM     17  C   UNL     1      46.985   5.764  18.815  0.00  0.00    +0.000 A 
ATOM     18  N   UNL     1      47.382   5.209  17.625  0.00  0.00    +0.000 N 
ATOM     19  C   UNL     1      48.434   5.702  16.882  0.00  0.00    +0.000 A 
ATOM     20  O   UNL     1      48.932   5.043  15.978  0.00  0.00    +0.000 OA
ATOM     21  C   UNL     1      48.912   6.995  17.340  0.00  0.00    +0.000 A 
ATOM     22  H   UNL     1      47.011   4.322  17.322  0.00  0.00    +0.000 HD
ENDBRANCH  10  12
ENDBRANCH   7   9
ENDBRANCH   1   7
BRANCH   4  23
ATOM     23  C   UNL     1      43.979   6.470  11.355  0.00  0.00    +0.000 C 
BRANCH  23  24
ATOM     24  N   UNL     1      43.846   5.035  11.582  0.00  0.00    +0.000 NA
ATOM     25  H   UNL     1      42.940   4.833  12.012  0.00  0.00    +0.000 HD
BRANCH  24  26
ATOM     26  C   UNL     1      43.968   4.257  10.338  0.00  0.00    +0.000 C 
ATOM     27  C   UNL     1      45.140   4.746   9.478  0.00  0.00    +0.000 C 
ATOM     28  C   UNL     1      45.343   3.883   8.242  0.00  0.00    +0.000 C 
ATOM     29  C   UNL     1      45.519   2.415   8.608  0.00  0.00    +0.000 C 
ATOM     30  C   UNL     1      44.348   1.907   9.442  0.00  0.00    +0.000 C 
ATOM     31  C   UNL     1      44.142   2.757  10.697  0.00  0.00    +0.000 C 
BRANCH  31  32
ATOM     32  O   UNL     1      42.991   2.277  11.401  0.00  0.00    +0.000 OA
ATOM     33  H   UNL     1      42.515   1.664  10.816  0.00  0.00    +0.000 HD
ENDBRANCH  31  32
ENDBRANCH  24  26
ENDBRANCH  23  24
ENDBRANCH   4  23
TORSDOF 7
ENDMDL
MODEL 8
REMARK VINA RESULT:    -6.695      3.622      9.217
REMARK INTER + INTRA:         -10.606
REMARK INTER:                  -9.872
REMARK INTRA:                  -0.735
REMARK UNBOUND:                -1.368
REMARK  Name = 
REMARK  8 active torsions:
REMARK  status: ('A' for Active; 'I' for Inactive)
REMARK    1  A    between atoms: C_1  and  N_2
REMARK    2  A    between atoms: N_2  and  C_3
REMARK    3  A    between atoms: C_3  and  C_4
REMARK    4  A    between atoms: C_7  and  C_8
REMARK    5  A    between atoms: C_8  and  N_9
REMARK    6  A    between atoms: N_9  and  C_10
REMARK    7  A    between atoms: C_15  and  O_16
REMARK    8  A    between atoms: C_19  and  C_21
REMARK                            x       y       z     vdW  Elec       q    Type
REMARK                         _______ _______ _______ _____ _____    ______ ____
ROOT
ATOM      1  C   UNL     1      48.353   6.822  13.001  0.00  0.00    +0.000 A 
ATOM      2  C   UNL     1      47.811   5.798  13.792  0.00  0.00    +0.000 A 
ATOM      3  C   UNL     1      46.665   5.127  13.377  0.00  0.00    +0.000 A 
ATOM      4  C   UNL     1      46.042   5.475  12.170  0.00  0.00    +0.000 A 
ATOM      5  C   UNL     1      46.582   6.503  11.390  0.00  0.00    +0.000 A 
ATOM      6  C   UNL     1      47.732   7.171  11.799  0.00  0.00    +0.000 A 
ENDROOT
BRANCH   1   7
ATOM      7  C   UNL     1      49.595   7.541  13.446  0.00  0.00    +0.000 C 
BRANCH   7   9
ATOM      8  C   UNL     1      48.432   9.661  14.210  0.00  0.00    +0.000 C 
ATOM      9  N   UNL     1      49.443   8.629  14.417  0.00  0.00    +0.000 N 
ATOM     10  C   UNL     1      50.075   8.626  15.672  0.00  0.00    +0.000 C 
ATOM     11  O   UNL     1      49.800   9.470  16.522  0.00  0.00    +0.000 OA
BRANCH  10  12
ATOM     12  C   UNL     1      51.104   7.616  15.961  0.00  0.00    +0.000 A 
ATOM     13  C   UNL     1      52.454   7.761  15.676  0.00  0.00    +0.000 A 
ATOM     14  S   UNL     1      53.406   6.435  16.169  0.00  0.00    +0.000 S 
ATOM     15  C   UNL     1      52.077   5.701  16.932  0.00  0.00    +0.000 A 
ATOM     16  N   UNL     1      52.232   4.567  17.666  0.00  0.00    +0.000 NA
ATOM     17  C   UNL     1      51.153   4.174  18.256  0.00  0.00    +0.000 A 
ATOM     18  N   UNL     1      49.929   4.783  18.142  0.00  0.00    +0.000 N 
ATOM     19  C   UNL     1      49.694   5.838  17.287  0.00  0.00    +0.000 A 
ATOM     20  O   UNL     1      48.552   6.184  17.010  0.00  0.00    +0.000 OA
ATOM     21  C   UNL     1      50.904   6.402  16.716  0.00  0.00    +0.000 A 
ATOM     22  H   UNL     1      49.111   4.379  18.574  0.00  0.00    +0.000 HD
ENDBRANCH  10  12
ENDBRANCH   7   9
ENDBRANCH   1   7
BRANCH   4  23
ATOM     23  C   UNL     1      44.846   4.705  11.679  0.00  0.00    +0.000 C 
BRANCH  23  24
ATOM     24  N   UNL     1      44.380   5.187  10.383  0.00  0.00    +0.000 NA
ATOM     25  H   UNL     1      44.882   6.041  10.129  0.00  0.00    +0.000 HD
BRANCH  24  26
ATOM     26  C   UNL     1      44.563   4.190   9.316  0.00  0.00    +0.000 C 
ATOM     27  C   UNL     1      45.767   4.528   8.426  0.00  0.00    +0.000 C 
ATOM     28  C   UNL     1      46.031   3.450   7.386  0.00  0.00    +0.000 C 
ATOM     29  C   UNL     1      46.204   2.081   8.030  0.00  0.00    +0.000 C 
ATOM     30  C   UNL     1      45.003   1.720   8.898  0.00  0.00    +0.000 C 
ATOM     31  C   UNL     1      44.737   2.788   9.959  0.00  0.00    +0.000 C 
BRANCH  31  32
ATOM     32  O   UNL     1      43.561   2.429  10.695  0.00  0.00    +0.000 OA
ATOM     33  H   UNL     1      42.976   3.205  10.723  0.00  0.00    +0.000 HD
ENDBRANCH  31  32
ENDBRANCH  24  26
ENDBRANCH  23  24
ENDBRANCH   4  23
TORSDOF 7
ENDMDL
MODEL 9
REMARK VINA RESULT:    -6.570      3.190      8.299
REMARK INTER + INTRA:         -10.434
REMARK INTER:                  -9.000
REMARK INTRA:                  -1.434
REMARK UNBOUND:                -1.368
REMARK  Name = 
REMARK  8 active torsions:
REMARK  status: ('A' for Active; 'I' for Inactive)
REMARK    1  A    between atoms: C_1  and  N_2
REMARK    2  A    between atoms: N_2  and  C_3
REMARK    3  A    between atoms: C_3  and  C_4
REMARK    4  A    between atoms: C_7  and  C_8
REMARK    5  A    between atoms: C_8  and  N_9
REMARK    6  A    between atoms: N_9  and  C_10
REMARK    7  A    between atoms: C_15  and  O_16
REMARK    8  A    between atoms: C_19  and  C_21
REMARK                            x       y       z     vdW  Elec       q    Type
REMARK                         _______ _______ _______ _____ _____    ______ ____
ROOT
ATOM      1  C   UNL     1      49.049   7.898  15.734  0.00  0.00    +0.000 A 
ATOM      2  C   UNL     1      49.123   6.745  14.938  0.00  0.00    +0.000 A 
ATOM      3  C   UNL     1      48.288   6.604  13.834  0.00  0.00    +0.000 A 
ATOM      4  C   UNL     1      47.366   7.609  13.514  0.00  0.00    +0.000 A 
ATOM      5  C   UNL     1      47.289   8.752  14.316  0.00  0.00    +0.000 A 
ATOM      6  C   UNL     1      48.127   8.900  15.418  0.00  0.00    +0.000 A 
ENDROOT
BRANCH   1   7
ATOM      7  C   UNL     1      49.954   8.054  16.922  0.00  0.00    +0.000 C 
BRANCH   7   9
ATOM      8  C   UNL     1      48.550   8.964  18.827  0.00  0.00    +0.000 C 
ATOM      9  N   UNL     1      49.364   7.897  18.255  0.00  0.00    +0.000 N 
ATOM     10  C   UNL     1      49.353   6.673  18.946  0.00  0.00    +0.000 C 
ATOM     11  O   UNL     1      48.712   6.538  19.986  0.00  0.00    +0.000 OA
BRANCH  10  12
ATOM     12  C   UNL     1      50.147   5.546  18.434  0.00  0.00    +0.000 A 
ATOM     13  C   UNL     1      51.495   5.348  18.693  0.00  0.00    +0.000 A 
ATOM     14  S   UNL     1      52.127   3.926  17.993  0.00  0.00    +0.000 S 
ATOM     15  C   UNL     1      50.585   3.441  17.468  0.00  0.00    +0.000 A 
ATOM     16  N   UNL     1      50.396   2.227  16.887  0.00  0.00    +0.000 NA
ATOM     17  C   UNL     1      49.161   1.961  16.619  0.00  0.00    +0.000 A 
ATOM     18  N   UNL     1      48.109   2.815  16.835  0.00  0.00    +0.000 N 
ATOM     19  C   UNL     1      48.275   4.111  17.273  0.00  0.00    +0.000 A 
ATOM     20  O   UNL     1      47.361   4.923  17.203  0.00  0.00    +0.000 OA
ATOM     21  C   UNL     1      49.625   4.403  17.723  0.00  0.00    +0.000 A 
ATOM     22  H   UNL     1      47.178   2.570  16.534  0.00  0.00    +0.000 HD
ENDBRANCH  10  12
ENDBRANCH   7   9
ENDBRANCH   1   7
BRANCH   4  23
ATOM     23  C   UNL     1      46.513   7.496  12.279  0.00  0.00    +0.000 C 
BRANCH  23  24
ATOM     24  N   UNL     1      45.107   7.278  12.604  0.00  0.00    +0.000 NA
ATOM     25  H   UNL     1      44.594   8.160  12.537  0.00  0.00    +0.000 HD
BRANCH  24  26
ATOM     26  C   UNL     1      44.474   6.287  11.718  0.00  0.00    +0.000 C 
ATOM     27  C   UNL     1      45.477   5.702  10.716  0.00  0.00    +0.000 C 
ATOM     28  C   UNL     1      44.862   4.600   9.867  0.00  0.00    +0.000 C 
ATOM     29  C   UNL     1      44.256   3.501  10.730  0.00  0.00    +0.000 C 
ATOM     30  C   UNL     1      43.237   4.065  11.714  0.00  0.00    +0.000 C 
ATOM     31  C   UNL     1      43.848   5.163  12.586  0.00  0.00    +0.000 C 
BRANCH  31  32
ATOM     32  O   UNL     1      42.830   5.701  13.439  0.00  0.00    +0.000 OA
ATOM     33  H   UNL     1      42.269   4.965  13.737  0.00  0.00    +0.000 HD
ENDBRANCH  31  32
ENDBRANCH  24  26
ENDBRANCH  23  24
ENDBRANCH   4  23
TORSDOF 7
ENDMDL
