MODEL 1
REMARK VINA RESULT:    -7.909      0.000      0.000
REMARK INTER + INTRA:         -13.544
REMARK INTER:                 -12.532
REMARK INTRA:                  -1.012
REMARK UNBOUND:                -1.012
REMARK  Name = 
REMARK  11 active torsions:
REMARK  status: ('A' for Active; 'I' for Inactive)
REMARK    1  A    between atoms: C_1  and  O_2
REMARK    2  A    between atoms: O_2  and  C_3
REMARK    3  A    between atoms: C_3  and  C_4
REMARK    4  A    between atoms: C_4  and  N_5
REMARK    5  A    between atoms: C_4  and  C_13
REMARK    6  A    between atoms: N_5  and  C_6
REMARK    7  A    between atoms: C_6  and  C_7
REMARK    8  A    between atoms: C_16  and  C_17
REMARK    9  A    between atoms: C_17  and  N_18
REMARK   10  A    between atoms: N_18  and  C_19
REMARK   11  A    between atoms: C_19  and  C_20
REMARK                            x       y       z     vdW  Elec       q    Type
REMARK                         _______ _______ _______ _____ _____    ______ ____
ROOT
ATOM      1  C   UNL     1      45.948   5.433  11.721  0.00  0.00    +0.000 A 
ATOM      2  C   UNL     1      46.230   4.916  12.997  0.00  0.00    +0.000 A 
ATOM      3  C   UNL     1      47.125   5.559  13.851  0.00  0.00    +0.000 A 
ATOM      4  C   UNL     1      47.744   6.754  13.467  0.00  0.00    +0.000 A 
ATOM      5  C   UNL     1      47.479   7.270  12.195  0.00  0.00    +0.000 A 
ATOM      6  C   UNL     1      46.604   6.610  11.328  0.00  0.00    +0.000 A 
ENDROOT
BRANCH   1   7
ATOM      7  C   UNL     1      44.997   4.664  10.799  0.00  0.00    +0.000 C 
BRANCH   7   8
ATOM      8  N   UNL     1      45.151   5.064   9.383  0.00  0.00    +0.000 NA
ATOM      9  H   UNL     1      46.133   5.213   9.167  0.00  0.00    +0.000 HD
BRANCH   8  10
ATOM     10  C   UNL     1      44.590   4.090   8.445  0.00  0.00    +0.000 C 
BRANCH  10  11
ATOM     11  C   UNL     1      45.629   3.129   7.920  0.00  0.00    +0.000 A 
ATOM     12  C   UNL     1      45.707   1.816   8.414  0.00  0.00    +0.000 A 
ATOM     13  C   UNL     1      46.640   0.922   7.891  0.00  0.00    +0.000 A 
ATOM     14  C   UNL     1      47.500   1.327   6.875  0.00  0.00    +0.000 A 
ATOM     15  C   UNL     1      47.427   2.626   6.375  0.00  0.00    +0.000 A 
ATOM     16  C   UNL     1      46.495   3.523   6.892  0.00  0.00    +0.000 A 
ENDBRANCH  10  11
ENDBRANCH   8  10
ENDBRANCH   7   8
BRANCH   7  17
ATOM     17  C   UNL     1      43.520   4.808  11.286  0.00  0.00    +0.000 C 
BRANCH  17  19
ATOM     18  C   UNL     1      43.546   2.623  12.159  0.00  0.00    +0.000 C 
ATOM     19  O   UNL     1      42.825   3.558  11.359  0.00  0.00    +0.000 OA
ENDBRANCH  17  19
ENDBRANCH   7  17
ENDBRANCH   1   7
BRANCH   4  20
ATOM     20  C   UNL     1      48.661   7.474  14.425  0.00  0.00    +0.000 C 
BRANCH  20  21
ATOM     21  N   UNL     1      49.748   6.606  14.856  0.00  0.00    +0.000 NA
ATOM     22  H   UNL     1      50.639   6.971  14.520  0.00  0.00    +0.000 HD
BRANCH  21  23
ATOM     23  C   UNL     1      49.818   6.522  16.322  0.00  0.00    +0.000 C 
BRANCH  23  24
ATOM     24  C   UNL     1      49.212   5.230  16.865  0.00  0.00    +0.000 A 
ATOM     25  N   UNL     1      50.031   4.163  16.984  0.00  0.00    +0.000 NA
ATOM     26  C   UNL     1      49.468   3.030  17.447  0.00  0.00    +0.000 A 
ATOM     27  C   UNL     1      48.140   2.924  17.788  0.00  0.00    +0.000 A 
ATOM     28  C   UNL     1      47.397   4.070  17.636  0.00  0.00    +0.000 A 
ATOM     29  N   UNL     1      47.901   5.232  17.184  0.00  0.00    +0.000 NA
ENDBRANCH  23  24
ENDBRANCH  21  23
ENDBRANCH  20  21
ENDBRANCH   4  20
TORSDOF 10
ENDMDL
MODEL 2
REMARK VINA RESULT:    -7.806      0.561      1.398
REMARK INTER + INTRA:         -13.380
REMARK INTER:                 -12.229
REMARK INTRA:                  -1.151
REMARK UNBOUND:                -1.012
REMARK  Name = 
REMARK  11 active torsions:
REMARK  status: ('A' for Active; 'I' for Inactive)
REMARK    1  A    between atoms: C_1  and  O_2
REMARK    2  A    between atoms: O_2  and  C_3
REMARK    3  A    between atoms: C_3  and  C_4
REMARK    4  A    between atoms: C_4  and  N_5
REMARK    5  A    between atoms: C_4  and  C_13
REMARK    6  A    between atoms: N_5  and  C_6
REMARK    7  A    between atoms: C_6  and  C_7
REMARK    8  A    between atoms: C_16  and  C_17
REMARK    9  A    between atoms: C_17  and  N_18
REMARK   10  A    between atoms: N_18  and  C_19
REMARK   11  A    between atoms: C_19  and  C_20
REMARK                            x       y       z     vdW  Elec       q    Type
REMARK                         _______ _______ _______ _____ _____    ______ ____
ROOT
ATOM      1  C   UNL     1      45.951   5.276  11.785  0.00  0.00    +0.000 A 
ATOM      2  C   UNL     1      46.574   6.502  11.495  0.00  0.00    +0.000 A 
ATOM      3  C   UNL     1      47.469   7.083  12.392  0.00  0.00    +0.000 A 
ATOM      4  C   UNL     1      47.791   6.442  13.594  0.00  0.00    +0.000 A 
ATOM      5  C   UNL     1      47.168   5.228  13.897  0.00  0.00    +0.000 A 
ATOM      6  C   UNL     1      46.249   4.660  13.010  0.00  0.00    +0.000 A 
ENDROOT
BRANCH   1   7
ATOM      7  C   UNL     1      44.936   4.703  10.791  0.00  0.00    +0.000 C 
BRANCH   7   8
ATOM      8  N   UNL     1      45.228   5.117   9.400  0.00  0.00    +0.000 NA
ATOM      9  H   UNL     1      46.232   5.183   9.259  0.00  0.00    +0.000 HD
BRANCH   8  10
ATOM     10  C   UNL     1      44.656   4.213   8.399  0.00  0.00    +0.000 C 
BRANCH  10  11
ATOM     11  C   UNL     1      45.661   3.213   7.882  0.00  0.00    +0.000 A 
ATOM     12  C   UNL     1      45.708   1.908   8.403  0.00  0.00    +0.000 A 
ATOM     13  C   UNL     1      46.610   0.978   7.888  0.00  0.00    +0.000 A 
ATOM     14  C   UNL     1      47.468   1.338   6.853  0.00  0.00    +0.000 A 
ATOM     15  C   UNL     1      47.425   2.628   6.327  0.00  0.00    +0.000 A 
ATOM     16  C   UNL     1      46.525   3.561   6.837  0.00  0.00    +0.000 A 
ENDBRANCH  10  11
ENDBRANCH   8  10
ENDBRANCH   7   8
BRANCH   7  17
ATOM     17  C   UNL     1      43.479   5.074  11.214  0.00  0.00    +0.000 C 
BRANCH  17  19
ATOM     18  C   UNL     1      43.261   2.787  11.722  0.00  0.00    +0.000 C 
ATOM     19  O   UNL     1      42.884   4.112  12.091  0.00  0.00    +0.000 OA
ENDBRANCH  17  19
ENDBRANCH   7  17
ENDBRANCH   1   7
BRANCH   4  20
ATOM     20  C   UNL     1      48.810   7.049  14.527  0.00  0.00    +0.000 C 
BRANCH  20  21
ATOM     21  N   UNL     1      48.194   7.435  15.789  0.00  0.00    +0.000 NA
ATOM     22  H   UNL     1      47.246   7.062  15.842  0.00  0.00    +0.000 HD
BRANCH  21  23
ATOM     23  C   UNL     1      48.949   6.912  16.936  0.00  0.00    +0.000 C 
BRANCH  23  24
ATOM     24  C   UNL     1      48.740   5.413  17.142  0.00  0.00    +0.000 A 
ATOM     25  N   UNL     1      47.481   4.990  17.388  0.00  0.00    +0.000 NA
ATOM     26  C   UNL     1      47.326   3.667  17.585  0.00  0.00    +0.000 A 
ATOM     27  C   UNL     1      48.364   2.765  17.549  0.00  0.00    +0.000 A 
ATOM     28  C   UNL     1      49.602   3.299  17.283  0.00  0.00    +0.000 A 
ATOM     29  N   UNL     1      49.821   4.609  17.072  0.00  0.00    +0.000 NA
ENDBRANCH  23  24
ENDBRANCH  21  23
ENDBRANCH  20  21
ENDBRANCH   4  20
TORSDOF 10
ENDMDL
MODEL 3
REMARK VINA RESULT:    -7.280      2.192      8.416
REMARK INTER + INTRA:         -12.547
REMARK INTER:                 -11.349
REMARK INTRA:                  -1.198
REMARK UNBOUND:                -1.012
REMARK  Name = 
REMARK  11 active torsions:
REMARK  status: ('A' for Active; 'I' for Inactive)
REMARK    1  A    between atoms: C_1  and  O_2
REMARK    2  A    between atoms: O_2  and  C_3
REMARK    3  A    between atoms: C_3  and  C_4
REMARK    4  A    between atoms: C_4  and  N_5
REMARK    5  A    between atoms: C_4  and  C_13
REMARK    6  A    between atoms: N_5  and  C_6
REMARK    7  A    between atoms: C_6  and  C_7
REMARK    8  A    between atoms: C_16  and  C_17
REMARK    9  A    between atoms: C_17  and  N_18
REMARK   10  A    between atoms: N_18  and  C_19
REMARK   11  A    between atoms: C_19  and  C_20
REMARK                            x       y       z     vdW  Elec       q    Type
REMARK                         _______ _______ _______ _____ _____    ______ ____
ROOT
ATOM      1  C   UNL     1      46.960   6.104  12.813  0.00  0.00    +0.000 A 
ATOM      2  C   UNL     1      46.754   6.573  11.504  0.00  0.00    +0.000 A 
ATOM      3  C   UNL     1      45.683   6.116  10.737  0.00  0.00    +0.000 A 
ATOM      4  C   UNL     1      44.769   5.197  11.264  0.00  0.00    +0.000 A 
ATOM      5  C   UNL     1      44.972   4.716  12.561  0.00  0.00    +0.000 A 
ATOM      6  C   UNL     1      46.062   5.152  13.319  0.00  0.00    +0.000 A 
ENDROOT
BRANCH   1   7
ATOM      7  C   UNL     1      48.180   6.597  13.597  0.00  0.00    +0.000 C 
BRANCH   7   8
ATOM      8  N   UNL     1      47.848   6.898  15.007  0.00  0.00    +0.000 NA
ATOM      9  H   UNL     1      47.008   6.396  15.283  0.00  0.00    +0.000 HD
BRANCH   8  10
ATOM     10  C   UNL     1      48.933   6.575  15.936  0.00  0.00    +0.000 C 
BRANCH  10  11
ATOM     11  C   UNL     1      48.680   5.299  16.700  0.00  0.00    +0.000 A 
ATOM     12  C   UNL     1      47.435   4.650  16.621  0.00  0.00    +0.000 A 
ATOM     13  C   UNL     1      47.225   3.448  17.294  0.00  0.00    +0.000 A 
ATOM     14  C   UNL     1      48.249   2.883  18.049  0.00  0.00    +0.000 A 
ATOM     15  C   UNL     1      49.488   3.517  18.130  0.00  0.00    +0.000 A 
ATOM     16  C   UNL     1      49.704   4.717  17.457  0.00  0.00    +0.000 A 
ENDBRANCH  10  11
ENDBRANCH   8  10
ENDBRANCH   7   8
BRANCH   7  17
ATOM     17  C   UNL     1      48.839   7.818  12.882  0.00  0.00    +0.000 C 
BRANCH  17  19
ATOM     18  C   UNL     1      50.904   8.870  13.286  0.00  0.00    +0.000 C 
ATOM     19  O   UNL     1      50.262   7.706  12.770  0.00  0.00    +0.000 OA
ENDBRANCH  17  19
ENDBRANCH   7  17
ENDBRANCH   1   7
BRANCH   4  20
ATOM     20  C   UNL     1      43.578   4.759  10.448  0.00  0.00    +0.000 C 
BRANCH  20  21
ATOM     21  N   UNL     1      44.000   4.216   9.164  0.00  0.00    +0.000 NA
ATOM     22  H   UNL     1      44.804   4.736   8.813  0.00  0.00    +0.000 HD
BRANCH  21  23
ATOM     23  C   UNL     1      44.393   2.804   9.283  0.00  0.00    +0.000 C 
BRANCH  23  24
ATOM     24  C   UNL     1      45.588   2.452   8.401  0.00  0.00    +0.000 A 
ATOM     25  N   UNL     1      45.970   1.157   8.360  0.00  0.00    +0.000 NA
ATOM     26  C   UNL     1      47.039   0.876   7.590  0.00  0.00    +0.000 A 
ATOM     27  C   UNL     1      47.731   1.823   6.873  0.00  0.00    +0.000 A 
ATOM     28  C   UNL     1      47.255   3.109   6.977  0.00  0.00    +0.000 A 
ATOM     29  N   UNL     1      46.191   3.452   7.724  0.00  0.00    +0.000 NA
ENDBRANCH  23  24
ENDBRANCH  21  23
ENDBRANCH  20  21
ENDBRANCH   4  20
TORSDOF 10
ENDMDL
MODEL 4
REMARK VINA RESULT:    -7.230      3.162      5.538
REMARK INTER + INTRA:         -12.469
REMARK INTER:                 -11.357
REMARK INTRA:                  -1.112
REMARK UNBOUND:                -1.012
REMARK  Name = 
REMARK  11 active torsions:
REMARK  status: ('A' for Active; 'I' for Inactive)
REMARK    1  A    between atoms: C_1  and  O_2
REMARK    2  A    between atoms: O_2  and  C_3
REMARK    3  A    between atoms: C_3  and  C_4
REMARK    4  A    between atoms: C_4  and  N_5
REMARK    5  A    between atoms: C_4  and  C_13
REMARK    6  A    between atoms: N_5  and  C_6
REMARK    7  A    between atoms: C_6  and  C_7
REMARK    8  A    between atoms: C_16  and  C_17
REMARK    9  A    between atoms: C_17  and  N_18
REMARK   10  A    between atoms: N_18  and  C_19
REMARK   11  A    between atoms: C_19  and  C_20
REMARK                            x       y       z     vdW  Elec       q    Type
REMARK                         _______ _______ _______ _____ _____    ______ ____
ROOT
ATOM      1  C   UNL     1      45.501   4.780  12.097  0.00  0.00    +0.000 A 
ATOM      2  C   UNL     1      45.658   5.631  10.989  0.00  0.00    +0.000 A 
ATOM      3  C   UNL     1      46.321   6.851  11.108  0.00  0.00    +0.000 A 
ATOM      4  C   UNL     1      46.872   7.248  12.332  0.00  0.00    +0.000 A 
ATOM      5  C   UNL     1      46.711   6.414  13.442  0.00  0.00    +0.000 A 
ATOM      6  C   UNL     1      46.022   5.204  13.329  0.00  0.00    +0.000 A 
ENDROOT
BRANCH   1   7
ATOM      7  C   UNL     1      44.721   3.473  11.927  0.00  0.00    +0.000 C 
BRANCH   7   8
ATOM      8  N   UNL     1      45.353   2.575  10.936  0.00  0.00    +0.000 NA
ATOM      9  H   UNL     1      45.443   1.638  11.321  0.00  0.00    +0.000 HD
BRANCH   8  10
ATOM     10  C   UNL     1      44.620   2.510   9.669  0.00  0.00    +0.000 C 
BRANCH  10  11
ATOM     11  C   UNL     1      45.538   2.459   8.472  0.00  0.00    +0.000 A 
ATOM     12  C   UNL     1      45.739   3.597   7.673  0.00  0.00    +0.000 A 
ATOM     13  C   UNL     1      46.624   3.553   6.596  0.00  0.00    +0.000 A 
ATOM     14  C   UNL     1      47.314   2.380   6.309  0.00  0.00    +0.000 A 
ATOM     15  C   UNL     1      47.124   1.247   7.098  0.00  0.00    +0.000 A 
ATOM     16  C   UNL     1      46.243   1.286   8.176  0.00  0.00    +0.000 A 
ENDBRANCH  10  11
ENDBRANCH   8  10
ENDBRANCH   7   8
BRANCH   7  17
ATOM     17  C   UNL     1      43.227   3.763  11.580  0.00  0.00    +0.000 C 
BRANCH  17  19
ATOM     18  C   UNL     1      42.209   5.878  11.742  0.00  0.00    +0.000 C 
ATOM     19  O   UNL     1      42.617   4.715  12.459  0.00  0.00    +0.000 OA
ENDBRANCH  17  19
ENDBRANCH   7  17
ENDBRANCH   1   7
BRANCH   4  20
ATOM     20  C   UNL     1      47.643   8.541  12.433  0.00  0.00    +0.000 C 
BRANCH  20  21
ATOM     21  N   UNL     1      46.775   9.630  12.858  0.00  0.00    +0.000 NA
ATOM     22  H   UNL     1      47.214  10.148  13.620  0.00  0.00    +0.000 HD
BRANCH  21  23
ATOM     23  C   UNL     1      46.522  10.573  11.760  0.00  0.00    +0.000 C 
BRANCH  23  24
ATOM     24  C   UNL     1      45.033  10.738  11.459  0.00  0.00    +0.000 A 
ATOM     25  N   UNL     1      44.478  11.942  11.717  0.00  0.00    +0.000 NA
ATOM     26  C   UNL     1      43.160  12.054  11.462  0.00  0.00    +0.000 A 
ATOM     27  C   UNL     1      42.389  11.028  10.970  0.00  0.00    +0.000 A 
ATOM     28  C   UNL     1      43.054   9.848  10.736  0.00  0.00    +0.000 A 
ATOM     29  N   UNL     1      44.368   9.674  10.965  0.00  0.00    +0.000 NA
ENDBRANCH  23  24
ENDBRANCH  21  23
ENDBRANCH  20  21
ENDBRANCH   4  20
TORSDOF 10
ENDMDL
MODEL 5
REMARK VINA RESULT:    -7.180      2.081      8.391
REMARK INTER + INTRA:         -12.389
REMARK INTER:                 -11.279
REMARK INTRA:                  -1.109
REMARK UNBOUND:                -1.012
REMARK  Name = 
REMARK  11 active torsions:
REMARK  status: ('A' for Active; 'I' for Inactive)
REMARK    1  A    between atoms: C_1  and  O_2
REMARK    2  A    between atoms: O_2  and  C_3
REMARK    3  A    between atoms: C_3  and  C_4
REMARK    4  A    between atoms: C_4  and  N_5
REMARK    5  A    between atoms: C_4  and  C_13
REMARK    6  A    between atoms: N_5  and  C_6
REMARK    7  A    between atoms: C_6  and  C_7
REMARK    8  A    between atoms: C_16  and  C_17
REMARK    9  A    between atoms: C_17  and  N_18
REMARK   10  A    between atoms: N_18  and  C_19
REMARK   11  A    between atoms: C_19  and  C_20
REMARK                            x       y       z     vdW  Elec       q    Type
REMARK                         _______ _______ _______ _____ _____    ______ ____
ROOT
ATOM      1  C   UNL     1      46.927   6.016  12.715  0.00  0.00    +0.000 A 
ATOM      2  C   UNL     1      46.136   5.093  13.422  0.00  0.00    +0.000 A 
ATOM      3  C   UNL     1      45.013   4.511  12.836  0.00  0.00    +0.000 A 
ATOM      4  C   UNL     1      44.661   4.812  11.515  0.00  0.00    +0.000 A 
ATOM      5  C   UNL     1      45.435   5.738  10.808  0.00  0.00    +0.000 A 
ATOM      6  C   UNL     1      46.544   6.342  11.405  0.00  0.00    +0.000 A 
ENDROOT
BRANCH   1   7
ATOM      7  C   UNL     1      48.121   6.666  13.420  0.00  0.00    +0.000 C 
BRANCH   7   8
ATOM      8  N   UNL     1      47.859   6.896  14.858  0.00  0.00    +0.000 NA
ATOM      9  H   UNL     1      47.055   6.350  15.158  0.00  0.00    +0.000 HD
BRANCH   8  10
ATOM     10  C   UNL     1      49.007   6.577  15.710  0.00  0.00    +0.000 C 
BRANCH  10  11
ATOM     11  C   UNL     1      48.733   5.421  16.640  0.00  0.00    +0.000 A 
ATOM     12  C   UNL     1      47.680   4.526  16.383  0.00  0.00    +0.000 A 
ATOM     13  C   UNL     1      47.462   3.436  17.223  0.00  0.00    +0.000 A 
ATOM     14  C   UNL     1      48.290   3.226  18.322  0.00  0.00    +0.000 A 
ATOM     15  C   UNL     1      49.339   4.105  18.583  0.00  0.00    +0.000 A 
ATOM     16  C   UNL     1      49.562   5.196  17.746  0.00  0.00    +0.000 A 
ENDBRANCH  10  11
ENDBRANCH   8  10
ENDBRANCH   7   8
BRANCH   7  17
ATOM     17  C   UNL     1      48.544   7.980  12.690  0.00  0.00    +0.000 C 
BRANCH  17  19
ATOM     18  C   UNL     1      48.560  10.202  13.462  0.00  0.00    +0.000 C 
ATOM     19  O   UNL     1      47.741   9.110  13.049  0.00  0.00    +0.000 OA
ENDBRANCH  17  19
ENDBRANCH   7  17
ENDBRANCH   1   7
BRANCH   4  20
ATOM     20  C   UNL     1      43.481   4.128  10.870  0.00  0.00    +0.000 C 
BRANCH  20  21
ATOM     21  N   UNL     1      43.800   3.714   9.510  0.00  0.00    +0.000 NA
ATOM     22  H   UNL     1      44.442   4.383   9.084  0.00  0.00    +0.000 HD
BRANCH  21  23
ATOM     23  C   UNL     1      44.446   2.394   9.490  0.00  0.00    +0.000 C 
BRANCH  23  24
ATOM     24  C   UNL     1      45.578   2.310   8.468  0.00  0.00    +0.000 A 
ATOM     25  N   UNL     1      45.900   3.442   7.805  0.00  0.00    +0.000 NA
ATOM     26  C   UNL     1      46.888   3.336   6.895  0.00  0.00    +0.000 A 
ATOM     27  C   UNL     1      47.553   2.164   6.625  0.00  0.00    +0.000 A 
ATOM     28  C   UNL     1      47.153   1.074   7.360  0.00  0.00    +0.000 A 
ATOM     29  N   UNL     1      46.178   1.115   8.286  0.00  0.00    +0.000 NA
ENDBRANCH  23  24
ENDBRANCH  21  23
ENDBRANCH  20  21
ENDBRANCH   4  20
TORSDOF 10
ENDMDL
MODEL 6
REMARK VINA RESULT:    -7.098      2.210      8.439
REMARK INTER + INTRA:         -12.259
REMARK INTER:                 -11.413
REMARK INTRA:                  -0.846
REMARK UNBOUND:                -1.012
REMARK  Name = 
REMARK  11 active torsions:
REMARK  status: ('A' for Active; 'I' for Inactive)
REMARK    1  A    between atoms: C_1  and  O_2
REMARK    2  A    between atoms: O_2  and  C_3
REMARK    3  A    between atoms: C_3  and  C_4
REMARK    4  A    between atoms: C_4  and  N_5
REMARK    5  A    between atoms: C_4  and  C_13
REMARK    6  A    between atoms: N_5  and  C_6
REMARK    7  A    between atoms: C_6  and  C_7
REMARK    8  A    between atoms: C_16  and  C_17
REMARK    9  A    between atoms: C_17  and  N_18
REMARK   10  A    between atoms: N_18  and  C_19
REMARK   11  A    between atoms: C_19  and  C_20
REMARK                            x       y       z     vdW  Elec       q    Type
REMARK                         _______ _______ _______ _____ _____    ______ ____
ROOT
ATOM      1  C   UNL     1      46.821   5.238  13.716  0.00  0.00    +0.000 A 
ATOM      2  C   UNL     1      46.351   3.956  13.382  0.00  0.00    +0.000 A 
ATOM      3  C   UNL     1      45.337   3.785  12.440  0.00  0.00    +0.000 A 
ATOM      4  C   UNL     1      44.782   4.888  11.781  0.00  0.00    +0.000 A 
ATOM      5  C   UNL     1      45.235   6.168  12.115  0.00  0.00    +0.000 A 
ATOM      6  C   UNL     1      46.231   6.341  13.080  0.00  0.00    +0.000 A 
ENDROOT
BRANCH   1   7
ATOM      7  C   UNL     1      47.899   5.378  14.794  0.00  0.00    +0.000 C 
BRANCH   7   8
ATOM      8  N   UNL     1      47.342   5.238  16.158  0.00  0.00    +0.000 NA
ATOM      9  H   UNL     1      46.378   5.561  16.176  0.00  0.00    +0.000 HD
BRANCH   8  10
ATOM     10  C   UNL     1      47.405   3.867  16.667  0.00  0.00    +0.000 C 
BRANCH  10  11
ATOM     11  C   UNL     1      48.815   3.433  16.986  0.00  0.00    +0.000 A 
ATOM     12  C   UNL     1      49.672   4.264  17.726  0.00  0.00    +0.000 A 
ATOM     13  C   UNL     1      50.958   3.836  18.054  0.00  0.00    +0.000 A 
ATOM     14  C   UNL     1      51.398   2.580  17.649  0.00  0.00    +0.000 A 
ATOM     15  C   UNL     1      50.554   1.746  16.918  0.00  0.00    +0.000 A 
ATOM     16  C   UNL     1      49.268   2.168  16.589  0.00  0.00    +0.000 A 
ENDBRANCH  10  11
ENDBRANCH   8  10
ENDBRANCH   7   8
BRANCH   7  17
ATOM     17  C   UNL     1      48.682   6.718  14.621  0.00  0.00    +0.000 C 
BRANCH  17  19
ATOM     18  C   UNL     1      50.065   7.606  16.304  0.00  0.00    +0.000 C 
ATOM     19  O   UNL     1      49.986   6.691  15.214  0.00  0.00    +0.000 OA
ENDBRANCH  17  19
ENDBRANCH   7  17
ENDBRANCH   1   7
BRANCH   4  20
ATOM     20  C   UNL     1      43.732   4.686  10.717  0.00  0.00    +0.000 C 
BRANCH  20  21
ATOM     21  N   UNL     1      44.346   4.387   9.431  0.00  0.00    +0.000 NA
ATOM     22  H   UNL     1      45.306   4.731   9.415  0.00  0.00    +0.000 HD
BRANCH  21  23
ATOM     23  C   UNL     1      44.381   2.939   9.177  0.00  0.00    +0.000 C 
BRANCH  23  24
ATOM     24  C   UNL     1      45.598   2.517   8.358  0.00  0.00    +0.000 A 
ATOM     25  N   UNL     1      46.232   3.475   7.648  0.00  0.00    +0.000 NA
ATOM     26  C   UNL     1      47.291   3.073   6.918  0.00  0.00    +0.000 A 
ATOM     27  C   UNL     1      47.732   1.772   6.870  0.00  0.00    +0.000 A 
ATOM     28  C   UNL     1      47.022   0.877   7.635  0.00  0.00    +0.000 A 
ATOM     29  N   UNL     1      45.960   1.217   8.388  0.00  0.00    +0.000 NA
ENDBRANCH  23  24
ENDBRANCH  21  23
ENDBRANCH  20  21
ENDBRANCH   4  20
TORSDOF 10
ENDMDL
MODEL 7
REMARK VINA RESULT:    -6.864      1.988      2.595
REMARK INTER + INTRA:         -11.889
REMARK INTER:                 -11.302
REMARK INTRA:                  -0.587
REMARK UNBOUND:                -1.012
REMARK  Name = 
REMARK  11 active torsions:
REMARK  status: ('A' for Active; 'I' for Inactive)
REMARK    1  A    between atoms: C_1  and  O_2
REMARK    2  A    between atoms: O_2  and  C_3
REMARK    3  A    between atoms: C_3  and  C_4
REMARK    4  A    between atoms: C_4  and  N_5
REMARK    5  A    between atoms: C_4  and  C_13
REMARK    6  A    between atoms: N_5  and  C_6
REMARK    7  A    between atoms: C_6  and  C_7
REMARK    8  A    between atoms: C_16  and  C_17
REMARK    9  A    between atoms: C_17  and  N_18
REMARK   10  A    between atoms: N_18  and  C_19
REMARK   11  A    between atoms: C_19  and  C_20
REMARK                            x       y       z     vdW  Elec       q    Type
REMARK                         _______ _______ _______ _____ _____    ______ ____
ROOT
ATOM      1  C   UNL     1      45.624   4.826  12.064  0.00  0.00    +0.000 A 
ATOM      2  C   UNL     1      46.215   4.418  13.272  0.00  0.00    +0.000 A 
ATOM      3  C   UNL     1      47.280   5.127  13.826  0.00  0.00    +0.000 A 
ATOM      4  C   UNL     1      47.769   6.282  13.204  0.00  0.00    +0.000 A 
ATOM      5  C   UNL     1      47.195   6.688  11.995  0.00  0.00    +0.000 A 
ATOM      6  C   UNL     1      46.146   5.962  11.426  0.00  0.00    +0.000 A 
ENDROOT
BRANCH   1   7
ATOM      7  C   UNL     1      44.489   3.986  11.469  0.00  0.00    +0.000 C 
BRANCH   7   8
ATOM      8  N   UNL     1      44.992   2.756  10.818  0.00  0.00    +0.000 NA
ATOM      9  H   UNL     1      44.778   1.945  11.392  0.00  0.00    +0.000 HD
BRANCH   8  10
ATOM     10  C   UNL     1      44.451   2.555   9.472  0.00  0.00    +0.000 C 
BRANCH  10  11
ATOM     11  C   UNL     1      45.530   2.492   8.419  0.00  0.00    +0.000 A 
ATOM     12  C   UNL     1      46.253   1.307   8.202  0.00  0.00    +0.000 A 
ATOM     13  C   UNL     1      47.217   1.245   7.197  0.00  0.00    +0.000 A 
ATOM     14  C   UNL     1      47.466   2.359   6.401  0.00  0.00    +0.000 A 
ATOM     15  C   UNL     1      46.751   3.538   6.605  0.00  0.00    +0.000 A 
ATOM     16  C   UNL     1      45.786   3.604   7.608  0.00  0.00    +0.000 A 
ENDBRANCH  10  11
ENDBRANCH   8  10
ENDBRANCH   7   8
BRANCH   7  17
ATOM     17  C   UNL     1      43.619   4.843  10.497  0.00  0.00    +0.000 C 
BRANCH  17  19
ATOM     18  C   UNL     1      42.579   5.315  12.555  0.00  0.00    +0.000 C 
ATOM     19  O   UNL     1      42.495   5.458  11.139  0.00  0.00    +0.000 OA
ENDBRANCH  17  19
ENDBRANCH   7  17
ENDBRANCH   1   7
BRANCH   4  20
ATOM     20  C   UNL     1      48.880   7.076  13.845  0.00  0.00    +0.000 C 
BRANCH  20  21
ATOM     21  N   UNL     1      49.327   6.442  15.078  0.00  0.00    +0.000 NA
ATOM     22  H   UNL     1      49.740   5.533  14.871  0.00  0.00    +0.000 HD
BRANCH  21  23
ATOM     23  C   UNL     1      50.343   7.256  15.761  0.00  0.00    +0.000 C 
BRANCH  23  24
ATOM     24  C   UNL     1      49.838   7.840  17.078  0.00  0.00    +0.000 A 
ATOM     25  N   UNL     1      48.621   8.425  17.072  0.00  0.00    +0.000 NA
ATOM     26  C   UNL     1      48.208   8.950  18.242  0.00  0.00    +0.000 A 
ATOM     27  C   UNL     1      48.952   8.915  19.397  0.00  0.00    +0.000 A 
ATOM     28  C   UNL     1      50.171   8.289  19.297  0.00  0.00    +0.000 A 
ATOM     29  N   UNL     1      50.638   7.742  18.160  0.00  0.00    +0.000 NA
ENDBRANCH  23  24
ENDBRANCH  21  23
ENDBRANCH  20  21
ENDBRANCH   4  20
TORSDOF 10
ENDMDL
MODEL 8
REMARK VINA RESULT:    -6.813      2.536      8.098
REMARK INTER + INTRA:         -11.807
REMARK INTER:                 -10.502
REMARK INTRA:                  -1.305
REMARK UNBOUND:                -1.012
REMARK  Name = 
REMARK  11 active torsions:
REMARK  status: ('A' for Active; 'I' for Inactive)
REMARK    1  A    between atoms: C_1  and  O_2
REMARK    2  A    between atoms: O_2  and  C_3
REMARK    3  A    between atoms: C_3  and  C_4
REMARK    4  A    between atoms: C_4  and  N_5
REMARK    5  A    between atoms: C_4  and  C_13
REMARK    6  A    between atoms: N_5  and  C_6
REMARK    7  A    between atoms: C_6  and  C_7
REMARK    8  A    between atoms: C_16  and  C_17
REMARK    9  A    between atoms: C_17  and  N_18
REMARK   10  A    between atoms: N_18  and  C_19
REMARK   11  A    between atoms: C_19  and  C_20
REMARK                            x       y       z     vdW  Elec       q    Type
REMARK                         _______ _______ _______ _____ _____    ______ ____
ROOT
ATOM      1  C   UNL     1      46.843   6.071  13.101  0.00  0.00    +0.000 A 
ATOM      2  C   UNL     1      45.981   5.035  13.500  0.00  0.00    +0.000 A 
ATOM      3  C   UNL     1      44.900   4.654  12.706  0.00  0.00    +0.000 A 
ATOM      4  C   UNL     1      44.663   5.278  11.475  0.00  0.00    +0.000 A 
ATOM      5  C   UNL     1      45.508   6.318  11.076  0.00  0.00    +0.000 A 
ATOM      6  C   UNL     1      46.575   6.718  11.885  0.00  0.00    +0.000 A 
ENDROOT
BRANCH   1   7
ATOM      7  C   UNL     1      47.986   6.488  14.031  0.00  0.00    +0.000 C 
BRANCH   7   8
ATOM      8  N   UNL     1      49.281   6.562  13.320  0.00  0.00    +0.000 NA
ATOM      9  H   UNL     1      49.130   6.535  12.315  0.00  0.00    +0.000 HD
BRANCH   8  10
ATOM     10  C   UNL     1      50.059   7.755  13.662  0.00  0.00    +0.000 C 
BRANCH  10  11
ATOM     11  C   UNL     1      49.470   9.016  13.077  0.00  0.00    +0.000 A 
ATOM     12  C   UNL     1      49.098  10.087  13.907  0.00  0.00    +0.000 A 
ATOM     13  C   UNL     1      48.597  11.264  13.354  0.00  0.00    +0.000 A 
ATOM     14  C   UNL     1      48.464  11.385  11.974  0.00  0.00    +0.000 A 
ATOM     15  C   UNL     1      48.835  10.330  11.142  0.00  0.00    +0.000 A 
ATOM     16  C   UNL     1      49.337   9.152  11.689  0.00  0.00    +0.000 A 
ENDBRANCH  10  11
ENDBRANCH   8  10
ENDBRANCH   7   8
BRANCH   7  17
ATOM     17  C   UNL     1      48.059   5.544  15.273  0.00  0.00    +0.000 C 
BRANCH  17  19
ATOM     18  C   UNL     1      48.791   5.257  17.491  0.00  0.00    +0.000 C 
ATOM     19  O   UNL     1      48.530   6.202  16.455  0.00  0.00    +0.000 OA
ENDBRANCH  17  19
ENDBRANCH   7  17
ENDBRANCH   1   7
BRANCH   4  20
ATOM     20  C   UNL     1      43.529   4.813  10.596  0.00  0.00    +0.000 C 
BRANCH  20  21
ATOM     21  N   UNL     1      44.028   4.333   9.315  0.00  0.00    +0.000 NA
ATOM     22  H   UNL     1      44.842   4.878   9.032  0.00  0.00    +0.000 HD
BRANCH  21  23
ATOM     23  C   UNL     1      44.434   2.922   9.393  0.00  0.00    +0.000 C 
BRANCH  23  24
ATOM     24  C   UNL     1      45.561   2.581   8.420  0.00  0.00    +0.000 A 
ATOM     25  N   UNL     1      46.004   1.306   8.406  0.00  0.00    +0.000 NA
ATOM     26  C   UNL     1      47.011   1.036   7.552  0.00  0.00    +0.000 A 
ATOM     27  C   UNL     1      47.584   1.976   6.729  0.00  0.00    +0.000 A 
ATOM     28  C   UNL     1      47.054   3.241   6.816  0.00  0.00    +0.000 A 
ATOM     29  N   UNL     1      46.046   3.572   7.643  0.00  0.00    +0.000 NA
ENDBRANCH  23  24
ENDBRANCH  21  23
ENDBRANCH  20  21
ENDBRANCH   4  20
TORSDOF 10
ENDMDL
MODEL 9
REMARK VINA RESULT:    -6.588      3.233      8.139
REMARK INTER + INTRA:         -11.450
REMARK INTER:                 -10.331
REMARK INTRA:                  -1.119
REMARK UNBOUND:                -1.012
REMARK  Name = 
REMARK  11 active torsions:
REMARK  status: ('A' for Active; 'I' for Inactive)
REMARK    1  A    between atoms: C_1  and  O_2
REMARK    2  A    between atoms: O_2  and  C_3
REMARK    3  A    between atoms: C_3  and  C_4
REMARK    4  A    between atoms: C_4  and  N_5
REMARK    5  A    between atoms: C_4  and  C_13
REMARK    6  A    between atoms: N_5  and  C_6
REMARK    7  A    between atoms: C_6  and  C_7
REMARK    8  A    between atoms: C_16  and  C_17
REMARK    9  A    between atoms: C_17  and  N_18
REMARK   10  A    between atoms: N_18  and  C_19
REMARK   11  A    between atoms: C_19  and  C_20
REMARK                            x       y       z     vdW  Elec       q    Type
REMARK                         _______ _______ _______ _____ _____    ______ ____
ROOT
ATOM      1  C   UNL     1      47.058   6.378  12.551  0.00  0.00    +0.000 A 
ATOM      2  C   UNL     1      46.925   5.221  13.337  0.00  0.00    +0.000 A 
ATOM      3  C   UNL     1      45.947   4.268  13.056  0.00  0.00    +0.000 A 
ATOM      4  C   UNL     1      45.088   4.430  11.962  0.00  0.00    +0.000 A 
ATOM      5  C   UNL     1      45.205   5.584  11.181  0.00  0.00    +0.000 A 
ATOM      6  C   UNL     1      46.167   6.551  11.480  0.00  0.00    +0.000 A 
ENDROOT
BRANCH   1   7
ATOM      7  C   UNL     1      48.115   7.419  12.931  0.00  0.00    +0.000 C 
BRANCH   7   8
ATOM      8  N   UNL     1      47.506   8.660  13.460  0.00  0.00    +0.000 NA
ATOM      9  H   UNL     1      47.816   8.820  14.415  0.00  0.00    +0.000 HD
BRANCH   8  10
ATOM     10  C   UNL     1      47.808   9.841  12.648  0.00  0.00    +0.000 C 
BRANCH  10  11
ATOM     11  C   UNL     1      46.587  10.387  11.948  0.00  0.00    +0.000 A 
ATOM     12  C   UNL     1      46.705  11.420  11.002  0.00  0.00    +0.000 A 
ATOM     13  C   UNL     1      45.578  11.888  10.328  0.00  0.00    +0.000 A 
ATOM     14  C   UNL     1      44.329  11.332  10.589  0.00  0.00    +0.000 A 
ATOM     15  C   UNL     1      44.203  10.304  11.522  0.00  0.00    +0.000 A 
ATOM     16  C   UNL     1      45.326   9.832  12.197  0.00  0.00    +0.000 A 
ENDBRANCH  10  11
ENDBRANCH   8  10
ENDBRANCH   7   8
BRANCH   7  17
ATOM     17  C   UNL     1      49.065   7.706  11.726  0.00  0.00    +0.000 C 
BRANCH  17  19
ATOM     18  C   UNL     1      51.238   8.351  11.096  0.00  0.00    +0.000 C 
ATOM     19  O   UNL     1      50.452   7.686  12.082  0.00  0.00    +0.000 OA
ENDBRANCH  17  19
ENDBRANCH   7  17
ENDBRANCH   1   7
BRANCH   4  20
ATOM     20  C   UNL     1      44.076   3.362  11.629  0.00  0.00    +0.000 C 
BRANCH  20  21
ATOM     21  N   UNL     1      44.633   2.389  10.700  0.00  0.00    +0.000 NA
ATOM     22  H   UNL     1      44.192   1.480  10.842  0.00  0.00    +0.000 HD
BRANCH  21  23
ATOM     23  C   UNL     1      44.405   2.788   9.304  0.00  0.00    +0.000 C 
BRANCH  23  24
ATOM     24  C   UNL     1      45.586   2.449   8.396  0.00  0.00    +0.000 A 
ATOM     25  N   UNL     1      46.103   3.450   7.651  0.00  0.00    +0.000 NA
ATOM     26  C   UNL     1      47.130   3.121   6.845  0.00  0.00    +0.000 A 
ATOM     27  C   UNL     1      47.651   1.852   6.754  0.00  0.00    +0.000 A 
ATOM     28  C   UNL     1      47.057   0.910   7.560  0.00  0.00    +0.000 A 
ATOM     29  N   UNL     1      46.033   1.177   8.390  0.00  0.00    +0.000 NA
ENDBRANCH  23  24
ENDBRANCH  21  23
ENDBRANCH  20  21
ENDBRANCH   4  20
TORSDOF 10
ENDMDL
